#------------------------------------------------------------------------------
#$Date: 2016-02-21 02:03:34 +0200 (Sun, 21 Feb 2016) $
#$Revision: 176798 $
#$URL: svn://www.crystallography.net/cod/cif/2/23/88/2238815.cif $
#------------------------------------------------------------------------------
#
# This file is available in the Crystallography Open Database (COD),
# http://www.crystallography.net/. The original data for this entry
# were provided by IUCr Journals, http://journals.iucr.org/.
#
# The file may be used within the scientific community so long as
# proper attribution is given to the journal article from which the
# data were obtained.
#
data_2238815
loop_
_publ_author_name
'Reiss, Guido J.'
_publ_section_title
;
 Bis[(dimethylphosphoryl)methanaminium] tetrachloridopalladate(II)
;
_journal_issue                   11
_journal_name_full               'Acta Crystallographica Section E'
_journal_page_first              m614
_journal_page_last               m615
_journal_paper_doi               10.1107/S1600536813028067
_journal_volume                  69
_journal_year                    2013
_chemical_formula_iupac          '(C3 H11 N O P)2 [Pd Cl4]'
_chemical_formula_moiety         '2(C3 H11 N O P +), Cl4 Pd 2-'
_chemical_formula_sum            'C6 H22 Cl4 N2 O2 P2 Pd'
_chemical_formula_weight         464.39
_chemical_name_systematic
;
Bis[(dimethylphosphoryl)methanaminium] tetrachloridopalladate(II)
;
_space_group_crystal_system      monoclinic
_space_group_IT_number           14
_space_group_name_Hall           '-P 2yn'
_space_group_name_H-M_alt        'P 1 21/n 1'
_symmetry_space_group_name_Hall  '-P 2yn'
_symmetry_space_group_name_H-M   'P 1 21/n 1'
_atom_sites_solution_hydrogens   difmap
_atom_sites_solution_primary     direct
_atom_sites_solution_secondary   difmap
_audit_creation_method           SHELXL-2013
_cell_angle_alpha                90
_cell_angle_beta                 110.110(3)
_cell_angle_gamma                90
_cell_formula_units_Z            2
_cell_length_a                   9.3600(3)
_cell_length_b                   7.81198(19)
_cell_length_c                   11.9892(3)
_cell_measurement_reflns_used    12224
_cell_measurement_temperature    290(2)
_cell_measurement_theta_max      35.381
_cell_measurement_theta_min      3.168
_cell_volume                     823.21(4)
_computing_cell_refinement       'CrysAlis PRO (Oxford Diffraction, 2009)'
_computing_data_collection       'CrysAlis PRO (Oxford Diffraction, 2009)'
_computing_data_reduction        'CrysAlis PRO (Oxford Diffraction, 2009)'
_computing_molecular_graphics    'DIAMOND (Brandenburg, 2012)'
_computing_publication_material  'publCIF (Westrip, 2010)'
_computing_structure_refinement  'SHELXL2013 (Sheldrick, 2008)'
_computing_structure_solution    'SHELXS2013 (Sheldrick, 2008)'
_diffrn_ambient_temperature      290(2)
_diffrn_detector_area_resol_mean 16.2711
_diffrn_measured_fraction_theta_full 0.999
_diffrn_measured_fraction_theta_max 0.992
_diffrn_measurement_device_type  'Oxford Diffraction Xcalibur CCD'
_diffrn_measurement_method       '\w scans'
_diffrn_radiation_monochromator  graphite
_diffrn_radiation_type           MoK\a
_diffrn_radiation_wavelength     0.71073
_diffrn_reflns_av_R_equivalents  0.0354
_diffrn_reflns_limit_h_max       14
_diffrn_reflns_limit_h_min       -15
_diffrn_reflns_limit_k_max       12
_diffrn_reflns_limit_k_min       -12
_diffrn_reflns_limit_l_max       19
_diffrn_reflns_limit_l_min       -19
_diffrn_reflns_number            26379
_diffrn_reflns_theta_full        25.242
_diffrn_reflns_theta_max         34.998
_diffrn_reflns_theta_min         3.174
_exptl_absorpt_coefficient_mu    1.963
_exptl_absorpt_correction_T_max  0.850
_exptl_absorpt_correction_T_min  0.764
_exptl_absorpt_correction_type   analytical
_exptl_absorpt_process_details
;
[using a multifaceted crystal model (Clark & Reid, 1995)]
;
_exptl_crystal_colour            yellow
_exptl_crystal_density_diffrn    1.874
_exptl_crystal_description       block
_exptl_crystal_F_000             464
_exptl_crystal_size_max          0.1766
_exptl_crystal_size_mid          0.1165
_exptl_crystal_size_min          0.1115
_refine_diff_density_max         0.455
_refine_diff_density_min         -0.571
_refine_ls_extinction_coef       0.0040(4)
_refine_ls_extinction_expression Fc^*^=kFc[1+0.001xFc^2^\l^3^/sin(2\q)]^-1/4^
_refine_ls_extinction_method     'SHELXL2013 (Sheldrick, 2008)'
_refine_ls_goodness_of_fit_ref   1.089
_refine_ls_hydrogen_treatment    mixed
_refine_ls_matrix_type           full
_refine_ls_number_parameters     94
_refine_ls_number_reflns         3595
_refine_ls_number_restraints     0
_refine_ls_restrained_S_all      1.089
_refine_ls_R_factor_all          0.0302
_refine_ls_R_factor_gt           0.0223
_refine_ls_shift/su_max          0.007
_refine_ls_shift/su_mean         0.001
_refine_ls_structure_factor_coef Fsqd
_refine_ls_weighting_details
;
 w=1/[\s^2^(Fo^2^)+(0.0178P)^2^+0.2170P]
 where P=(Fo^2^+2Fc^2^)/3
;
_refine_ls_weighting_scheme      calc
_refine_ls_wR_factor_gt          0.0479
_refine_ls_wR_factor_ref         0.0509
_reflns_number_gt                3077
_reflns_number_total             3595
_reflns_threshold_expression     'I > 2\s(I)'
_cod_data_source_file            wm2775.cif
_cod_data_source_block           I
_cod_database_code               2238815
#BEGIN Tags that were not found in dictionaries:
_shelx_space_group_comment
;
The symmetry employed for this shelxl refinement is uniquely defined
by the following loop, which should always be used as a source of
symmetry information in preference to the above space-group names.
They are only intended as comments.
;
_shelx_hkl_checksum              46382
_shelx_hkl_file
;
   0   0  -2 345790. 2092.08   2
   0   0   2 331702. 2023.92   1
   0   0  -3 73.0685 59.5694  12
   0   0   3 86.0689 96.1853  13
   0   0  -3 38.7736 82.4538   2
   0   0   3 141.150 148.407   1
   0   0   4 145285. 1915.79   1
   0   0  -4 146785. 1518.84  12
   0   0   4 147587. 1968.64  13
   0   0  -4 150198. 1955.90   2
   0   0   5-23.9111 151.955   1
   0   0  -5 89.8753 49.5833   5
   0   0  -5-154.144 149.316   2
   0   0  -5 316.873 127.773   9
   0   0  -5 53.3852 87.0944  12
   0   0   5-19.9273 109.127  13
   0   0  -6 19117.5 691.919   9
   0   0   6 18674.4 865.620   1
   0   0   6 18357.3 762.437  14
   0   0   6 17612.5 847.329  13
   0   0  -6 18418.9 665.185  12
   0   0  -6 18441.5 861.955   2
   0   0  -6 19400.2 473.894   5
   0   0   7 26.8251 186.271   1
   0   0  -7 36.8142 97.9504  12
   0   0  -7 213.617 139.385   9
   0   0   7-97.3168 118.375  14
   0   0  -7-19.1480 53.3744   5
   0   0  -7-48.2065 149.185   2
   0   0   7-77.6450 150.773  13
   0   0  -8 139164. 2161.36   9
   0   0  -8 135231. 1312.07   5
   0   0  -8 134585. 2077.52  12
   0   0   8 136613. 2410.11  14
   0   0  -8 142488. 2786.40   2
   0   0   8 136045. 2769.41  13
   0   0   8 134916. 2711.25   1
   0   0   9 84.5008 212.702  13
   0   0   9 174.893 126.004  14
   0   0  -9 300.646 156.402  12
   0   0  -9 33.4016 140.438   9
   0   0   9 519.144 314.374   1
   0   0  -9 660.614 292.069   2
   0   0  10 68260.8 2258.01  13
   0   0  10 67759.0 1924.57  14
   0   0  10 74212.3 1920.07   6
   0   0 -10 72528.4 1749.88   9
   0   0 -10 68492.3 2225.29   2
   0   0  10 65281.2 2178.34   1
   0   0 -10 65792.0 1641.76  12
   0   0  11 97.6899 206.703  13
   0   0  11-196.271 282.177   1
   0   0  11-55.7110 133.712  14
   0   0 -11 53.1997 131.439   9
   0   0 -11 136.031 205.235   2
   0   0  11 252.149 195.432   6
   0   0  12 23946.2 1493.81  13
   0   0  12 19306.3 1346.54   1
   0   0 -12 19622.8 1345.68   2
   0   0  12 21884.2 1162.96   6
   0   0  12 22359.1 1239.67  14
   0   0  13 129.616 308.415   1
   0   0 -13-108.168 272.024   2
   0   0  14 6682.67 901.071   1
   0   0 -14 4992.97 764.037   2
   0   0  14 5402.10 773.932  15
   0   0 -15-434.633 369.969   2
   0   0  15-183.604 341.512   1
   0   0  15-355.022 275.657  15
   0   0  16 637.084 350.634  15
   0   0  16 379.620 330.651   1
   0   0 -16 539.078 359.599   2
   0   0  17-363.455 353.551   1
   0   0  17-306.781 338.645  15
   0   0 -17 175.185 246.923   2
   0   0  18 4159.09 815.299  18
   0   0  18 4032.45 791.773  15
   0   1  -1 65830.6 838.893   2
   0  -1  -1 67420.1 854.043  11
   0  -1   1 66576.6 816.855  13
   0  -1  -1 65334.7 813.314  17
   0   1   1 67373.6 871.015  15
   0   1  -1 69288.4 860.969   5
   0  -1   2 14529.1 447.451   1
   0  -1  -2 15772.9 495.820  17
   0   1  -2 14720.0 435.258   5
   0  -1   2 15006.0 392.475   6
   0   1   2 14757.0 358.313  14
   0   1  -2 14264.5 476.518   2
   0  -1   2 14006.7 479.213  13
   0  -1   2 14178.2 467.601  18
   0  -1  -2 14911.1 413.718  12
   0   1   2 14758.0 485.949  15
   0   1   2 16292.5 507.251   1
   0  -1   3 74924.7 1211.57   1
   0  -1   3 76439.6 1312.32  13
   0  -1  -3 76769.9 1054.02  12
   0   1  -3 78999.0 1059.40   5
   0   1  -3 73876.9 1279.36   2
   0   1   3 77357.9 984.946  14
   0   1   3 77104.1 1275.68   1
   0  -1   3 78880.8 1037.90   6
   0   1   3 76897.8 1284.92  15
   0   1   4 1871.58 265.504   1
   0  -1  -4 1906.49 197.887  12
   0  -1  -4 1646.44 165.202   9
   0   1  -4 1806.37 249.911   2
   0  -1   4 1735.40 247.243  13
   0   1   4 1832.59 185.778  14
   0   1   4 1753.31 216.293  13
   0   1  -4 2052.87 196.907   5
   0  -1   4 1978.70 198.319   6
   0  -1   4 2335.77 270.088   1
   0  -1   5 227884. 2867.84  13
   0  -1   5 228269. 2711.76   1
   0   1   5 234412. 2803.55   1
   0  -1   5 237067. 2312.87   6
   0  -1  -5 240738. 2143.25   9
   0  -1  -5 230933. 2225.51  12
   0   1   5 232185. 2664.35  13
   0   1  -5 234314. 2871.59   2
   0   1  -5 237832. 2087.04   5
   0   1   5 235846. 2252.49  14
   0   1   6 9453.46 606.972  13
   0  -1  -6 8868.50 455.595   9
   0  -1  -6 8415.17 462.444  12
   0   1  -6 8281.48 420.071   5
   0   1  -6 8772.30 484.794  12
   0  -1   6 9068.45 606.876   1
   0   1   6 8447.75 480.301  14
   0   1   6 8999.77 629.272   1
   0   1  -6 7626.50 595.589   2
   0  -1   6 8132.22 612.536  13
   0  -1   6 8894.62 499.558   6
   0  -1   7 196990. 2995.88   1
   0  -1  -7 182970. 2325.48  12
   0  -1  -7 196963. 3022.67   2
   0  -1  -7 194298. 2298.89   9
   0   1  -7 187646. 2382.60  12
   0   1   7 189221. 3023.88   1
   0   1   7 193429. 2953.37  13
   0  -1   7 191469. 3131.83  13
   0   1  -7 200117. 3145.47   2
   0   1   7 193642. 2494.19  14
   0   1  -7 195048. 2059.89   5
   0  -1   7 195009. 2497.63   6
   0  -1  -8 416.040 156.874  12
   0   1  -8 292.993 205.969   2
   0  -1   8 604.370 277.682   1
   0   1   8 239.748 259.323   1
   0  -1  -8 174.410 103.997   9
   0   1   8 417.929 140.274  14
   0  -1   8 663.089 199.949   6
   0   1  -8 330.469 109.923   5
   0  -1  -8 226.474 204.511   2
   0   1  -8 244.608 132.141  12
   0  -1   8 332.009 222.768  13
   0   1   8 195.298 137.090  13
   0  -1   9 4454.18 567.523  13
   0   1  -9 5778.41 534.262   9
   0  -1  -9 4780.44 430.186  12
   0   1   9 5061.61 649.229   1
   0   1  -9 4795.58 432.477  12
   0   1   9 5268.70 485.324  14
   0  -1  -9 3869.04 545.647   2
   0  -1   9 4681.00 454.397   6
   0  -1  -9 4861.04 414.520   9
   0   1  -9 4682.49 567.315   2
   0  -1   9 4798.73 600.606   1
   0  -1 -10 11275.8 910.088   2
   0  -1  10 12168.6 970.116   1
   0  -1  10 12168.6 989.792  13
   0   1 -10 11557.4 754.623   9
   0  -1 -10 11714.5 685.605   9
   0   1 -10 10745.4 680.918  12
   0  -1 -10 11067.1 675.614  12
   0  -1  10 11136.9 739.320   6
   0   1  10 10385.9 747.082  14
   0   1  10 9877.04 933.041   1
   0  -1  10 10224.5 790.721  14
   0   1 -10 11502.6 942.161   2
   0   1 -11 6110.26 745.405   2
   0  -1  11 5799.31 734.105  13
   0   1 -11 5964.85 572.744   9
   0  -1  11 6648.08 773.126   1
   0  -1  11 6145.30 659.093  14
   0   1  11 5892.39 756.352   1
   0  -1  11 6267.93 586.149   6
   0   1  11 5340.56 565.782  14
   0   1  11 6649.10 746.054  15
   0  -1 -11 4737.44 634.850   2
   0  -1  12 1129.94 368.256  13
   0   1 -12 273.811 256.982   2
   0  -1  12 1081.45 317.501  14
   0   1  12 973.133 408.523   1
   0  -1  12 1305.20 452.825   1
   0  -1 -12 646.539 318.456   2
   0   1  12 1135.33 369.178  15
   0  -1  13 38422.6 1952.10   1
   0   1  13 40078.1 2032.61   1
   0  -1 -13 38673.6 1979.46   2
   0  -1  13 39595.0 1796.19  14
   0   1  13 37781.6 1974.42  15
   0  -1  13 39034.0 2054.75  13
   0   1 -13 40041.8 2037.98   2
   0  -1  14 2351.07 631.763   1
   0   1 -14 3031.78 629.534   2
   0   1  14 3903.08 707.253  15
   0   1  14 2099.48 591.230   1
   0  -1 -14 3769.40 698.153   2
   0  -1  15 9234.33 1053.86  18
   0  -1  15 11100.3 1216.87   1
   0   1  15 11084.8 1150.37  15
   0   1  15 10454.8 1217.98   1
   0  -1 -15 8896.43 1058.59   2
   0   1 -15 10001.1 1126.49   2
   0  -1  16 2143.62 552.677  18
   0  -1  16 1467.71 432.310  15
   0  -1 -16 2114.51 596.105   2
   0   1  16 1972.36 558.873  15
   0   1 -16 2013.40 576.748   2
   0   1  16 3463.93 766.228   1
   0  -1  16 1377.90 579.688   1
   0  -1  17 1072.42 533.203   1
   0   1  17 2665.55 645.227  15
   0  -1  17 2851.14 662.528  15
   0   1  17 3827.21 785.443   1
   0   1 -17 2773.44 674.433   2
   0  -1  17 3143.32 675.742  18
   0  -1 -17 2295.67 585.183   2
   0  -1 -18 910.815 433.134  10
   0  -1  18 646.237 402.930  18
   0   1  18 700.916 437.787  15
   0   2   0 316980. 2429.38   5
   0  -2   0 324029. 2414.89  11
   0  -2   0 331039. 1873.23  13
   0   2   0 324160. 2331.43  16
   0  -2   0 334136. 2046.55  17
   0  -2   0 329794. 2423.24   4
   0   2  -1 36996.9 877.830   5
   0   2  -1 35615.7 793.448   2
   0  -2   1 35358.0 838.655  11
   0  -2  -1 36461.4 841.536  11
   0  -2  -1 35055.7 706.293  10
   0   2   1 37491.9 796.138   5
   0  -2   1 37632.3 695.904  17
   0  -2   1 36856.8 741.323  13
   0  -2  -1 37015.9 758.542  17
   0  -2  -1 37341.4 865.039   4
   0   2  -1 35908.2 759.429  16
   0  -2  -2 109735. 1293.03  10
   0  -2  -2 112943. 1503.92  17
   0  -2  -2 105275. 1100.24   3
   0  -2   2 111402. 1358.83  17
   0   2  -2 109806. 1535.10   2
   0   2   2 117308. 1597.02   1
   0  -2   2 112343. 1496.05  13
   0   2   2 110019. 1586.35  15
   0   2   2 104582. 1265.44   5
   0  -2  -2 105902. 1524.43  11
   0   2  -2 112100. 1560.39   5
   0  -2  -3 26529.3 495.835   3
   0  -2   3 26785.8 832.694  18
   0  -2   3 27969.4 850.625  13
   0  -2  -3 27354.6 715.545  10
   0  -2  -3 28415.0 859.312  17
   0   2  -3 27135.8 852.603   2
   0   2   3 27196.2 641.591  14
   0   2  -3 28701.0 834.564   5
   0  -2  -3 26168.1 747.102  12
   0   2   3 29190.9 891.754   1
   0   2   3 27665.6 880.956  15
   0   2   3 27142.9 617.243   5
   0  -2  -3 27097.5 846.276  11
   0   2  -4 45183.0 1075.71   5
   0  -2   4 43107.3 1104.07   1
   0  -2  -4 45250.6 1033.91  10
   0   2   4 44579.8 890.313  14
   0  -2  -4 44202.2 1014.08  12
   0   2   4 42066.9 744.483   5
   0   2  -4 43337.2 1193.95   2
   0  -2   4 44718.5 1208.90  13
   0   2   4 43845.9 1208.90  15
   0  -2   4 46745.7 1187.31  18
   0   2   4 46941.5 1228.87   1
   0  -2   4 44577.8 975.641   6
   0  -2   5 125.919 131.838  13
   0   2  -5 56.4548 108.844   5
   0  -2   5 172.674 112.320   6
   0  -2   5-136.772 163.921   1
   0   2  -5 192.526 162.748   2
   0   2   5 74.4984 73.9109  14
   0  -2  -5 80.8081 88.1707  12
   0   2   5 135.070 51.8302   5
   0  -2   5 135.296 145.316  18
   0   2   5 149.358 184.581   1
   0   2   5 30.6495 130.366  15
   0  -2  -6 200812. 2412.91  12
   0  -2   6 204318. 3101.87  13
   0   2   6 209437. 2284.27  14
   0   2  -6 208020. 2488.38   5
   0   2   6 206860. 3037.29   1
   0   2   6 200312. 3035.84  15
   0  -2   6 203831. 2856.29   1
   0  -2   6 203876. 2413.61   6
   0  -2   6 202087. 2904.69  18
   0   2  -6 207546. 3074.80   2
   0  -2   7 63057.2 1875.43  13
   0  -2   7 61869.6 1416.40   6
   0  -2   7 58798.5 1702.57  18
   0   2  -7 62824.6 1828.83   2
   0   2   7 61220.9 1356.16  14
   0   2  -7 62042.8 1405.41   5
   0   2   7 61186.8 1825.91  15
   0   2   7 62687.6 1798.16   1
   0  -2  -7 59684.3 1399.03  12
   0  -2   7 58446.3 1721.73   1
   0   2  -8 67739.2 1500.77   5
   0  -2   8 69473.6 1939.47   1
   0  -2   8 68462.4 2095.22  13
   0  -2  -8 62840.7 1513.37  12
   0  -2   8 66137.3 1561.75   6
   0   2   8 64540.1 1505.05  14
   0   2   8 65130.5 1981.52  15
   0   2   8 68982.8 2026.37   1
   0   2  -8 64669.2 2006.90   2
   0  -2   8 63609.5 1888.18  18
   0  -2  -9 25505.1 1275.09   2
   0  -2   9 26191.8 1041.90   6
   0   2  -9 25876.9 1351.36   2
   0  -2  -9 23910.6 980.833  12
   0   2  -9 24758.4 1033.29  12
   0  -2   9 23512.0 1232.67  18
   0  -2   9 26604.8 1311.50   1
   0   2   9 26301.6 1369.01   1
   0   2   9 25061.4 1005.45  14
   0  -2   9 23811.0 1327.10  13
   0   2  -9 25893.9 952.870   5
   0   2   9 24668.5 1316.51  15
   0  -2  10 474.052 330.652  13
   0   2 -10 736.464 205.435  12
   0   2  10 1103.73 242.003  14
   0  -2 -10 975.826 222.184  12
   0  -2  10 702.828 291.578  18
   0   2  10 864.059 401.733   1
   0  -2 -10 838.380 262.755   2
   0   2  10 756.156 314.707  15
   0  -2  10 1175.24 254.601   6
   0  -2  10 773.958 305.877   1
   0   2 -10 418.628 296.232   2
   0  -2 -11 15216.7 1131.13   2
   0   2 -11 17371.2 1233.03   2
   0   2  11 16805.6 1199.60  15
   0   2  11 17725.7 1270.52   1
   0  -2  11 16818.3 932.005   6
   0  -2  11 16482.3 1146.89  18
   0  -2  11 14721.9 1127.36   1
   0  -2  11 16468.8 1230.43  13
   0   2 -12 22430.3 1207.05   9
   0   2  12 21259.2 1483.61   1
   0  -2  12 21029.8 1328.53  14
   0  -2 -12 20622.8 1364.23   2
   0  -2  12 18566.8 1300.95  18
   0  -2  12 18865.0 1375.28   1
   0   2 -12 22190.1 1476.26   2
   0   2  12 21719.6 1444.15  15
   0  -2  12 19472.9 1424.97  13
   0  -2  13 7858.96 967.634  13
   0   2 -13 6919.59 904.291   2
   0  -2  13 7466.02 926.016   1
   0  -2 -13 6813.91 852.357   2
   0  -2  13 7622.93 884.846  18
   0  -2  13 6571.77 788.500  14
   0   2  13 7420.16 907.073  15
   0   2  13 6457.38 887.417   1
   0   2 -14 23493.0 1656.91   2
   0  -2  14 23351.0 1626.30   1
   0  -2  14 22587.1 1573.03  18
   0  -2 -14 22259.1 1582.84   2
   0   2  14 23835.4 1665.20  15
   0   2  14 23268.8 1679.57   1
   0  -2  14 22910.8 1699.11  13
   0  -2  14 23397.2 1512.08  14
   0  -2  15-68.7481 298.364  13
   0  -2  15-595.592 451.283   1
   0   2  15 106.773 269.669  15
   0  -2 -15-335.703 262.135   2
   0  -2  15-20.7741 277.294  18
   0   2 -15 7.20510 270.987   2
   0  -2 -15 225.352 292.979  10
   0   2  15 25.9509 357.157   1
   0  -2 -16 2574.99 590.000  10
   0  -2  16 3679.28 741.670  18
   0  -2  16 2455.12 665.559   1
   0   2  16 1811.28 608.801   1
   0  -2 -16 3010.06 676.449   2
   0   2 -16 2884.09 662.410   2
   0   2  16 2400.79 586.185  15
   0   2  17 299.422 346.565  15
   0   2 -17-174.313 342.692   2
   0  -2 -17-88.6924 319.012   2
   0  -2  17 315.107 343.510   1
   0  -2  17 218.399 294.457  18
   0   2  17 506.331 356.125   1
   0   2  18 1761.71 593.171  15
   0   3   0 345.040 154.016   5
   0  -3   0 67.6668 92.3139   4
   0   3   0 16.5062 98.2037  16
   0  -3   0 69.3845 77.7751  17
   0  -3   0-94.1659 113.097  11
   0   3   0 92.2518 55.3165   8
   0  -3   0 64.5009 66.6068  13
   0   3  -1 72254.0 1333.71  16
   0   3   1 73850.7 1390.96   5
   0  -3  -1 75817.9 1023.49  13
   0  -3  -1 75817.8 1495.35   4
   0   3  -1 75285.2 1506.70   5
   0   3  -1 71895.2 1345.44   2
   0  -3   1 73816.5 1216.60  13
   0  -3   1 74129.9 1406.55   4
   0  -3  -1 75017.7 1269.39  17
   0  -3  -1 73093.7 1241.25  10
   0  -3   1 73839.3 1433.64  11
   0  -3  -1 74132.9 1441.31  11
   0  -3   1 74351.4 1194.05  17
   0   3  -2 180531. 2389.59   5
   0  -3  -2 169158. 2272.77  11
   0   3  -2 173513. 2222.21   2
   0  -3   2 172458. 2078.52  13
   0  -3  -2 171061. 1825.44   3
   0  -3   2 174783. 2298.71  11
   0  -3  -2 176654. 1941.15  10
   0  -3   2 177427. 1921.74  17
   0   3   2 171833. 2056.33   5
   0  -3  -2 181307. 2146.24  17
   0  -3   3 82536.3 1431.80  17
   0  -3  -3 76289.9 1131.70   3
   0  -3   3 75707.5 1538.39  13
   0   3  -3 79129.4 1632.22   5
   0  -3  -3 77444.4 1339.11  10
   0   3   3 76544.4 1333.90   5
   0  -3  -3 79682.6 1564.52  17
   0   3  -3 78485.5 1616.77   2
   0  -3  -3 76888.0 1601.49  11
   0   3   3 83178.3 1685.64   1
   0  -3   4 1.46383 127.400  13
   0  -3  -4 100.491 53.8215   3
   0   3   4 253.058 192.358   1
   0   3  -4 82.6337 135.545   5
   0  -3  -4 48.9131 106.446  10
   0  -3  -4 136.747 144.166  11
   0   3   4 67.5860 106.768  15
   0   3  -4 24.4499 112.754   2
   0  -3  -4 67.8326 119.715  17
   0   3   4 353.444 154.712   5
   0   3   5 169364. 2703.82   1
   0   3   5 157091. 1803.10   5
   0  -3  -5 166504. 2655.98  11
   0  -3  -5 162342. 2245.23  10
   0   3   5 160477. 1963.41  14
   0   3  -5 167134. 2513.45   5
   0   3  -5 165032. 2700.04   2
   0   3   5 166919. 2764.22  15
   0  -3   5 161179. 2628.55  18
   0  -3   5 162838. 2680.92  13
   0  -3  -6 48013.8 1317.15  12
   0  -3  -6 49387.4 1344.80  10
   0  -3   6 45669.4 1503.43  18
   0   3   6 50030.3 1618.33   1
   0   3   6 44996.1 909.194   5
   0   3   6 49338.8 1608.44  15
   0   3  -6 50147.4 1413.37   5
   0  -3   6 49667.8 1603.85  13
   0   3  -6 49166.0 1586.72   2
   0   3   6 46965.2 1117.98  14
   0  -3   7 35892.2 1409.74  18
   0  -3   7 33833.0 1323.96   1
   0  -3   7 34389.8 1115.67   6
   0   3  -7 36939.5 1467.04   2
   0  -3   7 36102.1 1461.06  13
   0   3  -7 37346.9 1255.38   5
   0   3   7 34403.4 1018.14  14
   0  -3  -7 34961.1 1167.39  12
   0   3   7 37400.0 1475.33   1
   0  -3  -7 35783.0 1228.06  10
   0   3   7 34719.7 1449.28  15
   0   3   8 7412.87 722.278   1
   0  -3  -8 6411.38 536.730  12
   0   3   8 7135.26 716.819  15
   0  -3   8 6483.71 638.301   1
   0   3  -8 6741.95 563.413   5
   0  -3  -8 6887.83 584.937  10
   0  -3   8 6137.94 611.594  18
   0  -3   8 6384.11 687.131  13
   0   3  -8 6925.66 702.000   2
   0  -3   8 6995.17 531.706   6
   0   3   8 7483.09 515.381  14
   0  -3  -9 4445.03 465.044  12
   0  -3   9 5733.43 650.573  18
   0   3  -9 5445.77 640.114   2
   0   3   9 5313.26 709.484   1
   0  -3   9 4902.54 619.217   1
   0   3   9 4977.00 446.516  14
   0   3   9 4950.03 632.455  15
   0  -3   9 5170.30 668.676  13
   0   3  -9 5206.43 500.427   5
   0  -3   9 5203.20 490.366   6
   0  -3  -9 5949.30 588.779  10
   0   3  10 36.3294 240.752  15
   0  -3  10 89.6942 150.538   6
   0  -3  10-114.542 200.666   1
   0   3  10-102.425 302.216   1
   0  -3 -10-19.1471 147.001  12
   0  -3 -10 86.0285 195.008  10
   0  -3  10-151.762 185.979  18
   0   3 -10 213.591 286.115   2
   0  -3  10 3.83318 253.442  13
   0  -3  11 36143.5 1873.38  13
   0   3  11 33797.2 1783.06   1
   0  -3  11 34633.1 1714.39  18
   0  -3 -11 33797.6 1694.29   2
   0   3 -11 33168.5 1749.36   2
   0   3  11 33847.7 1783.99  15
   0  -3 -11 37347.6 1626.69  10
   0  -3  11 35195.2 1744.67   1
   0  -3 -12 340.883 263.776   2
   0   3  12 1477.48 552.494   1
   0  -3  12 628.023 307.104   1
   0  -3  12 1313.11 385.906  18
   0  -3  12 1264.55 460.843  13
   0   3  12 604.100 315.394  15
   0   3 -12 869.743 374.000   2
   0  -3 -12 1355.16 374.843  10
   0  -3 -13 41592.1 2055.72   2
   0   3  13 41198.2 2162.85   1
   0  -3 -13 43403.6 1938.63  10
   0  -3  13 43658.2 2159.57   1
   0   3 -13 41384.3 2157.90   2
   0  -3  13 45251.3 2312.72  13
   0  -3  13 44838.5 2148.53  18
   0   3  13 44425.8 2245.18  15
   0  -3 -14 3222.58 602.881  10
   0  -3  14 3057.16 603.316  14
   0  -3  14 3379.19 669.684  18
   0   3  14 4296.86 758.907  15
   0   3  14 3758.47 825.837   1
   0  -3 -14 2501.72 550.591   2
   0  -3  14 3030.52 695.017   1
   0  -3  14 5101.34 861.989  13
   0   3 -14 2760.57 618.516   2
   0   3  15 3781.47 826.164   1
   0  -3  15 2660.19 703.784   1
   0   3 -15 4769.05 821.657   2
   0  -3 -15 3748.81 696.978   2
   0  -3  15 4646.60 785.313  18
   0  -3  15 3418.00 748.741  13
   0   3  15 4699.29 796.426  15
   0  -3  15 3996.06 698.531  14
   0  -3  16 214.708 300.712   1
   0   3 -16 275.496 320.722   2
   0  -3  16-236.671 411.510  13
   0   3  16 92.3084 271.613  15
   0  -3  16-528.841 382.046  18
   0  -3 -16 473.478 337.322   2
   0   3  16-384.769 439.228   1
   0   3  17-139.431 300.756  15
   0  -3  17-159.516 330.392  18
   0   3  17-485.971 447.808   1
   0  -3  17-163.896 328.243   1
   0   3 -17 164.347 286.387   2
   0  -3 -17 27.2396 233.129   2
   0  -4   0 84715.8 1775.72  11
   0   4   0 85711.2 1804.25   5
   0  -4   0 84518.8 1353.23  13
   0   4   0 85367.3 1713.12  16
   0  -4   0 90301.0 1814.74   4
   0  -4   0 85146.4 1479.15  17
   0  -4  -1 57138.7 1049.15  13
   0   4  -1 54183.3 1349.38   2
   0   4  -1 60731.9 1405.55  16
   0  -4   1 57692.8 1206.49  17
   0  -4   1 57609.6 1473.20  11
   0  -4   1 61503.3 1463.77   4
   0   4   1 57143.3 860.167   8
   0  -4  -1 60790.2 1293.64  17
   0   4   1 57890.6 1445.50   5
   0  -4  -1 60104.4 1497.45  11
   0   4  -1 58010.6 1518.22   5
   0  -4  -1 60873.5 1536.37   4
   0  -4  -1 59722.6 1309.25  10
   0  -4   1 58508.4 1212.32  13
   0  -4   2 38811.8 1012.48  17
   0   4  -2 39725.9 1206.61   2
   0  -4  -2 37537.8 1221.70  11
   0  -4   2 38572.3 1243.76  11
   0   4  -2 40626.4 1310.27   5
   0  -4  -2 39293.3 1108.46  17
   0  -4  -2 37084.9 1019.08   3
   0  -4  -2 39079.9 1062.26  10
   0  -4   2 39396.7 1167.24   4
   0  -4  -2 37824.1 838.401  13
   0  -4   2 40132.2 1105.73  13
   0   4   2 38701.0 1152.30   5
   0  -4  -3 15546.3 627.802   3
   0   4   3 18188.9 871.510   1
   0   4  -3 16439.3 862.650   5
   0   4  -3 16725.2 826.827   2
   0  -4   3 16581.7 777.450  13
   0  -4  -3 15919.1 759.520  17
   0  -4   3 16533.3 694.571  17
   0  -4  -3 16717.9 702.937  10
   0  -4  -3 16395.0 838.170  11
   0   4   3 16255.0 741.083   5
   0  -4  -4 36000.6 898.323   3
   0   4  -4 36898.8 1299.25   2
   0  -4   4 39322.5 1152.75  17
   0   4   4 41692.1 1379.97   1
   0  -4  -4 39302.6 1281.43  17
   0  -4  -4 39662.9 1113.14  10
   0  -4   4 38141.8 1284.70  13
   0   4   4 35903.1 1069.86   5
   0  -4  -4 38083.5 1315.12  11
   0   4  -4 41545.5 1394.93   5
   0  -4  -5 22250.2 879.091  10
   0  -4  -5 21376.8 631.414   3
   0   4   5 22396.5 1114.44   1
   0   4   5 20100.4 781.760   5
   0   4  -5 21257.6 1051.36   2
   0  -4   5 22504.1 944.380  17
   0  -4  -5 22966.0 1074.99  11
   0   4  -5 23126.7 1054.34   5
   0  -4   5 21053.7 1027.70  13
   0  -4  -6 137785. 2327.14  10
   0  -4   6 138535. 2813.15  13
   0   4   6 139424. 2918.83  15
   0   4   6 132743. 1929.84   5
   0   4  -6 135444. 2809.75   2
   0   4   6 143373. 2840.23   1
   0   4  -6 138391. 2638.63   5
   0  -4  -6 139302. 2797.16  11
   0  -4  -7 1037.80 246.400  10
   0   4   7 678.807 296.861   1
   0  -4   7 796.230 278.624  18
   0   4  -7 954.758 288.304   5
   0   4   7 567.951 282.939  15
   0  -4   7 838.419 297.173  13
   0   4  -7 821.206 269.997   2
   0  -4  -7 652.769 253.854  11
   0  -4   8 79817.2 2339.59  18
   0   4   8 80768.5 2464.52  15
   0  -4  -8 85823.3 2428.90  11
   0  -4  -8 79072.6 1985.96  10
   0   4   8 82243.2 2424.77   1
   0   4  -8 82569.1 2133.06   5
   0  -4   8 79899.7 2421.37  13
   0   4  -8 78954.8 2385.07   2
   0   4  -9 3922.24 599.163   2
   0  -4  -9 2985.90 544.481  11
   0  -4   9 3134.88 513.769  18
   0  -4  -9 3437.29 457.904  10
   0  -4   9 3955.00 601.708  13
   0   4  -9 3780.10 502.841   5
   0   4   9 4474.08 638.434  15
   0   4   9 4708.33 696.922   1
   0  -4 -10 4028.62 610.895  11
   0   4  10 4214.59 642.874  15
   0   4  10 5019.29 761.072   1
   0  -4 -10 4572.79 563.127  10
   0  -4  10 3777.62 600.147  18
   0  -4  10 4285.87 665.211  13
   0   4 -10 4700.56 691.459   2
   0   4 -10 4893.07 566.634   5
   0   4  11 164.694 293.107   1
   0   4  11 611.252 355.432  15
   0  -4 -11 199.162 251.123  11
   0  -4  11 556.488 296.912  18
   0  -4  11 265.746 353.508  13
   0   4 -11 319.870 267.262   2
   0  -4 -11 358.728 212.306  10
   0   4 -12 4175.47 702.026   2
   0  -4  12 4116.40 661.932  18
   0  -4 -12 3938.31 631.330   2
   0   4  12 3902.31 715.727  15
   0   4  12 5273.39 853.133   1
   0  -4 -12 5257.48 743.714  11
   0  -4  12 4883.11 778.230  13
   0  -4 -12 3516.38 535.211  10
   0  -4  13 109.424 279.261  13
   0   4 -13 491.333 349.360   2
   0  -4 -13 288.804 320.748  11
   0  -4 -13-183.477 271.125   2
   0  -4  13 6.17663 320.639  18
   0   4  13 581.430 515.276   1
   0   4  13-145.276 325.489  15
   0  -4  14 10840.0 1216.13  13
   0  -4  14 9443.48 1068.39  18
   0  -4 -14 11035.0 1191.44  11
   0   4  14 11134.8 1241.20   1
   0   4 -14 8393.06 1050.86   2
   0   4  14 10341.6 1175.27  15
   0  -4 -14 9654.20 1075.98   2
   0  -4  15-259.265 339.583  18
   0  -4 -15-88.7328 239.231   2
   0   4  15 874.388 472.495   1
   0   4  15-192.355 325.681  15
   0  -4  15 604.778 459.714  13
   0  -4  15-0.70620 229.831  14
   0  -4 -15 528.000 411.948  11
   0   4 -15-86.5699 260.521   2
   0   4  16 8502.97 1177.11   1
   0  -4  16 7928.79 1136.09  13
   0  -4  16 7757.22 1011.73  14
   0  -4  16 6905.34 995.261  18
   0   4 -16 7342.33 1055.99   2
   0   4  16 8637.28 1165.45  15
   0  -4 -16 6310.74 945.389   2
   0  -4 -16 8629.52 1141.78  11
   0  -4 -17 843.828 440.475   2
   0  -4  17 388.398 335.088  18
   0   4  17 443.737 288.394  15
   0  -5   0 175.701 191.489  11
   0   5   0 250.221 194.524  16
   0  -5   0-298.211 213.776   4
   0  -5   0 98.9807 95.0857  13
   0  -5   0-76.1963 118.341  17
   0   5   0 166.920 214.073   5
   0  -5  -1 218223. 2303.44  13
   0   5  -1 213564. 3305.08   5
   0  -5   1 210323. 2588.26  13
   0  -5   1 220136. 2645.10  17
   0   5   1 215105. 3176.51   5
   0  -5  -1 219112. 2769.95  17
   0  -5   1 214218. 3233.64  11
   0  -5   1 221090. 3176.91   4
   0  -5  -1 221466. 3307.80   4
   0   5  -1 221926. 3042.12  16
   0  -5  -1 214790. 3217.01  11
   0   5   1 221606. 3210.43  16
   0   5   1 210397. 1826.89   8
   0  -5  -2 96.8056 101.140  17
   0  -5   2 131.668 115.276  17
   0  -5  -2-15.6558 122.307   3
   0  -5   2-1.63660 122.209  13
   0  -5   2-267.367 224.939  11
   0   5   2-42.2184 201.161   5
   0   5   2-118.687 75.6638   8
   0  -5  -2 46.9408 68.8245  13
   0  -5  -2 177.743 157.868  11
   0  -5   2-95.4545 141.998   4
   0  -5  -2 87.2075 113.822  10
   0   5  -2 313.583 247.647   5
   0   5  -2 57.3456 142.837   2
   0  -5   3 39032.4 1283.19  13
   0  -5  -3 40018.3 1213.48  10
   0  -5  -3 38286.5 941.509  13
   0  -5  -3 42223.8 1330.97  17
   0  -5   3 40079.5 1336.98   4
   0  -5  -3 39354.8 1187.02   3
   0   5  -3 41079.9 1416.71   2
   0   5   3 38452.8 1297.54   5
   0  -5  -3 41690.7 1473.44  11
   0   5  -3 42011.7 1545.94   5
   0  -5   3 41341.5 1203.62  17
   0   5   3 44692.0 1515.68   1
   0  -5   3 41145.3 1489.38  11
   0  -5  -4 27763.3 1245.18  11
   0   5   4 27272.2 1071.32   5
   0   5  -4 26837.8 1263.67   5
   0  -5  -4 27569.6 1162.47  17
   0   5  -4 26347.6 1198.05   2
   0  -5   4 24685.7 1096.69  13
   0   5   4 28870.3 1262.89   1
   0  -5  -4 25579.4 887.834   3
   0  -5   4 27553.1 1029.22  17
   0  -5  -4 25788.0 995.413  10
   0   5   5 2727.01 355.431   5
   0   5   5 2551.43 466.678   1
   0  -5   5 2792.16 403.125  13
   0  -5  -5 2130.39 369.547  11
   0  -5  -5 2338.47 385.335  17
   0  -5  -5 2512.54 271.295   3
   0  -5  -5 2102.29 304.410  10
   0  -5   5 2506.40 338.365  17
   0   5  -5 2855.26 431.351   2
   0   5  -5 2834.26 465.202   5
   0  -5  -6 6117.88 532.918  10
   0   5  -6 6131.46 653.636   5
   0  -5   6 6706.08 669.043  13
   0  -5  -6 6868.39 685.984  11
   0   5  -6 6112.33 651.169   2
   0  -5   6 5620.52 534.791  17
   0   5   6 7850.36 750.217   1
   0   5   6 6259.21 517.202   5
   0  -5  -7 20949.9 1232.08  11
   0   5  -7 20680.1 1222.01   2
   0  -5   7 21001.4 1226.25  13
   0  -5   7 21648.7 1105.36  17
   0  -5  -7 20670.0 996.543  10
   0   5  -7 22128.7 1218.65   5
   0   5   7 20995.9 1239.75   1
   0   5  -8 25306.6 1301.93   5
   0  -5   8 23345.7 1219.25  17
   0  -5  -8 23298.0 1126.65  10
   0  -5  -8 25023.7 1385.12  11
   0   5   8 23366.3 1391.14   1
   0  -5   8 23054.8 1350.36  13
   0   5  -8 23656.6 1378.97   2
   0   5  -9 41446.6 1703.20   5
   0  -5  -9 42524.3 1903.59  11
   0   5   9 39649.7 1858.47   1
   0  -5   9 41824.6 1917.11  13
   0  -5   9 40756.8 1689.83  17
   0   5  -9 38751.8 1857.54   2
   0  -5  -9 39782.7 1538.13  10
   0   5 -10 1358.51 403.927   5
   0   5  10 1556.28 489.782   1
   0   5 -10 1057.03 410.032   2
   0  -5 -10 1656.20 485.713  11
   0  -5  10 631.320 323.431  13
   0  -5 -10 1693.25 372.963  10
   0  -5 -11 25735.5 1626.89  11
   0  -5  11 24024.6 1632.90  13
   0   5  11 23894.6 1598.97   1
   0   5  11 26598.8 1705.78  15
   0   5 -11 27822.6 1725.06   2
   0   5 -12 5940.24 868.222   2
   0  -5  12 5662.73 846.954  13
   0   5  12 6936.13 952.290   1
   0   5  12 5713.41 831.044  15
   0  -5 -12 5675.88 824.982  11
   0  -5 -13 6460.72 888.796  11
   0  -5  13 7607.15 1015.97  13
   0  -5 -13 6555.83 856.314   2
   0   5 -13 6646.49 932.951   2
   0   5  13 6946.85 973.288   1
   0  -5  14-318.409 435.486  13
   0  -5 -14-59.1805 251.369  11
   0   5  14 1010.32 596.252   1
   0   5 -14-1120.56 454.734   2
   0  -5 -14 111.021 242.045   2
   0   5 -15 683.021 328.506   2
   0  -5 -15 1419.15 530.918  11
   0  -5 -15 641.365 337.823   2
   0  -5  15 831.822 344.978  13
   0   5  15 1403.52 650.194   1
   0   5  16 713.974 512.328   1
   0  -5  16 1033.72 463.113  14
   0   5 -16-276.569 282.895   2
   0  -5 -16 59.4884 349.745  11
   0  -5 -16 1188.95 415.800   2
   0  -5  16-103.571 258.124  13
   0  -6   0 96310.3 1786.99  13
   0  -6   0 96559.9 1957.39  17
   0  -6   0 102885. 2448.92   4
   0   6   0 94204.9 2397.31   5
   0   6   0 97813.8 2307.29  16
   0  -6   0 103520. 2474.49  11
   0   6   1 3782.29 510.754   5
   0  -6  -1 5698.86 541.195   3
   0  -6   1 4602.56 432.419  17
   0  -6  -1 5586.26 409.659  13
   0  -6  -1 5389.16 592.380   4
   0  -6  -1 5676.45 599.821  11
   0  -6  -1 5474.31 486.331  17
   0  -6   1 4920.20 435.068  13
   0   6  -1 5472.36 628.726   5
   0   6  -1 5315.71 541.444  16
   0   6   1 5169.07 546.587  16
   0  -6   1 4934.53 557.279   4
   0  -6   1 5421.75 603.654  11
   0  -6   2 38323.4 1278.22  13
   0   6   2 38744.9 1498.05   5
   0  -6  -2 39840.1 1353.07  17
   0  -6  -2 38032.0 1519.76  11
   0  -6   2 37887.8 1445.97   4
   0  -6   2 38726.6 1555.32  11
   0   6  -2 39325.9 1600.36   5
   0  -6   2 38965.2 1239.76  17
   0  -6  -2 36395.5 1307.91   3
   0  -6  -2 37295.7 1018.30  13
   0  -6  -3 1835.58 315.784  17
   0   6  -3 1745.61 348.208   2
   0   6   3 1929.10 384.380   1
   0  -6  -3 2216.96 249.747  13
   0   6   3 1481.87 337.915   5
   0  -6   3 2737.74 408.211   4
   0  -6   3 2729.68 457.426  11
   0   6  -3 2115.10 436.466   5
   0  -6  -3 2356.49 337.455   3
   0  -6  -3 2125.89 391.074  11
   0  -6   3 2730.37 354.435  17
   0  -6  -3 2202.86 322.914  10
   0  -6   3 2716.95 376.034  13
   0   6  -4 17883.0 1147.56   5
   0  -6   4 14563.9 810.957  17
   0  -6  -4 16107.8 940.107  17
   0  -6  -4 15075.9 776.573   3
   0  -6  -4 14699.5 992.865  11
   0   6   4 16122.2 943.889   5
   0   6   4 14633.9 1071.42   1
   0   6  -4 13860.1 943.935   2
   0  -6   4 15647.9 920.755  13
   0  -6  -4 15057.2 825.499  10
   0  -6   4 16524.2 962.300   4
   0  -6  -5 1614.38 388.214  11
   0   6  -5 2116.05 507.324   5
   0   6  -5 1329.98 341.650   2
   0  -6   5 1146.50 253.842  17
   0  -6  -5 1269.15 272.689  10
   0   6   5 1125.97 384.801   1
   0  -6   5 1252.48 309.577  13
   0   6   5 961.175 265.386   5
   0  -6  -5 1369.56 314.217  17
   0  -6  -6 22752.3 1307.99  11
   0   6   6 20186.6 992.108   5
   0   6   6 20685.4 1239.95   1
   0  -6  -6 20867.2 1022.74  10
   0   6  -6 20572.0 1252.97   2
   0  -6   6 20545.9 1190.87  13
   0  -6   6 20084.5 1040.56  17
   0   6  -6 21950.1 1287.23   5
   0   6  -7 1955.35 482.442   5
   0  -6  -7 1279.38 291.781  10
   0  -6  -7 1475.14 416.067  11
   0   6   7 718.857 338.758   1
   0  -6   7 1148.21 359.246  13
   0  -6   7 1457.14 311.110  17
   0   6  -7 1284.48 389.717   2
   0  -6   8 29623.3 1389.99  17
   0  -6   8 29464.6 1602.72  13
   0   6  -8 29169.0 1612.76   2
   0   6  -8 26751.5 1494.48   5
   0  -6  -8 29535.5 1611.16  11
   0   6   8 27407.0 1575.44   1
   0   6  -9-104.249 250.949   2
   0   6  -9 558.173 349.584   5
   0  -6  -9 66.0512 217.656  11
   0   6   9 33.3677 323.834   1
   0  -6   9-230.885 309.556  13
   0  -6   9 331.631 196.091  17
   0   6 -10 22796.5 1396.50   5
   0  -6  10 21986.8 1338.90  17
   0  -6  10 25781.0 1642.47  13
   0  -6 -10 23226.8 1531.03  11
   0   6 -10 26311.6 1665.90   2
   0   6  10 20021.8 1458.92   1
   0  -6  11 7042.63 797.198  17
   0   6 -11 8219.80 985.868   2
   0  -6 -11 7774.14 943.822  11
   0  -6  11 7117.03 909.670  13
   0   6  11 8356.29 991.227   1
   0   6 -12 6297.29 902.019   2
   0   6  12 6523.05 940.122   1
   0  -6  12 6503.14 810.871  17
   0  -6 -12 7855.54 983.089  11
   0  -6  12 8625.04 1056.94  13
   0   6  13 900.637 518.992   1
   0   6 -13-157.584 276.642   2
   0  -6  13-93.8499 245.831  17
   0  -6 -13 45.2740 235.415  11
   0  -6  13 128.906 304.256  13
   0   6 -14 5110.05 875.824   2
   0  -6 -14 4779.28 825.866  11
   0  -6  14 6114.72 965.018  13
   0  -6 -14 4480.22 768.915   2
   0   6  14 6208.19 991.246   1
   0   6 -15 3173.17 726.113   2
   0  -6 -15 4287.23 769.821   2
   0   6  15 4566.48 910.098   1
   0  -6  15 4341.97 876.297  13
   0  -6 -15 4314.44 809.223  11
   0   7   0 2.90953 188.830  16
   0   7   0-184.166 280.333   5
   0  -7   0-137.205 217.926   4
   0  -7   0 130.279 97.0542  13
   0  -7   0 45.8346 125.381  17
   0  -7   1 2578.27 445.908   4
   0  -7   1 2531.37 354.305  17
   0  -7  -1 3104.20 446.579   3
   0  -7  -1 2387.51 363.999  17
   0  -7   1 3231.27 382.743  13
   0  -7  -1 2455.97 470.135  11
   0   7  -1 2532.73 420.790  16
   0  -7   1 3823.65 538.554  11
   0   7   1 2191.34 420.494   5
   0   7  -1 1846.98 443.906   5
   0   7   1 2820.37 468.312  16
   0  -7  -2 56.9321 183.488   3
   0   7   2-73.4454 294.774   5
   0   7   2 18.3225 215.107  16
   0  -7   2 705.767 334.752  11
   0  -7   2-198.084 237.374   4
   0   7  -2-18.6369 322.739   5
   0  -7  -2-104.905 158.559  17
   0  -7  -2-55.3692 276.198  11
   0  -7   2 115.204 117.419  13
   0  -7   2-91.0568 142.572  17
   0  -7  -3 65751.5 1932.27  17
   0   7   3 65911.5 2106.21   5
   0  -7  -3 67194.2 1885.59   3
   0  -7  -3 75273.3 2380.43  11
   0  -7   3 67830.5 1810.76  17
   0   7  -3 65622.3 2125.71   2
   0  -7   3 67869.2 1926.11  13
   0  -7   3 72285.8 2365.62  11
   0   7  -3 67767.4 2354.03   5
   0   7   3 60576.1 2215.26   1
   0  -7   3 72403.2 2193.85   4
   0   7  -4 7619.89 862.354   5
   0   7   4 5748.76 702.726   1
   0  -7   4 6623.67 688.638   4
   0  -7   4 6648.45 650.493  13
   0  -7  -4 6502.13 635.153  17
   0   7   4 6530.10 681.845   5
   0  -7  -4 6615.54 600.025  10
   0  -7  -4 7143.76 761.617  11
   0   7  -4 6383.92 693.704   2
   0  -7   4 6805.65 595.112  17
   0  -7  -4 5854.99 551.269   3
   0   7   5 74088.4 2175.26   5
   0  -7  -5 76587.6 2033.70  10
   0  -7  -5 76190.5 2269.48  17
   0  -7   5 80128.7 2317.43  13
   0  -7   5 79278.1 2063.24  17
   0  -7  -5 79013.5 2571.22  11
   0   7   5 74623.5 2417.60   1
   0   7  -5 74926.1 2558.96   5
   0  -7   5 78942.0 2298.94   4
   0   7  -5 76639.5 2460.62   2
   0  -7  -6 2237.86 489.133  11
   0   7   6 1847.20 479.885   1
   0  -7   6 1333.43 308.816  17
   0   7   6 1976.24 410.663   5
   0   7  -6 2878.02 573.915   5
   0   7  -6 1352.41 372.191   2
   0  -7   6 2007.35 422.409  13
   0  -7   6 2544.91 433.415   4
   0   7  -7 18291.1 1296.15   2
   0  -7   7 19427.0 1114.89  17
   0  -7   7 18355.4 1240.33  13
   0  -7  -7 19914.2 1362.11  11
   0   7  -7 18271.3 1316.75   5
   0  -7   7 19055.1 1150.74   4
   0   7   7 18099.5 1292.11   1
   0   7  -8 9502.12 1002.90   2
   0   7  -8 7582.73 864.543   5
   0  -7   8 8758.52 788.649  17
   0  -7  -8 8973.80 950.318  11
   0  -7   8 8178.89 885.479  13
   0   7   8 8848.73 930.832   1
   0  -7   9 3399.18 602.286  13
   0  -7  -9 2532.33 585.884  11
   0   7  -9 3077.03 605.173   2
   0   7  -9 1738.84 460.016   5
   0   7   9 1466.73 469.930   1
   0  -7  10 911.988 418.115  13
   0  -7 -10 490.352 317.944  11
   0   7 -10 375.996 260.588   5
   0   7  10 1229.57 481.087   1
   0   7 -10 122.959 230.312   2
   0  -7 -11 3130.97 660.529  11
   0   7 -11 2168.55 526.184   5
   0   7 -11 3344.60 687.387   2
   0   7  11 3440.28 718.784   1
   0  -7  11 2834.02 639.838  13
   0   7  12 3664.72 781.951   1
   0  -7 -12 3512.09 714.404  11
   0  -7  12 4929.60 837.706  13
   0   7 -12 5429.05 858.814   2
   0   7  13 5863.47 968.837   1
   0  -7 -13 5909.04 922.811  11
   0  -7  13 6658.85 1006.16  13
   0   7 -13 4388.99 802.550   2
   0  -7  14 93.6362 239.911  13
   0   7  14 710.786 473.656   1
   0   7 -14-4.28473 233.673   2
   0  -7 -14 29.7088 262.976  11
   0  -8   0 10442.5 908.132   3
   0  -8   0 12435.5 831.711  17
   0  -8   0 12929.7 1060.49  11
   0   8   0 12868.3 1078.91   5
   0   8   0 13517.9 1021.83  16
   0   8   1 3413.97 590.727   5
   0  -8  -1 3055.78 473.753   3
   0  -8  -1 2762.22 425.765  17
   0   8  -1 3622.59 608.355   5
   0  -8  -1 2139.83 442.584  11
   0   8  -1 3610.49 539.584  16
   0  -8   1 3398.15 570.900  11
   0  -8   1 3413.44 545.538   3
   0  -8   1 3192.73 538.876   4
   0   8   1 3106.48 537.809  16
   0   8  -2 26581.8 1600.68   5
   0  -8  -2 28473.4 1316.93  17
   0  -8  -2 31990.4 1666.64  11
   0  -8  -2 30365.9 1428.46   3
   0   8   2 31811.3 1644.23   1
   0  -8   2 27284.1 1494.76   4
   0   8   2 27864.3 1523.41  16
   0  -8   2 27867.8 1580.76  11
   0   8   2 25472.1 1480.70   5
   0  -8   3 2431.04 538.627  11
   0  -8  -3 2613.54 421.661  17
   0  -8   3 2269.88 396.699  13
   0   8   3 2075.45 438.774   5
   0  -8   3 2478.89 490.562   4
   0   8   3 3189.36 568.984  16
   0  -8  -3 1947.76 380.814   3
   0   8  -3 1124.59 389.190   5
   0  -8  -3 2106.91 474.156  11
   0   8   3 1796.23 478.321   1
   0   8   4 22856.7 1416.84   1
   0  -8   4 21005.4 1304.00   4
   0   8   4 23204.3 1355.41   5
   0  -8  -4 23984.0 1495.33  11
   0   8  -4 23215.3 1515.63   5
   0   8   4 23642.2 1471.66  16
   0  -8   4 24729.6 1293.40  13
   0  -8  -4 23102.0 1286.68  17
   0   8  -5 3858.86 657.731   5
   0  -8  -5 4437.11 583.893  17
   0   8  -5 4904.67 662.948   2
   0  -8  -5 4579.31 689.606  11
   0   8   5 5351.74 736.529   1
   0  -8   5 4308.47 577.766  13
   0  -8   5 4544.63 627.770   4
   0   8   5 4145.07 588.373   5
   0  -8   6 5119.53 651.394  13
   0  -8   6 5763.82 686.649   4
   0   8  -6 4037.71 645.921   2
   0  -8  -6 5296.15 752.830  11
   0   8  -6 4470.76 712.247   5
   0   8   6 4605.49 725.365   1
   0   8   7 217.389 311.228   1
   0   8  -7 714.406 337.008   2
   0  -8   7 770.881 296.119  13
   0  -8   7 871.358 292.433   4
   0   8  -7 728.576 368.240   5
   0  -8  -7 468.386 284.636  11
   0   8  -8 5826.51 834.914   5
   0   8  -8 4770.14 740.364   2
   0   8   8 5638.66 806.811   1
   0  -8  -8 5799.71 833.357  11
   0  -8   8 5790.54 775.448  13
   0  -8  -9-101.014 255.288  11
   0   8  -9 240.558 277.598   5
   0  -8   9 733.191 337.659  13
   0   8  -9-0.65347 267.423   2
   0   8   9 747.973 519.897   1
   0   8  10 14900.9 1373.37   1
   0   8 -10 14215.4 1303.71   5
   0   8 -10 15488.5 1412.47   2
   0  -8  10 15393.7 1364.93  13
   0  -8 -10 16565.4 1437.89  11
   0   8  11-204.218 419.161   1
   0   8 -11 497.802 383.331   5
   0   8 -11 618.456 303.042   2
   0  -8 -11 416.558 331.580  11
   0  -8  11 140.893 275.265  13
   0  -8  12 13847.0 1406.31  13
   0   8  12 12253.4 1337.34   1
   0  -8 -12 13472.4 1388.03  11
   0   8 -12 12633.9 1360.07   2
   0  -8 -13-28.4947 265.913  11
   0  -8  13-164.064 361.630  13
   0   8 -13 276.476 319.627   2
   0  -8  14 3467.37 730.960   3
   0  -9   0 52.9243 253.583  11
   0   9   0 81.5558 331.755   5
   0   9   0 251.084 218.537  16
   0  -9   0 204.600 254.303   3
   0  -9   1 7518.39 832.054   3
   0   9   1 8161.34 869.258  16
   0  -9   1 7567.48 915.430  11
   0   9  -1 6723.68 868.471   5
   0  -9  -1 7123.19 775.702   3
   0   9   1 6459.18 861.631   5
   0  -9  -1 6721.97 842.405  11
   0  -9  -2 12131.6 978.831   3
   0  -9   2 13867.9 1135.33   4
   0   9   2 11403.6 1090.86   1
   0  -9  -2 14940.2 1256.46  11
   0   9   2 14153.7 1195.20   5
   0  -9   2 14238.5 1178.60   3
   0  -9   2 11992.6 1134.66  11
   0   9  -2 12169.3 1179.35   5
   0   9   2 13707.3 1156.17  16
   0   9   3 19793.3 1391.91   5
   0  -9   3 19205.1 1384.53   3
   0  -9  -3 22597.7 1536.98  11
   0   9   3 17398.4 1326.63  16
   0   9   3 15124.2 1257.58   1
   0  -9   3 17589.7 1285.78   4
   0   9  -3 19329.8 1484.50   5
   0   9   4 885.624 372.073  16
   0  -9   4 453.310 230.378   4
   0   9   4 790.649 341.480   5
   0   9  -4 745.107 370.433   5
   0  -9  -4 1230.65 421.430  11
   0   9   4 598.649 335.562   1
   0  -9  -5 15496.2 1313.64  11
   0   9   5 18597.4 1444.28  16
   0   9  -5 17335.2 1433.47   5
   0  -9   5 14474.5 1166.19   4
   0   9   5 17800.7 1273.11   5
   0   9   5 15980.7 1314.23   1
   0   9  -6 2219.76 504.716   2
   0   9   6 4093.12 724.016   1
   0   9  -6 1922.11 570.005   5
   0  -9   6 2981.82 552.200   4
   0  -9  -6 2893.35 608.040  11
   0   9   7 5450.55 805.473   1
   0   9  -7 6692.95 872.517   2
   0   9  -7 6600.83 938.182   5
   0  -9   7 7687.89 886.239  13
   0  -9  -7 7534.91 959.199  11
   0   9   8-36.1236 313.439   1
   0  -9   8 1227.52 390.465  13
   0   9  -8 1418.27 464.237   2
   0  -9  -8 1858.33 557.244  11
   0   9  -8 995.724 418.250   5
   0   9  -9 10656.9 1204.64   5
   0   9  -9 11591.3 1230.40   2
   0  -9   9 11732.1 1188.01  13
   0  -9  -9 12245.3 1285.53  11
   0   9   9 11104.1 1190.83   1
   0  -9  10 37.5399 208.891  13
   0   9 -10-362.351 392.223   5
   0   9  10 160.665 431.936   1
   0  -9 -10-61.9071 311.936  11
   0   9 -10-450.208 355.089   2
   0  -9  11 5776.23 906.509  13
   0   9  11 4624.52 838.431   1
   0  -9 -11 6403.29 981.803  11
   0   9 -11 4314.19 803.696   5
   0   9 -11 5883.97 957.303   2
   0  -9  12 388.625 384.759   3
   0   9  12-21.1608 367.331   1
   0  -9 -12-300.503 356.312  11
   0   9 -12-593.035 429.437   2
   0  -9  12 153.910 251.656  13
   0  10   0 7241.86 969.776   5
   0 -10   0 8032.15 905.565   3
   0 -10   0 7832.92 974.884  11
   0 -10   1 63.3479 228.270   3
   0  10  -1 255.434 359.721   5
   0 -10  -1 355.882 274.447   3
   0 -10  -1-26.2252 307.170  11
   0  10   1-21.3454 318.246   1
   0  10   1-403.679 292.482  16
   0  10   1 230.755 356.898   5
   0 -10   1 78.8889 261.027  11
   0 -10   2 14028.7 1313.28  11
   0 -10   2 11602.3 1125.39   3
   0 -10  -2 12973.9 1261.74  11
   0  10   2 13340.1 1250.94   5
   0  10   2 11080.9 1126.70   1
   0  10  -2 12554.2 1292.80   5
   0  10   2 12920.6 1187.82  16
   0 -10  -3 3062.97 625.042  11
   0  10   3 2783.24 599.800   5
   0  10   3 985.438 421.304   1
   0  10  -3 1945.67 602.350   5
   0 -10   3 3016.97 592.587   4
   0 -10   3 2017.89 486.692   3
   0  10   3 3031.22 633.116  16
   0  10   4 8700.08 1032.44  16
   0 -10   4 8319.42 992.767   3
   0  10   4 7840.66 956.086   5
   0  10   4 6744.02 939.519   1
   0 -10   4 9491.78 1016.82   4
   0 -10  -4 9002.12 1091.41  11
   0  10  -4 8089.74 1047.93   5
   0  10   5 1926.28 559.338   1
   0 -10   5 2910.24 668.323   3
   0  10   5 2073.42 536.362  16
   0  10  -5 1274.35 457.974   5
   0 -10   5 2450.62 550.106   4
   0 -10  -5 2065.88 577.339  11
   0  10   6 4056.35 756.242   1
   0  10  -6 2836.48 642.761   5
   0 -10   6 3377.78 665.610   3
   0 -10   6 3105.65 584.085   4
   0  10   6 4435.90 783.666  16
   0 -10  -6 3590.17 712.517  11
   0 -10  -7 666.320 390.379  11
   0  10   7 952.899 476.377  16
   0  10   7-652.129 525.265   1
   0 -10   7-120.805 307.793   3
   0  10  -7-251.717 462.995   5
   0 -10   8 8181.96 1076.64   3
   0  10   8 6637.47 981.227   1
   0  10  -8 6572.42 1009.82   5
   0  10  -8 7580.59 1024.95   2
   0 -10  -8 9154.05 1140.49  11
   0  10   8 8370.64 1113.33  16
   0 -10   9 1742.25 538.700   3
   0  10  -9 1786.96 555.128   2
   0  10   9 1054.96 452.207   1
   0 -10  -9 1677.49 488.818  11
   0  10  -9 1163.43 480.028   5
   0 -10  10 5440.97 924.197   3
   0  10 -10 6555.92 996.737   2
   0 -10 -10 6769.04 1053.54  11
   0  10 -10 4515.28 860.871   5
   0  10  10 4232.64 793.658   1
   0  10 -11-383.912 408.288   5
   0 -11   0-511.382 403.197  11
   0  11   0 219.390 427.483   5
   0 -11   0 384.160 248.258   3
   0 -11  -1 9437.57 1129.92  11
   0  11   1 10579.4 1218.00   5
   0  11  -1 7980.27 1086.74   5
   0  11   1 10018.2 1104.38  16
   0 -11   1 9896.47 1083.28   3
   0 -11   1 12088.1 1299.24  11
   0  11   1 6032.00 877.598   1
   0  11   2 679.573 372.947   1
   0  11   2 1045.16 395.704  16
   0  11  -2-76.0291 417.002   5
   0 -11  -2 452.441 335.234  11
   0  11   2 886.822 457.229   5
   0 -11   2 1125.49 490.400  11
   0 -11   2 739.221 351.811   3
   0 -11  -3 9054.96 1135.73  11
   0  11  -3 8578.33 1138.24   5
   0 -11   3 7531.57 1000.03   3
   0  11   3 9006.49 1072.79  16
   0  11   3 8022.48 1044.91   5
   0  11   3 4753.51 812.326   1
   0  11   4 187.416 375.674   1
   0  11   4 225.989 307.658  16
   0  11   4 28.7741 289.182   5
   0  11  -4 223.637 338.943   5
   0 -11  -4 17.0726 269.818  11
   0 -11   4 284.090 364.180   3
   0 -11  -5 2033.26 589.832  11
   0  11  -5 1025.57 507.926   5
   0 -11   5 809.017 422.589   3
   0  11   5 1741.03 524.758  16
   0  11   5 1647.61 564.955   1
   0  11   6 323.629 351.685   1
   0  11   6 705.320 341.584  16
   0  11  -6 788.282 519.179   5
   0 -11  -6 255.036 274.994  11
   0 -11   6 981.790 464.058   3
   0 -11   7 688.297 377.996   3
   0  11  -7 2117.26 665.961   5
   0  11   7 687.063 416.650   1
   0  11   7 1987.84 609.336  16
   0 -11  -7 1269.05 443.488  11
   0 -11  -8 145.283 288.887  11
   0  11   8-69.8722 409.489   1
   0 -11   8 149.084 267.679   3
   0  11  -8 210.326 306.620   5
   0  11   8 69.4182 292.141  16
   0 -12   0 23.0073 315.645  11
   0  12   0 115.317 316.750   5
   0  12   1-542.197 445.124   1
   0 -12   1 518.132 355.938   3
   0  12  -1 93.9021 412.589   5
   0 -12   1-350.448 315.133  11
   0  12   1-363.022 376.951   5
   0 -12  -1 18.7279 279.838  11
   0 -12  -2 4478.83 881.893  11
   0  12   2 3089.47 726.238   5
   0  12  -2 5044.36 964.821   5
   0 -12   2 3279.42 714.048   3
   0  12   2 1872.28 558.809   1
   0 -12   3 273.222 275.203   3
   0  12   3-255.040 325.559  16
   0 -12  -3-282.883 406.700  11
   0  12   3 394.384 407.059   5
   0  12  -3-194.641 378.923   5
   0  12   3-188.439 299.709   1
   0 -12  -4 12571.9 1419.52  11
   0  12  -4 11442.6 1400.37   5
   0 -12   4 8599.30 1137.19   3
   0  12   4 6984.03 1005.98   1
   0  12   4 9729.83 1204.35  16
   0  12   5 758.010 486.571   1
   0  12   5-67.5321 315.366  16
  -1   0  18 929.383 499.027   1
  -1   0  18 324.590 324.251  18
   1   0 -18 167.420 250.513   2
  -1   0  18 375.919 305.933  15
  -1   0  17 4313.03 831.837   1
   1   0 -17 4397.73 804.300   2
  -1   0  17 4717.74 839.054  15
  -1   0  16 607.706 439.855   1
  -1   0  16 273.375 257.848  15
   1   0 -16 182.124 322.172   2
  -1   0  15 12942.0 1249.85   1
   1   0 -15 11516.8 1151.17   2
   1   0 -14-24.2273 245.553   2
  -1   0  14-191.617 366.870   1
  -1   0  14-4.82199 222.137  13
  -1   0  13 14.7335 154.009   6
  -1   0  13-436.934 416.552   1
   1   0 -13 61.2174 205.646   2
  -1   0  13-121.531 271.428  13
  -1   0  12-324.952 324.618   1
   1   0 -12-294.282 291.366   2
  -1   0  12 57.9869 171.114   6
   1   0 -12-158.560 215.330   9
  -1   0  12 144.005 155.936  14
  -1   0  12-10.6926 227.642  13
   1   0 -11 1233.66 359.564   2
  -1   0  11 979.755 312.328   1
  -1   0  11 1721.58 354.054   6
  -1   0  11 1143.02 349.240  13
   1   0 -11 1238.05 268.066   9
  -1   0  11 1819.35 333.823  14
  -1   0  10 92.4427 179.522  14
  -1   0  10-56.4535 236.759   1
  -1   0  10-246.138 213.311   6
  -1   0  10 159.308 222.906  13
   1   0 -10 262.790 228.337   2
   1   0 -10-135.368 177.188   9
  -1   0   9 221023. 3075.82  14
  -1   0   9 225205. 3659.77  13
   1   0  -9 233789. 3152.44   9
   1   0  -9 218420. 2420.25  12
   1   0  -9 230662. 3668.04   2
  -1   0   9 220353. 3579.93   1
   1   0  -8-50.7380 148.555   2
   1   0  -8 26.0772 74.5739  12
  -1   0   8 156.044 169.687  13
  -1   0   8-173.963 250.196   1
   1   0  -8-13.6114 140.351   9
  -1   0   7 307360. 3655.39  13
   1   0  -7 308694. 3228.85   9
   1   0  -7 306845. 3601.16   2
   1   0  -7 311257. 2420.93  12
  -1   0   6 86.9479 160.138   1
   1   0  -6 73.8820 124.223   9
   1   0  -6-114.274 98.9570   2
   1   0  -6 122.645 78.0783  12
  -1   0   6 187.436 153.941  13
   1   0  -5 44416.9 718.362  12
  -1   0   5 44545.0 1134.27  13
   1   0  -5 44558.4 1131.06   2
   1   0  -5 46753.6 1061.18   9
   1   0  -4 194.211 118.257   2
  -1   0   4 339.895 169.802   1
  -1   0   4 208.590 119.632  13
   1   0  -4 282.891 145.864   9
  -1   0   3 5441.18 304.784  13
   1   0  -3 5557.47 282.721   7
  -1   0   3 5068.72 286.848   1
   1   0  -3 5536.36 291.253   2
   1   0  -3 5117.74 308.801   9
   1   0  -2 399.700 92.1313   9
  -1   0   2 250.185 60.1715   1
   1   0  -2 234.693 68.9626   7
   1   0  -2 684.112 86.8386   2
  -1   0   2 276.791 70.5105  13
  -1   0  -1 238214. 1658.47  12
   1   0   1 233931. 1670.06  14
   1   0   1 229503. 1626.86   1
  -1   0  -1 230841. 1539.00  17
   1   0   2 71.3238 98.0300   1
  -1   0  -2-16.8580 77.3679  12
   1   0   2 81.5129 73.3349  14
   1   0   3 177657. 2132.25  13
   1   0   3 187339. 2085.23   1
   1   0   3 177912. 1988.20  14
  -1   0  -3 181345. 1893.93  12
   1   0   4 147.207 157.716   1
   1   0   4-64.1975 121.146  13
  -1   0  -4 36.5238 76.4146  12
   1   0   4-71.6764 93.9282  14
   1   0   5 248359. 3103.26  13
   1   0   5 248615. 2849.02  14
  -1   0  -5 254330. 3094.86   2
  -1   0  -5 251012. 2646.75  12
   1   0   5 248155. 3010.31   1
  -1   0  -6-19.2957 160.692   2
  -1   0  -6-8.76152 109.310  12
   1   0   6 160.643 169.809  13
   1   0   6-117.837 220.885   1
   1   0   6 295.515 146.026  14
  -1   0  -6 421.488 140.825   9
   1   0   7 935.505 252.332   1
  -1   0  -7 793.363 234.478   2
   1   0   7 1162.21 242.261  14
  -1   0  -7 1193.72 204.985   9
  -1   0  -7 981.601 152.985   5
  -1   0  -7 1101.39 234.079  12
   1   0   7 769.331 246.816  13
  -1   0  -8-95.5588 119.339   9
   1   0   8 42.7219 190.970  13
  -1   0  -8 111.677 220.370   2
   1   0   8 0.55853 137.076  14
  -1   0  -8-3.96420 143.165  12
   1   0   8-148.259 329.594   1
  -1   0  -8-57.5813 80.9999   5
   1   0   9 1988.40 383.746   1
  -1   0  -9 1561.71 398.269   2
  -1   0  -9 1407.12 290.941  12
   1   0   9 1950.90 366.762  14
  -1   0  -9 1421.71 238.163   9
   1   0  10 48.9638 181.885  14
  -1   0 -10 2.57930 157.957  12
  -1   0 -10 122.451 230.159   2
   1   0  10 82.4595 114.829   6
   1   0  10-478.040 398.851   1
   1   0  11 69041.9 2178.96  14
  -1   0 -11 68339.6 2447.82   2
   1   0  11 70424.6 2493.71   1
  -1   0 -11 68678.1 1952.98  12
   1   0  11 72598.0 2370.02  15
   1   0  12-18.4992 170.351  14
  -1   0 -12 291.596 300.551   2
   1   0  12 371.521 298.758  15
   1   0  13 21313.1 1332.09  14
  -1   0 -13 20199.6 1502.75   2
   1   0  13 22462.6 1569.03   1
   1   0  13 23661.2 1496.60  15
   1   0  14 801.236 464.363   1
   1   0  14-186.785 189.885  15
  -1   0 -14 367.747 347.733   2
  -1   0 -15 2635.83 619.482   2
   1   0  15 2964.83 710.233   1
   1   0  15 3430.42 655.122  15
   1   0  16-319.444 283.771   1
  -1   0 -16-222.896 266.834   2
  -1   0 -17 5933.73 982.193   2
   1   0  17 6098.52 982.754   1
   1  -1 -18 1006.21 452.791  10
   1  -1 -18 640.247 344.560   2
  -1  -1  18 1309.89 547.429   1
  -1  -1  18 270.212 237.116  15
  -1  -1  18 1548.51 492.274  18
  -1   1  18 1345.05 528.133  15
   1   1 -18 1271.51 503.406   2
  -1   1  18 1366.50 538.397   1
  -1  -1  17 65.4452 228.636  18
  -1   1  17 130.319 249.808  15
   1   1 -17-125.103 209.492   2
  -1  -1  17 160.841 297.011  15
   1  -1 -17-131.298 261.366   2
  -1   1  17 949.599 512.516   1
  -1  -1  17 528.393 293.486   1
   1   1 -16 16468.6 1461.48   2
  -1  -1  16 14161.4 1371.31   1
  -1   1  16 14502.8 1388.72  15
  -1  -1  16 13456.5 1284.55  18
   1  -1 -16 12751.3 1292.27   2
  -1   1  16 11877.3 1402.19   1
  -1  -1  15 526.274 384.363  13
  -1  -1  15 264.985 278.243   1
   1  -1 -15 551.648 379.503   2
  -1  -1  15 164.929 289.933  18
  -1   1  15 647.252 357.307  15
  -1   1  15 298.428 351.711   1
   1   1 -15 253.319 292.905   2
   1   1 -14 27625.6 1728.57   2
  -1   1  14 29215.9 1546.40   6
  -1  -1  14 29560.8 1729.13   1
  -1  -1  14 28433.2 1794.58  13
   1  -1 -14 28806.0 1738.28   2
  -1   1  14 32500.3 1875.61  15
  -1   1  14 30018.5 1795.92   1
  -1  -1  13 150.710 213.409   6
   1  -1 -13 168.777 252.183   2
  -1  -1  13 117.012 289.445  13
   1   1 -13 64.8763 198.235   9
  -1  -1  13-200.005 242.597   1
  -1   1  13 473.182 316.989   1
   1   1 -13-127.789 271.277   2
  -1   1  13-81.8245 275.434  15
  -1   1  13 106.504 185.120   6
  -1  -1  13 20.2646 154.787  14
   1   1 -12 7439.99 692.137   9
  -1   1  12 6425.22 752.731  13
  -1  -1  12 6558.80 794.908  13
   1  -1 -12 7558.12 806.332   2
   1   1 -12 5753.38 730.300   2
  -1   1  12 6216.87 788.198   1
  -1  -1  12 6743.29 775.960   1
  -1  -1  12 6562.36 685.971  14
  -1  -1  12 7046.06 688.458   6
  -1   1  11-23.8694 196.818  13
  -1  -1  11 363.929 336.040  13
   1   1 -11-63.5095 201.957   2
  -1   1  11 864.346 411.301   1
  -1  -1  11 750.143 395.806   1
   1  -1 -11-37.1207 151.460   9
  -1  -1  11-169.883 171.916   6
   1   1 -11 14.3482 166.770   9
   1  -1 -11 322.295 243.622   2
  -1   1  10 30502.4 1391.16  13
  -1   1  10 29923.1 1466.93   1
   1  -1 -10 32745.0 1448.99   2
   1  -1 -10 30623.2 1180.12   9
   1   1 -10 31587.4 1470.17   2
  -1  -1  10 27401.2 1408.70   1
  -1  -1  10 31719.8 1286.11   6
  -1   1  10 30333.9 1118.54  14
   1   1 -10 32000.0 1277.45   9
  -1  -1  10 31981.6 1517.68  13
  -1  -1   9-49.9330 146.273   6
  -1   1   9-117.285 168.931  13
   1  -1  -9-170.568 203.597   2
   1  -1  -9 304.030 121.762  12
  -1   1   9 390.464 309.151   1
   1  -1  -9-117.134 158.187   9
   1   1  -9 128.089 202.758   2
  -1   1   9-158.991 138.630  14
  -1  -1   9-293.524 280.377   1
   1   1  -9 355.415 225.405   9
   1   1  -9-34.4158 91.5788  12
  -1  -1   9 150.061 241.518  13
   1   1  -8 151480. 1671.37   5
   1  -1  -8 153389. 2349.09   9
  -1  -1   8 151025. 2489.63   6
   1  -1  -8 148736. 1876.43  12
   1  -1  -8 154014. 2715.25   2
  -1   1   8 151265. 2813.55   1
  -1  -1   8 150575. 2682.00   1
   1   1  -8 144809. 1939.22  12
  -1   1   8 149340. 2680.99  13
  -1   1   8 151893. 2139.15  14
   1   1  -8 156569. 2884.43   2
  -1  -1   8 148929. 2877.32  13
   1  -1  -7 119.188 118.860   9
   1   1  -7 44.7153 143.201   2
  -1  -1   7-19.2834 221.236   1
   1  -1  -7 161.387 129.299   2
  -1   1   7-16.0701 138.315  13
   1   1  -7 136.467 83.3464   5
  -1   1   7 99.3546 83.4514  14
  -1  -1   7 117.458 119.162   6
   1   1  -7-14.0831 79.8332  12
   1  -1  -7 299.854 104.551  12
  -1   1   7-76.0753 215.080   1
  -1  -1   7 182.061 134.960  13
  -1  -1   6 7816.96 503.350   6
  -1  -1   6 7951.92 567.562  13
   1   1  -6 8387.83 570.455   2
  -1   1   6 8320.52 409.150  14
  -1  -1   6 6839.80 491.442   1
   1  -1  -6 7218.98 354.901  12
   1  -1  -6 8099.30 480.275   9
  -1   1   6 7335.81 563.745   1
   1   1  -6 7243.94 353.414   5
   1  -1  -6 6980.32 501.075   2
  -1   1   6 7713.92 511.694  13
   1   1  -5 91.8435 72.7619   5
  -1   1   5 49.2499 154.244   1
  -1  -1   5 19.1940 108.510   6
   1  -1  -5 148.301 81.9401  12
  -1   1   5 84.1700 96.6332  13
   1  -1  -5 162.263 109.389   9
   1   1  -5-39.5252 110.258   2
  -1   1   5 26.8989 52.0397  14
  -1  -1   5-21.2430 112.811   1
  -1  -1   5 62.6462 121.693  13
  -1   1   4 7196.40 432.819   1
   1   1  -4 6959.53 321.540   5
  -1   1   4 7272.92 379.641  13
  -1  -1   4 7000.52 382.163   1
  -1  -1   4 7780.65 451.870  13
  -1   1   4 7221.32 268.544  14
  -1  -1   4 7434.61 408.901   6
   1  -1  -4 7036.94 279.075  12
   1  -1  -4 7984.74 405.433   9
   1   1  -4 7803.53 307.853   7
   1   1  -4 7819.79 444.770   2
  -1  -1   3 60228.3 1112.62  13
  -1   1   3 62366.7 881.066  13
  -1  -1   3 62914.1 977.041  18
   1   1  -3 63763.1 1124.47   2
  -1  -1   3 64072.7 1063.74   6
   1   1  -3 62637.8 788.653   7
  -1   1   3 60945.3 1088.95   1
   1  -1  -3 57530.3 1080.02  10
   1   1  -3 64636.4 922.266   5
   1  -1  -2 559091. 2854.11  10
   1   1  -2 550338. 2845.42   2
  -1  -1   2 550558. 2921.49  13
  -1   1   2 565675. 2895.09   1
   1  -1  -2 550591. 2480.89   3
   1  -1  -2 556397. 2608.01  11
   1   1  -2 562792. 2660.47   5
   1   1  -2 554557. 2253.76   7
  -1  -1   2 573751. 2860.03   6
  -1  -1   1 417.590 81.0050  13
   1   1  -1 704.571 102.014   5
  -1  -1   1 622.242 99.8117  17
   1  -1  -1 670.807 86.9002  11
  -1  -1   1 962.664 115.169   6
  -1  -1   1 674.443 84.4613  11
   1   1  -1 742.557 99.6545   2
   1  -1  -1 648.673 94.7301   3
   1  -1  -1 543.072 101.474  10
   1  -1   0 438229. 2344.32   3
  -1  -1   0 427381. 2037.12  11
   1   1   0 411854. 2207.53  16
   1   1   0 425936. 2223.42   5
  -1  -1   0 430101. 2247.71  12
   1  -1   0 420168. 2256.24  10
   1  -1   0 429092. 2040.75  11
  -1  -1   0 418069. 2249.84  17
   1  -1   1 63349.9 936.475  13
  -1  -1  -1 64697.3 895.708   4
   1   1   1 63870.5 925.804  14
   1   1   1 63444.1 864.650   5
  -1  -1  -1 66180.1 1002.51  17
   1   1   1 68764.2 902.456   1
  -1   1  -1 65937.0 910.499   2
   1  -1   1 67940.8 982.875   3
  -1  -1  -1 63204.5 961.450  12
   1  -1   1 66030.2 975.477  18
   1  -1   2 16779.2 570.635   1
   1   1   2 18190.8 573.597   1
   1   1   2 17324.9 538.654  14
   1  -1   2 16899.2 587.932  13
   1   1   2 17775.4 572.879  15
  -1  -1  -2 17621.4 571.393  12
  -1  -1  -2 18155.8 610.434  17
  -1   1  -2 17357.9 573.325   2
   1  -1   3 194271. 2183.69   1
   1  -1   3 200186. 1385.72   6
  -1  -1  -3 188300. 2231.81  17
   1   1   3 196939. 2200.45   1
  -1   1  -3 191034. 2184.65   2
   1   1   3 190075. 2109.41  15
   1   1   3 195413. 1987.29  14
  -1  -1  -3 193312. 2045.84  12
   1  -1   3 185598. 2240.30  13
   1   1   4 74842.0 1520.70   1
   1  -1   4 62679.0 1468.88   1
   1  -1   4 71212.6 1537.65  13
  -1  -1  -4 69444.4 1337.54  12
   1   1   4 70851.6 1453.52  15
  -1   1  -4 69951.4 1496.49   2
   1   1   4 70251.6 1326.94  14
   1  -1   4 71813.7 995.031   6
  -1   1  -4 73148.0 1273.36   5
   1  -1   5 1150.01 302.473   1
  -1  -1  -5 1202.38 132.035   9
  -1   1  -5 1123.48 235.455   2
   1  -1   5 1086.90 228.231  13
  -1   1  -5 1552.27 204.178   5
   1   1   5 1713.23 327.209   1
   1   1   5 891.252 196.079  15
   1  -1   5 1353.60 162.707   6
  -1  -1  -5 1349.16 228.397  12
  -1   1  -5 923.071 178.845  12
   1   1   5 1408.02 219.968  14
   1  -1   6 148544. 1851.16   6
   1   1   6 147471. 2495.75  15
   1  -1   6 144143. 2585.63   1
  -1   1  -6 150789. 2638.59   2
   1   1   6 150008. 2609.19   1
  -1  -1  -6 143944. 2222.93  12
   1  -1   6 151603. 2699.26  13
  -1  -1  -6 150217. 1634.77   9
   1   1   6 145949. 2268.38  14
  -1   1  -6 141585. 2225.16  12
  -1   1  -6 152004. 2019.59   5
  -1   1  -7 84428.0 2143.44   2
  -1   1  -7 85344.6 1823.06  12
   1  -1   7 89650.1 2127.92   1
   1  -1   7 87960.1 1557.51   6
  -1   1  -7 84536.2 1577.01   5
   1   1   7 84692.6 1867.31  14
  -1  -1  -7 85273.5 1361.97   9
   1   1   7 84448.1 2134.42   1
   1   1   7 82417.3 2049.25  15
  -1  -1  -7 84117.3 1785.75  12
   1  -1   7 87221.2 2224.71  13
   1   1   8 66951.7 1956.14  15
  -1   1  -8 76512.9 2180.74   2
  -1   1  -8 67522.0 1698.83  12
  -1  -1  -8 68811.6 1323.22   9
  -1  -1  -8 70430.8 1727.73  12
   1  -1   8 70244.3 1971.02  14
   1   1   8 71500.0 2084.85   1
   1  -1   8 70406.9 1503.90   6
  -1  -1  -8 69514.1 2070.71   2
   1   1   8 70587.0 1812.78  14
   1  -1   8 69075.8 2126.84  13
   1  -1   8 61582.8 2058.43   1
  -1   1  -8 69909.3 1447.79   5
   1  -1   9 620.301 251.461  14
  -1   1  -9 424.167 211.106  12
   1   1   9 331.960 183.794  14
   1  -1   9 928.358 397.434   1
   1  -1   9 782.321 305.570  13
   1   1   9 558.417 265.336  15
  -1  -1  -9 76.5881 174.070   2
  -1  -1  -9 243.233 152.973  12
   1   1   9 709.872 376.875   1
  -1   1  -9 286.742 215.862   2
   1  -1   9 403.936 168.079   6
   1  -1  10 50841.1 2061.63  13
   1   1  10 50652.9 1706.51  14
   1  -1  10 51053.0 1990.16   1
  -1   1 -10 47368.2 1574.62  12
  -1   1 -10 50770.0 1496.90   9
  -1   1 -10 48917.2 1985.80   2
   1   1  10 48459.6 1883.46  15
   1   1  10 47414.5 1950.89   1
  -1  -1 -10 47610.0 1946.16   2
   1  -1  10 49270.8 1834.64  14
  -1  -1 -10 47494.2 1574.21  12
   1  -1  11 13255.9 1095.89   1
  -1   1 -11 12551.3 1084.49   2
  -1   1 -11 12981.0 868.198  12
  -1  -1 -11 12454.5 837.827  12
   1   1  11 12644.0 1041.82  15
  -1  -1 -11 11103.0 1008.36   2
   1  -1  11 12249.5 1096.72  13
   1   1  11 13902.7 959.456  14
   1   1  11 11953.9 1066.32   1
   1  -1  11 13133.1 1011.13  14
   1   1  12 24685.4 1501.00  15
   1   1  12 24706.3 1335.07  14
   1   1  12 25317.4 1561.59   1
   1  -1  12 24251.4 1418.19  14
  -1  -1 -12 24238.4 1532.69   2
   1  -1  12 24170.9 1561.12   1
  -1   1 -12 23078.4 1538.64   2
  -1   1 -13 1773.48 475.715   2
  -1  -1 -13 2545.04 570.330   2
   1  -1  13 2207.19 565.460   1
   1   1  13 2669.59 566.550  15
   1  -1  13 2052.08 450.732  14
   1   1  13 842.326 437.342   1
   1  -1  14 407.694 274.322  14
   1  -1  14 33.0586 217.088  15
  -1   1 -14-106.223 277.533   2
   1  -1  14 107.894 284.838   1
  -1  -1 -14 105.517 266.383   2
   1   1  14 146.172 279.551  15
   1  -1  15 1905.43 594.100   1
   1   1  15 799.630 334.358  15
   1   1  15 1402.87 561.341   1
   1  -1  15 540.040 269.465  15
  -1   1 -15 1503.86 505.728   2
  -1  -1 -15 649.082 398.742   2
   1  -1  15 574.145 356.302  18
   1  -1  16 618.268 359.948  18
  -1  -1 -16 1372.99 470.275   2
   1   1  16 1869.21 502.643  15
  -1   1 -16 1896.21 583.872   2
   1  -1  16 891.368 484.704   1
   1   1  16 2398.23 646.879   1
   1   1  17 1850.95 559.290  15
  -1  -1 -17 1281.96 503.383   2
   1  -1  17 1076.49 470.561  18
   1   1  17 1170.90 527.858   1
   1  -1  17 1217.88 510.418   1
  -1   1 -17 1313.05 509.540   2
  -1   2  18 211.169 306.133  15
  -1  -2  18-53.1484 390.381   1
   1  -2 -18 254.778 224.430   2
  -1  -2  18 184.536 285.001  18
  -1   2  18 141.822 310.942   1
   1   2 -18-261.038 323.150   2
   1  -2 -18 153.948 307.099  10
  -1  -2  17 300.138 260.375  18
  -1  -2  17-269.014 345.832   1
  -1   2  17 138.623 295.295   1
   1  -2 -17 131.215 251.824   2
   1   2 -17 590.967 377.938   2
  -1   2  17 313.161 345.460  15
   1  -2 -17-73.9818 301.202  10
   1  -2 -16 2726.07 618.955   2
  -1   2  16 4434.44 831.515  15
  -1   2  16 4893.26 854.030   1
   1  -2 -16 4382.18 759.887  10
  -1  -2  16 4292.71 778.622   1
   1   2 -16 3885.90 740.728   2
  -1  -2  16 3286.98 721.161  13
  -1  -2  16 4559.40 770.630  18
  -1   2  15 13828.2 1319.84   1
  -1  -2  15 16071.2 1340.92  18
   1  -2 -15 16912.8 1349.87  10
   1  -2 -15 16754.3 1381.01   2
  -1   2  15 18762.5 1549.25  15
  -1  -2  15 15655.3 1395.25   1
  -1  -2  15 17043.6 1499.51  13
   1   2 -15 15708.0 1401.30   2
  -1  -2  14 1238.42 459.915   1
  -1   2  14 1498.96 539.117   1
   1  -2 -14 937.431 402.334  10
  -1  -2  14 1486.20 406.079  14
  -1  -2  14 640.410 273.923  18
   1  -2 -14 1429.50 440.921   2
  -1  -2  14 1574.84 514.948  13
   1   2 -14 938.917 391.857   2
  -1   2  14 959.678 412.663  15
  -1  -2  13 39345.4 1877.08  18
   1  -2 -13 36559.6 1842.66   2
  -1  -2  13 34485.1 1873.02   1
  -1  -2  13 37508.6 2015.16  13
   1   2 -13 36445.2 1926.66   2
   1   2 -13 39561.7 1694.14   9
  -1   2  13 40659.6 2071.60  15
  -1   2  13 38706.8 1973.47   1
  -1  -2  12 6546.58 807.884  13
  -1  -2  12 4589.93 631.477  18
  -1   2  12 5254.95 800.589   1
  -1  -2  12 5576.61 607.480   6
   1  -2 -12 5662.50 688.248   2
  -1   2  12 5907.43 756.160  15
  -1  -2  12 5220.63 724.936   1
   1   2 -12 5329.43 706.043   2
   1   2 -12 5006.23 613.089   9
  -1   2  11 11988.4 1055.79  15
  -1  -2  11 11977.4 947.724  18
  -1  -2  11 12086.3 1044.41  13
   1   2 -11 12071.3 881.703   9
  -1   2  11 12290.0 1055.26   1
  -1  -2  11 13273.7 871.437   6
   1  -2 -11 11262.0 919.425   2
   1   2 -11 11504.1 978.506   2
  -1  -2  11 9578.20 921.794   1
  -1  -2  10 5029.68 624.145   1
  -1  -2  10 4334.72 557.633  18
   1  -2 -10 4423.13 553.064   2
  -1   2  10 5760.81 742.685   1
  -1  -2  10 5868.49 721.409  13
  -1   2  10 4697.02 644.266  15
  -1  -2  10 5293.14 534.763   6
   1   2 -10 4657.85 606.635   2
   1   2 -10 4717.15 432.240  12
   1  -2  -9 15023.6 936.565   2
  -1   2   9 13763.0 979.510   1
  -1  -2   9 15054.2 939.860  18
   1   2  -9 14805.4 681.902   5
  -1   2   9 14958.1 1012.93  15
   1   2  -9 15000.1 725.869  12
  -1  -2   9 16866.5 1075.93  13
  -1  -2   9 14592.2 840.406   6
  -1  -2   9 11402.3 894.632   1
   1   2  -9 15210.7 995.438   2
   1  -2  -9 13470.4 649.610  12
  -1   2   9 14775.6 676.449  14
  -1   2   8 1174.75 350.605   1
  -1  -2   8 933.583 273.004   1
   1   2  -8 923.084 179.753   5
  -1   2   8 1450.19 330.857  15
  -1  -2   8 947.773 227.246   6
  -1  -2   8 1559.33 376.291  13
   1   2  -8 1141.70 329.476   2
  -1  -2   8 1155.75 293.213  18
   1  -2  -8 970.140 187.312  12
  -1   2   8 869.011 165.015  14
   1  -2  -7 54776.4 1185.45  12
  -1  -2   7 60248.7 1757.24  13
  -1  -2   7 48575.8 1530.64   1
   1   2  -7 58092.4 1702.45   2
   1  -2  -7 58781.6 1584.30  10
  -1  -2   7 57909.1 1473.79   6
  -1  -2   7 58526.7 1602.53  18
  -1   2   7 56655.0 1705.45  15
  -1   2   7 57563.6 1110.63  14
  -1   2   7 59285.3 1697.75   1
   1   2  -7 58725.5 1294.14   5
   1   2  -6 5545.49 504.075   2
  -1   2   6 5176.92 491.349  15
   1  -2  -6 5159.35 445.508  10
   1   2  -6 5319.25 399.300   5
  -1  -2   6 5398.23 442.446   1
  -1   2   6 5073.59 290.582  14
  -1  -2   6 5319.92 507.801  13
   1  -2  -6 4713.74 330.974  12
  -1  -2   6 4989.02 416.776   6
  -1   2   6 4583.71 461.577   1
  -1  -2   6 5238.40 449.819  18
  -1  -2   5 142352. 2115.74  18
   1   2  -5 146086. 1276.27   7
   1   2  -5 143737. 1917.97   5
   1   2  -5 143191. 2297.04   2
  -1   2   5 139877. 2320.09  15
  -1   2   5 140702. 2256.85   1
  -1   2   5 144727. 1341.78  14
  -1  -2   5 144732. 2034.67   6
   1  -2  -5 144149. 2104.06  10
  -1  -2   5 129977. 1976.71   1
  -1  -2   5 145267. 2315.61  13
   1   2  -4 31181.5 981.013   2
   1  -2  -4 29665.8 880.402  10
  -1   2   4 29915.2 986.547  15
   1  -2  -4 28891.7 901.171  11
  -1  -2   4 30303.8 899.653  18
  -1  -2   4 29537.4 817.585   1
  -1  -2   4 29980.3 960.337  13
   1   2  -4 30796.7 575.503   7
   1  -2  -4 29219.1 665.909   3
  -1  -2   4 31119.4 887.861   6
  -1   2   4 30342.6 598.023   5
  -1   2   4 30509.8 976.601   1
   1   2  -4 31163.0 871.176   5
   1   2  -3 494428. 3576.69   2
  -1   2   3 501279. 3638.00   1
   1   2  -3 507682. 2371.93   7
  -1  -2   3 511604. 3383.09   6
   1  -2  -3 494508. 3337.95  10
  -1  -2   3 487947. 3548.91  13
  -1   2   3 489577. 2663.68   5
  -1  -2   3 501089. 3480.33  17
   1  -2  -3 497899. 2784.78   3
   1   2  -3 504046. 3384.43   5
  -1   2   3 512344. 3595.25  15
   1  -2  -3 494827. 3391.15  11
   1  -2  -2 31178.5 716.304   3
   1   2  -2 30671.0 820.828   2
  -1  -2   2 30913.8 807.481  13
   1  -2  -2 30955.1 780.063  10
  -1   2   2 31655.0 800.397  15
  -1   2   2 30640.1 715.393   5
  -1  -2   2 30722.8 796.822  11
   1   2  -2 30423.1 823.394   5
   1  -2  -2 30671.6 776.893  11
  -1  -2   2 34535.7 823.748  17
  -1  -2   1 246410. 2086.48  17
   1   2  -1 231961. 2154.50  16
   1   2  -1 243769. 2231.18   5
   1  -2  -1 233453. 2084.12   3
  -1  -2   1 235894. 2020.86  13
  -1   2   1 236950. 2107.14   5
   1  -2  -1 231293. 2061.13  11
   1   2  -1 232902. 2101.15   2
   1  -2  -1 245908. 1524.51  17
  -1  -2   1 235916. 2087.48  11
   1  -2  -1 240350. 2125.08  10
  -1  -2   0 182933. 1838.29  17
  -1   2   0 176662. 1934.47   5
   1  -2   0 178112. 1349.00  13
  -1   2   0 181507. 1636.08   8
   1  -2   0 180371. 1826.40  11
   1  -2   0 190142. 1760.22   4
   1  -2   0 179516. 1886.66  10
  -1  -2   0 181596. 1839.62  11
   1   2   0 181450. 1938.08  16
   1   2   0 176493. 1859.73   5
  -1   2   0 179127. 1556.64   2
   1  -2   0 173829. 1886.26   3
   1  -2   1 10787.6 422.977  13
  -1  -2  -1 11095.5 485.818  12
   1   2   1 11721.0 454.713   1
   1  -2   1 12005.5 417.024   4
  -1  -2  -1 10190.5 464.823  11
  -1   2  -1 9887.19 415.843   2
  -1   2  -1 10608.3 501.531   5
   1   2   1 9906.72 439.567   5
   1  -2   1 10800.1 319.448  17
   1  -2   1 9673.38 457.658  11
  -1  -2  -1 10252.5 480.972   4
  -1  -2  -1 10019.8 462.683  17
   1   2   2 6712.93 363.044   5
  -1  -2  -2 6879.12 413.693   4
  -1  -2  -2 6598.46 411.754  11
   1   2   2 7269.23 412.528   1
  -1  -2  -2 7884.56 432.875  12
  -1  -2  -2 7435.81 443.906  17
  -1   2  -2 7235.09 414.836   2
   1  -2   2 7222.82 439.533  18
   1   2   2 7582.02 390.683  14
  -1  -2  -2 7366.10 285.334  10
   1  -2   2 8247.29 439.239  13
  -1   2  -2 6653.30 432.349   5
  -1   2  -3 140160. 1978.52   5
  -1  -2  -3 138374. 2076.30  17
   1   2   3 130082. 2000.73  15
   1  -2   3 136184. 2013.06  13
  -1  -2  -3 138527. 1478.41  10
   1   2   3 142291. 1998.54   1
   1   2   3 132467. 1559.24   5
  -1   2  -3 132622. 1989.87   2
  -1  -2  -3 134951. 1873.52  12
   1  -2   3 133939. 2008.89  18
   1   2   3 136458. 1743.93  14
  -1  -2  -4 25842.7 874.888  12
   1   2   4 25380.2 685.365   5
   1   2   4 26289.4 952.773   1
   1   2   4 25065.8 946.320  15
   1  -2   4 26037.1 974.585  13
   1  -2   4 24930.9 924.859   1
  -1  -2  -4 27581.5 1011.16  17
   1   2   4 25912.7 813.509  14
   1  -2   4 24315.1 929.183  18
  -1   2  -4 23634.8 927.900   2
  -1   2  -4 25419.2 888.267   5
   1  -2   5 311816. 2487.28   6
   1   2   5 320922. 3613.55   1
   1  -2   5 300748. 3633.25  13
   1  -2   5 304848. 3456.71   1
   1   2   5 295986. 3497.65  15
   1   2   5 301303. 2986.51  14
  -1   2  -5 315838. 3176.47   5
  -1  -2  -5 300645. 3153.53  12
   1  -2   5 299050. 3513.22  18
  -1   2  -5 297250. 3557.77   2
   1   2   6 2709.18 383.487  15
   1  -2   6 2588.50 378.050   1
  -1  -2  -6 2819.11 343.809  12
   1   2   6 2312.37 290.295  14
   1  -2   6 2491.43 249.334   6
   1  -2   6 2411.64 369.729  13
   1   2   6 2896.67 419.299   1
   1  -2   6 1981.46 338.500  18
  -1   2  -6 2798.84 331.017   5
  -1   2  -6 2621.44 390.147   2
  -1   2  -7 31776.4 1367.45   2
   1   2   7 32469.3 1121.06  14
   1   2   7 32633.8 1334.13  15
  -1   2  -7 34295.4 1127.93   5
  -1  -2  -7 32433.0 1155.64  12
   1  -2   7 33565.8 1363.64  18
   1  -2   7 32799.0 957.248   6
   1  -2   7 32730.1 1410.29  13
   1  -2   7 32613.8 1327.00   1
   1   2   7 34637.6 1415.50   1
   1  -2   8 802.792 278.915   1
   1   2   8 1345.72 433.243   1
  -1  -2  -8 776.877 247.791  12
   1  -2   8 577.274 171.049   6
  -1   2  -8 437.215 199.483  12
   1  -2   8 727.466 290.540  13
   1   2   8 454.865 175.245  14
   1  -2   8 761.252 293.172  18
   1   2   8 1513.89 354.444  15
  -1   2  -8 631.989 202.990   5
  -1   2  -8 681.862 276.362   2
   1   2   9 691.012 273.532  15
   1   2   9 544.014 207.858  14
   1   2   9 291.272 289.728   1
   1  -2   9 613.969 305.192  13
   1  -2   9 686.952 185.005   6
  -1   2  -9 531.315 188.851  12
  -1  -2  -9 850.781 249.137  12
   1  -2   9 274.489 266.075   1
  -1   2  -9 298.498 118.489   5
  -1   2  -9 228.520 226.297   2
   1  -2   9 709.976 262.549  18
  -1   2 -10 444.702 248.789   2
  -1  -2 -10 76.7731 196.450   2
   1  -2  10 27.9954 247.447  13
   1  -2  10-41.6445 218.907  14
   1   2  10 328.526 242.084  15
  -1   2 -10-43.4452 148.604  12
  -1  -2 -10 224.422 208.177  12
   1  -2  10 119.410 278.641   1
   1   2  10 42.3478 145.288  14
   1   2  10 737.756 393.196   1
   1  -2  10 174.816 205.091  18
   1   2  11 28724.5 1646.85   1
   1  -2  11 29543.4 1701.26  13
   1  -2  11 26666.9 1541.73  18
   1  -2  11 28465.0 1529.79  14
   1  -2  11 29034.6 1604.27   1
  -1   2 -11 27708.0 1599.76   2
   1   2  11 27717.8 1292.95  14
  -1  -2 -11 27974.8 1579.49   2
  -1  -2 -11 25726.7 1222.50  12
   1   2  11 29538.1 1618.95  15
  -1   2 -11 27082.4 1283.59  12
   1  -2  12 410.762 206.028  14
   1   2  12 543.410 266.941  15
  -1   2 -12 939.594 379.184   2
   1  -2  12 610.077 347.182   1
   1  -2  12 732.383 395.675  13
   1  -2  12 747.009 339.451  18
  -1  -2 -12 572.598 298.972   2
   1   2  12 567.330 373.911   1
   1  -2  13 25053.3 1638.71  18
  -1   2 -13 25613.3 1704.58   2
  -1  -2 -13 27070.4 1709.51   2
   1   2  13 26967.4 1749.16   1
   1   2  13 27355.6 1722.37  15
   1  -2  13 29769.0 1889.37  13
   1  -2  13 25641.4 1677.90   1
   1  -2  13 26578.0 1614.50  14
   1  -2  14 279.958 326.506   1
  -1  -2 -14 1420.08 481.545   2
   1  -2  14 539.751 305.557  14
   1   2  14 1106.13 411.298  15
   1   2  14 650.898 399.207   1
   1  -2  14 520.055 358.514  18
  -1   2 -14-384.854 430.597   2
  -1  -2 -15 5291.60 845.975   2
   1   2  15 3374.35 679.002  15
  -1   2 -15 4436.31 794.677   2
   1  -2  15 4220.29 771.001  18
   1   2  15 1560.77 516.120   1
   1  -2  15 1905.40 567.476   1
   1  -2  15 2934.65 605.069  14
   1   2  16 3169.85 766.765   1
   1   2  16 1899.80 529.505  15
   1  -2  16 1882.67 600.640   1
  -1   2 -16 1634.20 554.489   2
  -1  -2 -16 1400.11 493.310   2
   1  -2  16 1536.44 530.420  18
   1   2  17 5905.21 993.243   1
   1  -2  17 2623.41 697.556   1
  -1  -2 -17 4276.76 828.217   2
   1  -2  17 5451.16 911.626  18
   1   2  17 3843.51 763.967  15
  -1   2 -17 3356.72 733.183   2
  -1  -3  18 1016.73 493.344   1
   1  -3 -18 2451.01 619.847   2
  -1  -3  18 2083.81 555.385  18
  -1   3  17-251.756 418.023   1
   1   3 -17-67.2864 285.406   2
  -1  -3  17-57.5662 219.988  18
  -1  -3  17-389.494 432.171   1
   1  -3 -17-186.116 257.057   2
  -1  -3  17-26.7031 219.048  13
  -1   3  17 10.3991 288.963  15
  -1  -3  16 6098.09 971.003  13
   1  -3 -16 6295.79 902.827   2
  -1   3  16 5974.38 981.435   1
  -1  -3  16 5088.23 823.465  18
   1  -3 -16 6105.60 865.008  10
  -1  -3  16 4599.96 892.563   1
  -1   3  16 7322.06 1047.21  15
   1   3 -16 6572.17 977.394   2
  -1  -3  15 741.774 414.494   1
  -1   3  15 1574.24 525.284  15
  -1  -3  15 826.455 347.652  18
   1   3 -15 632.444 352.801   2
  -1  -3  15 2701.75 565.554  14
  -1  -3  15 2261.66 628.634  13
   1  -3 -15 715.693 380.896  10
  -1   3  15 2160.44 640.678   1
   1  -3 -15 1851.24 477.900   2
  -1  -3  14 13605.3 1313.65  13
  -1   3  14 14159.5 1338.89  15
  -1   3  14 14262.7 1337.84   1
   1   3 -14 11920.1 1023.91   9
   1   3 -14 11416.6 1189.85   2
  -1  -3  14 11200.6 1174.70   1
  -1  -3  14 13084.6 1191.54  18
   1  -3 -14 12796.3 1137.92  10
   1  -3 -14 12690.6 1161.04   2
   1  -3 -13 2126.48 485.142   2
  -1  -3  13 901.858 352.363   1
   1   3 -13 1149.15 361.035   2
  -1   3  13 2338.56 617.117   1
  -1  -3  13 1962.96 519.913  13
  -1  -3  13 1372.18 407.247  18
   1  -3 -13 2092.47 497.974  10
  -1   3  13 2007.48 505.724  15
   1   3 -13 1615.54 446.910   9
  -1   3  12 3103.19 631.013   1
  -1  -3  12 3262.61 627.169  13
  -1   3  12 3532.11 614.609  15
  -1  -3  12 2293.48 523.693   1
   1  -3 -12 2407.59 462.349  10
  -1  -3  12 3599.13 558.319  18
   1  -3 -12 3459.79 556.341   2
   1   3 -12 1971.98 479.610   2
  -1  -3  12 3375.67 496.743   6
  -1  -3  11 8878.86 913.246  13
   1  -3 -11 8391.29 795.181  10
   1  -3 -11 7927.29 785.149   2
  -1   3  11 7547.92 856.609  15
  -1  -3  11 9035.96 738.590   6
  -1   3  11 7830.51 874.200   1
  -1  -3  11 7644.05 773.143  18
  -1  -3  11 6652.82 767.138   1
   1   3 -11 8176.22 859.992   2
  -1  -3  10 32437.4 1662.37  13
  -1  -3  10 29997.3 1447.72   1
  -1  -3  10 32205.6 1528.10  18
  -1   3  10 30599.2 1567.78   1
   1   3 -10 29351.1 1532.73   2
   1  -3 -10 29880.9 1382.88  10
   1  -3 -10 31415.1 1453.52   2
  -1   3  10 33487.1 1652.89  15
  -1  -3  10 31790.3 1308.49   6
   1  -3  -9 4541.60 537.756  10
  -1  -3   9 5183.42 652.016  13
  -1  -3   9 4563.56 558.954  18
  -1  -3   9 4919.49 517.982   6
  -1  -3   9 4499.27 537.016   1
  -1   3   9 4791.88 631.639   1
   1   3  -9 5016.32 471.177   5
  -1   3   9 4821.97 608.539  15
   1   3  -9 5014.47 624.801   2
   1   3  -8 92048.4 1935.90   5
  -1   3   8 90163.3 2427.94  15
  -1  -3   8 96098.3 2480.19  13
  -1  -3   8 90859.0 2141.26   1
  -1  -3   8 89197.4 2237.35  18
   1  -3  -8 91511.1 2153.83  10
  -1   3   8 91402.2 2368.19   1
  -1  -3   8 95521.6 2057.96   6
   1   3  -8 97381.0 2468.44   2
  -1   3   7 39542.8 1490.13   1
  -1  -3   7 40333.1 1501.82  13
   1  -3  -7 40213.1 1340.84  10
  -1   3   7 39936.8 905.789  14
  -1   3   7 41312.7 1540.81  15
  -1  -3   7 42616.7 1314.54   6
  -1   3   7 37394.5 692.036   5
  -1  -3   7 41000.6 1355.15   1
   1   3  -7 43208.7 1554.04   2
  -1  -3   7 43684.1 1468.62  18
   1   3  -7 42990.1 1293.83   5
   1   3  -6 48627.9 1354.20   5
  -1   3   6 48382.3 1551.53  15
  -1  -3   6 46884.1 1524.18  13
   1   3  -6 49809.8 1573.13   2
   1  -3  -6 49549.1 1383.17  10
  -1   3   6 46269.7 868.599   5
   1   3  -6 47143.0 673.986   7
  -1  -3   6 48619.5 1466.45  18
  -1   3   6 46802.8 1510.55   1
  -1  -3   6 48106.1 1356.07   6
   1  -3  -6 47148.0 1456.16  11
   1   3  -5 14427.7 798.722   2
   1   3  -5 14012.1 408.686   7
  -1  -3   5 14280.2 783.027  13
  -1   3   5 12869.3 494.446   5
  -1   3   5 14779.7 808.908  15
   1  -3  -5 14878.4 770.295  11
   1  -3  -5 14567.3 709.858  10
  -1   3   5 13950.4 804.265   1
   1  -3  -5 13324.6 517.898   3
   1   3  -5 13876.6 720.880   5
  -1  -3   4 77836.6 1672.76  13
  -1   3   4 78145.2 1724.70  15
   1  -3  -4 78775.1 1649.22  11
  -1   3   4 84163.0 1812.79   1
   1  -3  -4 82108.4 1578.07  10
   1  -3  -4 78097.2 1265.32   3
   1   3  -4 79582.3 1053.60   7
  -1   3   4 77235.0 1286.64   5
   1   3  -4 81710.8 1751.56   2
   1   3  -4 79737.1 1643.30   5
  -1  -3   4 81365.7 1620.61  17
   1  -3  -3 57972.1 1135.33   3
  -1  -3   3 56306.3 1324.70  13
  -1   3   3 60780.4 1435.69   1
  -1  -3   3 58848.4 1292.46  17
   1   3  -3 60296.2 1399.48   5
  -1   3   3 55131.5 1354.51  15
  -1   3   3 54229.2 1138.66   5
   1  -3  -3 58043.0 1221.27  17
   1  -3  -3 55757.6 1324.17  11
   1  -3  -3 56283.0 1261.27  10
   1   3  -3 57132.2 1371.71   2
  -1  -3   2 202454. 2310.85  13
  -1   3   2 202883. 2287.59   5
   1  -3  -2 197141. 2198.63   3
   1   3  -2 205601. 2528.07   5
   1  -3  -2 200089. 2385.65  11
   1  -3  -2 204549. 2023.57  17
  -1  -3   2 202641. 2428.16  11
   1   3  -2 200373. 2435.66   2
  -1  -3   2 206219. 2258.99  17
   1  -3  -2 201547. 2302.58  10
   1  -3  -1 13800.8 615.140  11
   1   3  -1 12783.0 624.120   5
   1   3  -1 13456.7 620.990  16
   1  -3  -1 13848.2 463.580  17
   1  -3  -1 13117.3 350.662  13
   1  -3  -1 13471.2 601.594   3
   1  -3  -1 13707.7 605.582  10
  -1  -3   1 13509.0 558.597  13
  -1   3   1 13049.9 605.744   5
  -1  -3   1 13830.3 580.500  17
  -1  -3   1 14153.1 625.265  11
   1   3   0 154877. 2095.36   5
  -1   3   0 157102. 1856.79  16
  -1   3   0 154240. 2133.38   5
   1  -3   0 159950. 2036.19   4
   1  -3   0 159624. 1440.33  17
  -1   3   0 153484. 1797.31   2
  -1  -3   0 156175. 2130.15   4
  -1  -3   0 154337. 1794.45  13
  -1  -3   0 158398. 1983.68  17
   1  -3   0 156692. 2084.99  11
   1  -3   0 156445. 1500.24  13
   1   3   0 153788. 2134.74  16
   1  -3   0 156897. 2103.21   3
  -1  -3   0 156337. 2079.89  11
  -1   3   0 153280. 1707.83   8
  -1   3  -1 496.033 176.188   5
   1  -3   1 103.297 105.645  11
  -1   3  -1 340.302 118.075   2
   1  -3   1 86.1772 54.4837  17
  -1  -3  -1 103.114 107.063  11
   1   3   1 37.7226 127.278   5
   1   3   1 71.3548 100.751   1
   1  -3   1 64.6372 95.6602   4
  -1  -3  -1 112.521 128.136   4
  -1  -3  -1 227.060 115.549  17
  -1  -3  -1 427.170 95.6326  10
   1  -3   1 54.7591 72.6684  13
  -1   3  -1 124.454 85.6511  16
  -1   3  -2 17727.6 716.368   2
  -1  -3  -2 19566.6 799.186  17
  -1  -3  -2 18972.7 779.742  11
   1  -3   2 19678.3 584.577  17
   1  -3   2 18807.0 706.643  13
  -1  -3  -2 18661.2 793.085   4
   1  -3   2 19277.0 670.804   4
   1   3   2 17523.2 689.180   5
  -1  -3  -2 18418.4 544.051  10
   1   3   2 19685.2 753.883   1
  -1   3  -2 19565.7 817.591   5
   1   3   3 14941.1 625.324   5
  -1  -3  -3 15767.2 547.772  10
   1  -3   3 15661.9 719.729  13
  -1   3  -3 15106.6 732.171   2
  -1  -3  -3 15106.5 434.011   3
  -1  -3  -3 15450.4 751.322  11
  -1  -3  -3 15235.4 723.281  12
  -1  -3  -3 15399.8 747.826  17
  -1   3  -3 15568.8 773.448   5
   1   3   3 16358.7 779.539   1
  -1  -3  -4 185997. 2797.97  17
   1   3   4 176883. 2113.97   5
   1  -3   4 177904. 2678.71  13
  -1  -3  -4 177569. 2024.83  10
  -1   3  -4 179673. 2679.87   2
   1   3   4 184195. 2727.46   1
  -1   3  -4 188497. 2685.32   5
   1  -3   4 172007. 2678.54  18
  -1  -3  -4 176034. 2526.86  12
   1   3   4 177573. 2261.75  14
  -1  -3  -4 183209. 2732.55  11
  -1   3  -5 1719.61 300.730   5
   1   3   5 1659.83 321.469   1
   1  -3   5 1430.32 275.316  18
   1   3   5 1521.62 325.719  15
  -1   3  -5 1522.70 301.103   2
  -1  -3  -5 1462.75 257.987  12
  -1  -3  -5 1863.50 240.670  10
   1  -3   5 2269.11 354.194  13
   1   3   5 1905.77 268.461  14
  -1  -3  -5 1976.74 345.388  11
   1   3   5 1320.00 191.806   5
  -1  -3  -5 2147.86 353.595  17
   1   3   6 147113. 2289.94  14
  -1  -3  -6 146890. 2494.75  12
   1   3   6 147706. 2855.28  15
   1  -3   6 146975. 2796.94  18
  -1   3  -6 152426. 2864.17   2
   1   3   6 153293. 2843.76   1
  -1   3  -6 154426. 2596.95   5
   1  -3   6 146689. 2857.76  13
  -1  -3  -6 147480. 2250.78  10
   1   3   7 12300.6 883.486  15
   1  -3   7 12916.8 914.263  13
  -1   3  -7 12169.5 879.006   2
   1  -3   7 11529.9 842.369   1
   1   3   7 12635.9 916.588   1
  -1  -3  -7 13125.4 789.856  12
   1   3   7 11126.9 672.797  14
  -1  -3  -7 13554.5 737.723  10
  -1   3  -7 11269.5 735.179   5
   1  -3   7 13493.6 921.789  18
  -1   3  -8 12.3786 144.563   5
   1   3   8 224.545 335.020   1
   1   3   8 369.153 248.703  15
   1  -3   8 21.0501 175.878  18
   1  -3   8-273.743 233.774   1
   1   3   8 244.889 152.222  14
  -1  -3  -8 408.661 217.440  10
  -1  -3  -8 359.826 197.117  12
   1  -3   8 387.714 242.323  13
  -1   3  -8 55.1645 215.906   2
  -1  -3  -9 2012.77 356.388  10
   1  -3   9 1346.34 355.393  18
   1   3   9 1736.98 380.603  15
  -1   3  -9 1696.77 322.398   5
   1  -3   9 2596.27 525.762  13
   1  -3   9 774.538 282.865   1
  -1  -3  -9 1581.56 314.890  12
   1   3   9 2053.97 335.439  14
  -1   3  -9 1328.05 373.682   2
   1   3   9 1608.00 446.412   1
  -1   3 -10 4331.45 645.406   2
  -1  -3 -10 3919.12 493.134  12
  -1   3 -10 3823.68 495.157  12
   1  -3  10 4603.27 680.908  13
   1  -3  10 2595.23 526.885   1
  -1  -3 -10 4081.87 515.385  10
   1   3  10 3716.62 603.180  15
   1  -3  10 3393.21 590.734  18
   1   3  10 5185.26 736.735   1
   1   3  11 2709.18 601.065   1
   1  -3  11 2374.64 509.615  18
  -1  -3 -11 2211.57 411.712  12
   1  -3  11 1996.39 484.904   1
  -1  -3 -11 2594.25 534.187   2
  -1  -3 -11 1953.27 396.840  10
  -1   3 -11 1878.06 371.722  12
   1  -3  11 1536.99 478.051  13
   1   3  11 2539.89 515.329  15
  -1   3 -11 2134.65 538.447   2
   1  -3  12 36205.9 1892.64  14
  -1   3 -12 31392.1 1844.22   2
   1  -3  12 35041.7 2003.25  13
   1  -3  12 32355.5 1832.82   1
   1  -3  12 30944.4 1780.09  18
   1   3  12 35122.7 1953.70   1
  -1  -3 -12 33144.1 1600.70  10
  -1  -3 -12 31494.7 1788.10   2
   1   3  12 35038.1 1900.80  15
  -1  -3 -13 1476.94 488.721   2
   1  -3  13 881.102 436.383  13
   1  -3  13 363.103 307.442   1
  -1   3 -13 391.720 301.650   2
   1  -3  13 765.697 353.303  18
   1  -3  13 645.396 334.693  14
   1   3  13 954.240 380.532  15
   1   3  13 1372.20 560.344   1
  -1  -3 -14 17395.9 1453.45   2
  -1   3 -14 19378.7 1588.97   2
   1  -3  14 19376.2 1536.59  18
   1   3  14 17348.3 1513.16   1
   1  -3  14 16857.9 1542.58  13
   1   3  14 18092.1 1504.07  15
   1  -3  14 16254.3 1502.98   1
   1  -3  14 20237.8 1524.92  14
  -1  -3 -15 401.362 337.845   2
  -1   3 -15-14.0749 327.818   2
   1   3  15-535.986 432.809   1
   1  -3  15 200.944 246.282   1
   1  -3  15-76.5484 262.238  14
   1  -3  15 268.950 318.577  18
   1   3  15 129.642 279.328  15
  -1  -3 -16 5793.10 942.106   2
  -1   3 -16 5539.54 911.879   2
   1  -3  16 4594.67 821.515  18
   1   3  16 5871.34 927.157  15
   1  -3  16 2488.07 772.814   1
   1   3  16 4744.30 877.542   1
   1  -3  16 3981.67 712.815  14
  -1  -3 -17-194.853 288.595   2
   1  -3  17-163.914 353.784  18
   1   3  17-254.227 286.369  15
   1  -4 -17 1580.19 538.612  11
   1  -4 -17 1502.26 481.998   2
  -1   4  17 738.537 460.132   1
  -1   4  17 1818.63 611.952  15
  -1  -4  17 1840.17 621.617  13
  -1  -4  17 1379.78 483.118  18
   1   4 -17 1356.33 518.420   2
  -1  -4  16 474.072 322.202  14
  -1   4  16 663.153 487.080   1
   1  -4 -16 174.002 280.170   2
  -1  -4  16 94.6441 319.449  13
   1  -4 -16 207.696 297.543  11
   1   4 -16 45.5525 256.067   2
  -1  -4  16 212.034 293.516  18
  -1   4  16-721.630 426.428  15
  -1   4  15 14262.7 1418.39  15
   1  -4 -15 13428.0 1308.52  11
  -1  -4  15 13791.7 1424.08  13
   1   4 -15 13285.4 1342.02   2
   1  -4 -15 13202.7 1254.06   2
  -1  -4  15 13335.7 1272.61  18
  -1   4  15 14914.3 1456.98   1
   1   4 -14 6566.18 824.594   9
   1  -4 -14 7326.59 945.428  11
  -1  -4  14 5105.86 741.374  18
   1   4 -14 4789.32 782.970   2
  -1   4  14 5955.36 933.112   1
   1  -4 -14 6359.17 790.471  10
  -1  -4  14 6297.72 913.548  13
   1  -4 -14 4940.97 740.599   2
  -1   4  14 4185.75 775.389  15
   1  -4 -13 26811.6 1697.88  11
   1  -4 -13 28090.9 1586.40  10
  -1   4  13 28002.3 1830.43  15
   1   4 -13 27413.8 1767.12   2
  -1  -4  13 32414.2 1958.20  13
  -1  -4  13 26071.8 1656.52  18
  -1   4  13 28386.3 1801.39   1
   1  -4 -13 28166.6 1655.79   2
   1  -4 -12 112.622 219.812  10
   1  -4 -12-254.217 263.038   2
  -1  -4  12-227.329 286.240  18
   1  -4 -12-44.3243 269.658  11
  -1  -4  12-117.723 332.612  13
  -1   4  12-429.671 366.798   1
  -1   4  12-230.824 269.618  15
   1   4 -12 31.7687 245.084   2
   1  -4 -11 17961.1 1153.28  10
  -1   4  11 16840.6 1289.60  15
   1   4 -11 17912.2 1308.97   2
  -1  -4  11 18057.9 1246.42  18
  -1  -4  11 18165.8 1344.34  13
  -1   4  11 18417.3 1325.14   1
   1  -4 -11 18215.6 1271.25  11
  -1   4  10 39549.4 1870.38  15
   1   4 -10 31946.3 1665.31   2
  -1   4  10 32923.1 1673.39   1
  -1  -4  10 32661.4 1585.62  18
   1  -4 -10 34071.1 1659.50  11
   1   4 -10 32513.7 1347.81   5
  -1  -4  10 36144.1 1786.56  13
   1  -4 -10 33192.9 1482.08  10
  -1   4   9 11336.3 979.089  15
  -1  -4   9 12260.7 923.353  18
   1  -4  -9 12900.7 884.775  10
   1  -4  -9 12441.4 949.827  11
   1   4  -9 10873.1 923.419   2
  -1   4   9 12838.2 1028.16   1
   1   4  -9 13142.9 846.588   5
  -1  -4   9 12530.0 1004.83  13
   1  -4  -8-161.096 176.030  10
   1  -4  -8 201.542 226.158  11
  -1   4   8-121.867 206.329  15
   1   4  -8-325.506 278.432   2
  -1   4   8 174.459 326.330   1
  -1  -4   8-180.979 238.886  13
   1   4  -8-48.8780 226.962   5
   1  -4  -7 20959.0 1106.50  11
  -1   4   7 18118.6 659.320   5
  -1   4   7 19367.2 1100.86   1
   1   4  -7 20194.3 1138.44   2
  -1  -4   7 19899.8 1038.36  17
  -1   4   7 18639.5 1103.88  15
   1  -4  -7 20741.5 990.853  10
  -1  -4   7 18285.7 1075.70  13
   1   4  -7 19995.0 1006.63   5
   1  -4  -6 47676.7 1576.96  11
  -1   4   6 47906.3 1662.44  15
   1  -4  -6 46113.5 1038.86   3
  -1   4   6 44807.7 1105.64   5
  -1  -4   6 49216.1 1528.20  17
  -1  -4   6 46620.8 1614.76  13
  -1   4   6 51534.0 1719.43   1
   1   4  -6 48274.0 1527.36   5
   1   4  -6 47634.4 1642.38   2
   1  -4  -6 45259.0 1401.20  10
   1   4  -5 31900.4 714.301   7
  -1   4   5 29817.1 938.073   5
  -1  -4   5 31311.3 1142.02  17
   1   4  -5 29862.7 1237.52   2
   1  -4  -5 31214.5 1110.23  10
  -1  -4   5 32319.3 1240.83  13
  -1   4   5 33460.3 1321.16   1
  -1   4   5 30824.3 1264.28  15
   1  -4  -5 30168.7 881.704   3
   1  -4  -5 33160.6 1246.21  11
   1   4  -5 33130.6 1249.44   5
   1  -4  -4 108.301 94.1971   3
   1   4  -4 132.337 174.537   5
  -1   4   4 340.213 160.930   5
  -1  -4   4 214.496 161.160  13
  -1   4   4-211.483 221.289   1
   1   4  -4 42.1472 151.122   2
   1  -4  -4 27.3440 111.702  10
  -1  -4   4 9.23293 97.8457  17
   1  -4  -4-68.5082 126.945  11
   1  -4  -3 158616. 1327.66  13
   1  -4  -3 159877. 2203.44   3
  -1   4   3 163775. 2339.42   5
   1   4  -3 163293. 2640.42   5
  -1  -4   3 173223. 2394.83  17
  -1  -4   3 169422. 2482.98  13
   1  -4  -3 169532. 2266.33  17
   1  -4  -3 160560. 2572.81  11
   1   4  -3 162679. 2591.54   2
   1  -4  -3 163915. 2377.06  10
  -1  -4   3 163592. 2589.03  11
   1  -4  -2 52328.6 1336.06  10
   1  -4  -2 53958.0 1427.94  11
  -1  -4   2 54572.6 1316.53  17
  -1  -4   2 52463.6 1429.56  11
   1   4  -2 50956.6 1384.37   2
  -1  -4   2 52493.3 1302.23  13
   1  -4  -2 52512.7 774.543  13
   1  -4  -2 51909.4 1155.46  17
   1   4  -2 51442.3 1458.85   5
   1  -4  -2 51907.2 1298.60   3
  -1   4   2 51866.7 1365.18   5
   1  -4  -1 209726. 1739.60  13
   1   4  -1 214075. 2793.81  16
   1  -4  -1 208823. 2680.19   3
   1  -4  -1 209852. 2670.73  10
   1   4  -1 207006. 2862.92   5
  -1  -4   1 213509. 2814.98  11
  -1  -4   1 218500. 2484.88  13
  -1  -4   1 217155. 2861.42   4
  -1  -4   1 213646. 2574.59  17
   1  -4  -1 218179. 2158.19  17
  -1   4   1 204242. 2089.60   8
   1  -4  -1 211250. 2790.67  11
  -1   4   1 210837. 2822.25   5
   1   4   0 590.614 239.306   5
  -1   4   0 79.6772 170.557   5
  -1   4   0 372.841 130.067  16
   1  -4   0 597.655 202.871   3
   1  -4   0 390.149 104.208  17
  -1  -4   0 601.090 160.210  13
   1   4   0 576.498 171.878  16
  -1  -4   0 354.172 167.008  11
  -1   4   0 683.199 140.855   8
   1  -4   0 528.710 165.299   4
  -1  -4   0 726.473 190.363   4
   1  -4   0 528.804 173.395  11
   1  -4   0 487.740 110.082  13
  -1  -4   0 487.075 163.993  17
   1  -4   1 51388.4 1008.46  17
   1  -4   1 53387.4 1324.30   4
   1  -4   1 48699.1 1109.22  13
  -1   4  -1 49203.9 1439.76   5
   1  -4   1 51051.2 1416.13  11
  -1   4  -1 48780.0 1184.19  16
  -1  -4  -1 51946.9 1322.93  17
  -1  -4  -1 49293.6 1413.53   4
   1   4   1 51060.4 1370.82   5
  -1   4  -1 48061.7 1238.94   2
  -1  -4  -1 49280.7 1120.72  13
  -1  -4  -1 50882.9 1412.60  11
  -1   4  -2 46294.8 1284.82   2
   1  -4   2 46951.7 1015.63  17
  -1   4  -2 48409.6 1465.23   5
  -1  -4  -2 48324.9 1357.91  17
  -1  -4  -2 46244.0 1403.57   4
   1   4   2 43924.9 1267.35   5
   1  -4   2 44314.5 1180.03  13
   1  -4   2 48045.7 1412.03  11
  -1  -4  -2 48039.9 1051.15  10
   1  -4   2 50346.5 1267.61   4
  -1  -4  -2 46189.9 1384.78  11
   1   4   3 30949.0 1136.66   1
  -1   4  -3 32920.3 1158.36   2
  -1  -4  -3 31160.1 881.929  10
   1  -4   3 32613.5 1019.54   4
   1  -4   3 32312.3 913.639  17
  -1   4  -3 30907.4 1211.41   5
   1  -4   3 33506.1 1115.93  13
  -1  -4  -3 35114.4 1212.43  17
   1   4   3 30915.8 1036.44   5
  -1  -4  -3 31300.6 1179.03  11
  -1  -4  -3 31099.0 820.612   3
   1  -4   4 3876.83 425.861  13
  -1  -4  -4 3798.00 452.292  17
  -1  -4  -4 4245.39 475.561  11
  -1  -4  -4 3806.44 258.104   3
   1   4   4 4594.63 417.219   5
  -1  -4  -4 4073.59 337.104  10
  -1   4  -4 4120.47 468.917   5
   1  -4   4 4150.00 368.083  17
  -1   4  -4 3855.16 452.162   2
   1   4   4 4808.61 536.010   1
  -1  -4  -5 42485.4 1139.19  10
  -1  -4  -5 44107.4 1546.10  17
   1   4   5 40868.4 1471.53   1
   1  -4   5 42505.4 1486.48  13
   1   4   5 40087.0 1156.43   5
  -1  -4  -5 40918.8 1491.19  11
  -1   4  -5 40962.3 1469.61   2
  -1   4  -5 40111.0 1461.83   5
  -1  -4  -6 1341.58 286.528  12
  -1  -4  -6 1436.29 242.833  10
  -1   4  -6 862.624 257.890   2
   1   4   6 1184.34 211.360   5
   1   4   6 1205.39 331.832   1
   1  -4   6 1603.70 346.709  13
   1  -4   6 1364.88 320.815  18
  -1  -4  -6 2071.16 399.353  11
  -1   4  -6 427.135 228.219   5
  -1  -4  -7 46141.9 1372.05  10
   1   4   7 46354.3 1400.33  14
  -1   4  -7 45144.4 1605.32   5
   1  -4   7 44310.5 1754.34  13
   1   4   7 47944.0 1796.96   1
  -1  -4  -7 46839.0 1762.90  11
  -1  -4  -7 44903.9 1549.64  12
  -1   4  -7 44511.8 1731.26   2
   1  -4   7 45543.6 1764.59  18
   1   4   8 9575.71 666.795  14
  -1  -4  -8 8336.30 634.058  10
   1   4   8 9939.15 896.684   1
   1  -4   8 8180.45 787.329  18
   1  -4   8 9653.38 872.476  13
  -1  -4  -8 9381.13 742.801  12
  -1   4  -8 9766.15 879.389   2
   1   4   8 11557.1 965.394  15
  -1   4  -8 9636.54 769.707   5
  -1  -4  -8 9900.53 881.776  11
  -1  -4  -9 50307.9 1744.38  12
  -1   4  -9 49048.0 2037.05   2
   1   4   9 51431.9 2054.33   1
   1   4   9 53020.2 2132.75  15
  -1  -4  -9 52360.2 2077.97  11
  -1   4  -9 53980.4 1835.79   5
   1  -4   9 52284.3 2147.05  13
  -1  -4  -9 50308.6 1641.38  10
   1  -4   9 54049.1 2095.56  18
   1  -4  10 9747.64 948.929  18
  -1  -4 -10 8589.37 758.281  12
   1   4  10 9711.06 957.869  15
   1   4  10 10856.2 1034.30   1
  -1   4 -10 11460.3 1038.11   2
  -1   4 -10 10950.3 835.372   5
   1  -4  10 8705.06 930.265  13
  -1  -4 -10 11203.6 1031.67  11
  -1   4 -11 36271.1 1923.85   2
   1   4  11 34622.7 1865.53   1
   1  -4  11 31889.3 1768.79  18
  -1  -4 -11 34721.5 1544.84  12
  -1  -4 -11 37107.6 1936.69  11
   1  -4  11 36373.7 1979.56  13
  -1   4 -11 35605.7 1628.49  12
   1   4  11 36203.5 1929.85  15
  -1  -4 -12 3159.79 587.879   2
   1   4  12 3855.17 672.315  15
   1  -4  12 4022.07 697.216  13
  -1  -4 -12 5431.68 806.181  11
   1  -4  12 2940.34 572.900  18
  -1   4 -12 2976.46 611.212   2
   1   4  12 4130.88 799.328   1
   1  -4  13 3248.16 631.406  18
   1   4  13 2600.17 615.392  15
   1  -4  13 3452.93 674.468  14
  -1  -4 -13 3638.89 682.481   2
  -1   4 -13 3935.34 722.367   2
   1  -4  13 3908.98 751.840  13
   1   4  13 3730.21 722.242   1
  -1  -4 -13 3935.90 726.590  11
   1   4  14 789.093 399.187  15
  -1   4 -14 1873.52 574.204   2
   1   4  14 754.739 480.805   1
   1  -4  14 1036.83 419.856  14
   1  -4  14 1176.12 486.264  13
  -1  -4 -14 709.784 401.134  11
   1  -4  14 660.429 319.260  18
  -1  -4 -14 729.940 380.068   2
  -1   4 -15 275.248 290.716   2
  -1  -4 -15 89.1340 282.407  11
   1  -4  15-512.220 375.312  18
   1  -4  15 2.97915 195.876  14
   1   4  15-918.480 501.513   1
  -1  -4 -15-272.035 359.065   2
  -1  -4 -16 828.444 385.105   2
  -1   4 -16 1877.55 591.741   2
   1   4  16 569.749 426.141   1
   1  -4  16 1357.38 523.795  18
   1  -4  16 1294.85 464.287  14
  -1  -4 -16 2139.34 609.441  11
  -1  -5  17 321.070 312.766  17
  -1   5  16 8448.33 1161.64  15
  -1   5  16 5413.98 975.703   1
  -1  -5  16 5549.56 984.215  13
   1   5 -16 6481.87 999.349   2
  -1  -5  16 6436.28 960.377  17
   1  -5 -16 6195.58 947.931  11
   1  -5 -15 640.199 362.974  11
   1  -5 -15 141.369 278.372   2
  -1   5  15 494.015 427.559   1
  -1  -5  15 277.493 372.284  13
  -1  -5  15 563.431 316.105  17
  -1   5  15 1097.86 478.286  15
   1   5 -15 1533.05 551.152   2
   1  -5 -14 576.973 353.250  11
   1   5 -14 331.146 284.395   2
  -1   5  14 1168.44 484.358  15
   1  -5 -14 587.706 297.689   2
  -1   5  14 441.825 468.250   1
  -1  -5  14 412.972 270.797  17
  -1  -5  14 553.564 453.653  13
   1  -5 -13 3394.44 654.684  11
   1   5 -13 1880.17 491.852   2
  -1   5  13 2585.91 637.176   1
  -1   5  13 2691.95 629.089  15
  -1  -5  13 3543.78 644.023  17
  -1  -5  13 2786.03 625.175  13
   1  -5 -13 2160.27 509.678   2
   1  -5 -12 674.196 317.557  11
  -1  -5  12 1323.45 443.719  13
  -1   5  12 1614.56 510.809  15
   1  -5 -12 1214.84 375.509  10
  -1   5  12 1050.93 468.351   1
  -1  -5  12 1111.21 375.169  17
   1   5 -12 447.781 241.605   2
   1  -5 -11 4672.71 689.383  11
  -1  -5  11 3777.93 593.393  17
   1   5 -11 3560.05 597.252   2
  -1   5  11 3671.48 636.485  15
  -1   5  11 3361.91 673.709   1
  -1  -5  11 4487.70 729.773  13
   1  -5 -11 3929.18 570.229  10
   1   5 -10 36324.8 1853.96   2
  -1   5  10 36267.0 1841.40   1
  -1  -5  10 42327.6 1998.76  13
   1  -5 -10 39875.4 1663.36  10
  -1   5  10 38768.6 1953.09  15
   1  -5 -10 38679.9 1852.20  11
  -1  -5  10 36981.8 1719.50  17
   1   5 -10 40685.5 1685.90   5
   1   5  -9 454.537 276.143   5
  -1   5   9 223.549 298.202   1
   1  -5  -9 433.565 220.499  10
   1   5  -9 79.1623 247.558   2
  -1   5   9 7.84411 214.731  15
   1  -5  -9 544.520 328.412  11
  -1  -5   9 223.419 200.758  17
  -1  -5   9 45.1659 205.203  13
  -1   5   8 135231. 3317.52  15
   1  -5  -8 133322. 2764.32  10
  -1  -5   8 139816. 3269.31  13
  -1   5   8 133472. 3220.20   1
   1  -5  -8 140489. 3189.84  11
  -1  -5   8 138645. 2984.13  17
   1   5  -8 133181. 3212.73   2
   1   5  -8 137899. 2966.75   5
  -1  -5   7 1757.85 352.158  17
   1  -5  -7 1950.71 332.205  10
   1  -5  -7 1128.77 321.008  11
  -1   5   7 1889.09 463.404   1
   1   5  -7 2140.57 434.623   2
  -1  -5   7 2176.02 438.179  13
   1   5  -7 1967.72 383.698   5
   1  -5  -6 45902.3 1492.88  10
   1   5  -6 45057.5 1716.78   2
  -1  -5   6 45965.2 1546.90  17
   1  -5  -6 43598.8 1147.92   3
   1  -5  -6 44180.3 1653.49  11
  -1   5   6 43563.1 1280.45   5
  -1  -5   6 45027.2 1664.66  13
   1   5  -6 46375.4 1663.81   5
  -1   5   6 48914.4 1798.44   1
   1   5  -5 15838.8 954.132   5
   1  -5  -5 13740.8 676.825   3
   1   5  -5 14999.8 963.425   2
  -1   5   5 14381.6 770.150   5
  -1  -5   5 15188.4 840.253  17
  -1  -5   5 14952.1 903.270  13
  -1   5   5 15384.0 1008.03   1
   1  -5  -5 13525.4 800.121  10
   1   5  -5 14588.3 571.243   7
   1  -5  -5 15246.8 936.850  11
  -1  -5   4 208.508 158.064  17
  -1   5   4 320.246 153.147   5
   1  -5  -4 245.272 202.301  11
   1  -5  -4 278.974 146.682  10
   1  -5  -4 268.043 122.878  17
   1  -5  -4 380.892 146.783   3
   1   5  -4 332.141 211.667   5
   1  -5  -4 626.715 105.715  13
  -1   5   4 242.914 223.417   1
   1   5  -4 69.4916 153.908   2
  -1  -5   4 593.053 188.961  13
   1  -5  -3 48277.0 831.147  13
   1  -5  -3 50323.8 1352.63  17
  -1  -5   3 50799.6 1477.20  13
   1   5  -3 45843.2 1523.91   2
  -1   5   3 50257.1 1479.09   5
  -1  -5   3 50165.0 1409.01  17
   1  -5  -3 48340.3 1368.17   3
  -1  -5   3 49807.6 1610.23  11
   1  -5  -3 51061.9 1599.91  11
   1   5  -3 52645.1 1696.97   5
   1  -5  -3 50519.3 1458.16  10
   1  -5  -2 45093.9 855.685  13
   1  -5  -2 48348.6 1424.97  10
   1   5  -2 47696.0 1584.06   5
   1  -5  -2 45817.7 1372.27   3
  -1  -5   2 49105.6 1370.15  17
   1  -5  -2 45003.5 1486.34  11
  -1   5   2 46625.9 1470.41   5
  -1  -5   2 47380.2 1512.18   4
  -1   5   2 44435.8 1038.46   8
  -1  -5   2 46242.9 1328.48  13
   1  -5  -2 47354.1 1221.85  17
  -1  -5   2 46505.3 1528.03  11
   1   5  -1 42856.6 1476.82   5
   1  -5  -1 42029.7 1351.41   3
  -1  -5   1 41137.4 1258.55  17
   1  -5  -1 42385.9 1429.00  11
  -1  -5   1 42965.4 1449.57  11
   1  -5  -1 43739.4 1105.97  17
   1  -5  -1 41930.0 917.312  13
  -1   5   1 42998.6 1355.16  16
  -1  -5   1 43367.4 1236.11  13
   1   5  -1 43961.0 1426.01  16
  -1  -5   1 42826.8 1438.97   4
  -1   5   1 41726.6 1028.93   8
  -1   5   1 42927.0 1441.62   5
   1  -5   0 138296. 1893.02  17
  -1  -5   0 137617. 2619.22   4
   1   5   0 134778. 2569.16   5
  -1   5   0 134942. 2614.65   5
  -1  -5   0 134470. 2081.99  13
  -1   5   0 138453. 2352.47  16
   1  -5   0 135739. 1827.72  13
  -1  -5   0 136084. 2561.45  11
   1  -5   0 141891. 2527.50   4
   1  -5   0 131979. 2477.65   3
   1   5   0 138216. 2579.70  16
  -1  -5   0 138656. 2319.80  17
   1  -5   0 134932. 2534.49  11
   1  -5   1 51285.2 1140.28  17
  -1  -5  -1 49063.9 1226.27  13
  -1   5  -1 47864.4 1384.78   2
   1   5   1 48210.8 1529.63   5
   1  -5   1 51090.2 1583.43  11
  -1  -5  -1 50888.1 1441.57  17
  -1  -5  -1 49964.3 1560.62  11
  -1  -5  -1 51036.2 1623.51   4
  -1   5  -1 47681.6 1351.05  16
   1  -5   1 49734.3 1469.12   4
   1  -5   1 47445.2 1194.71  13
  -1   5  -1 50477.3 1639.41   5
   1   5   1 50686.8 1612.71  16
  -1   5  -2 91914.3 2010.22   2
  -1  -5  -2 91162.4 2208.79   4
  -1  -5  -2 90055.1 1649.58  10
   1   5   2 101430. 2134.32   1
  -1  -5  -2 91750.7 2169.92  11
   1  -5   2 91845.5 1581.93  17
  -1  -5  -2 86920.4 1635.59  13
  -1  -5  -2 91699.3 2031.52  17
   1   5   2 88294.3 2022.16   5
   1  -5   2 90231.1 1805.12  13
   1  -5   2 93540.7 2194.90  11
   1  -5   2 92568.3 1962.84   4
  -1   5  -2 95314.4 2296.80   5
   1   5   3 21849.0 1067.39   1
  -1  -5  -3 19980.2 1045.45  11
   1   5   3 20657.6 966.821   5
  -1  -5  -3 20860.4 795.927   3
   1  -5   3 21383.2 946.095   4
   1  -5   3 20318.7 938.865  13
  -1  -5  -3 21242.1 1021.87  17
  -1  -5  -3 20624.8 796.413  10
  -1   5  -3 21356.4 1124.22   5
   1  -5   3 21049.4 798.429  17
  -1   5  -3 20597.6 1013.60   2
  -1  -5  -4 30704.4 997.084  10
  -1  -5  -4 32422.5 1374.71  11
   1  -5   4 32004.6 1253.48  13
   1   5   4 31673.9 1188.65   5
   1  -5   4 32488.6 1069.70  17
  -1  -5  -4 32260.2 1332.06  17
   1  -5   4 31213.5 1141.87   4
   1   5   4 33764.7 1347.00   1
  -1  -5  -4 30465.4 893.146   3
  -1   5  -4 31980.8 1401.76   5
  -1   5  -4 30501.4 1294.65   2
  -1  -5  -5 15764.4 1011.55  11
   1   5   5 15608.7 1009.14   1
   1   5   5 16161.8 838.794   5
  -1   5  -5 15996.9 992.278   2
  -1  -5  -5 16667.8 767.183  10
  -1  -5  -5 16258.6 1005.90  17
  -1   5  -5 17302.6 1061.29   5
   1  -5   5 16760.3 821.506  17
   1  -5   5 16660.7 975.058  13
  -1   5  -6 15631.6 1039.52   2
  -1  -5  -6 17638.8 1124.15  11
  -1   5  -6 15326.9 1018.81   5
  -1  -5  -6 16218.8 795.537  10
   1  -5   6 15475.5 858.910  17
   1   5   6 13930.7 1051.20   1
  -1  -5  -6 16571.8 1059.94  17
   1   5   6 14513.8 781.006   5
   1  -5   6 15900.9 1032.82  13
   1  -5   7 191.277 197.496  13
   1  -5   7 211.542 155.730  17
  -1  -5  -7 338.110 158.323  10
  -1  -5  -7 281.200 232.546  11
  -1   5  -7 232.058 189.643   2
   1   5   7-83.0935 270.931   1
  -1  -5  -8 19698.6 1288.42  11
   1   5   8 19558.2 1266.52   1
  -1   5  -8 19764.5 1290.43   2
   1  -5   8 21324.4 1334.52  13
  -1   5  -8 22423.7 1276.97   5
   1  -5   9 707.859 288.410  13
  -1  -5  -9 74.1885 244.647  11
  -1   5  -9 447.005 252.948   2
  -1   5  -9 842.449 289.397   5
   1   5   9 19.0889 325.426   1
   1  -5  10 19235.0 1410.57  13
   1   5  10 17142.5 1348.59   1
  -1   5 -10 15884.9 1266.63   2
  -1  -5 -10 19680.4 1402.92  11
  -1   5 -10 17574.2 1174.09   5
  -1  -5 -11 93.6174 253.662  11
   1  -5  11 169.602 333.033  13
  -1   5 -11 540.629 258.349   2
   1   5  11 524.972 372.793   1
   1  -5  11-133.218 335.669  18
   1   5  12 13015.5 1261.69   1
   1  -5  12 11331.0 1194.31  13
  -1  -5 -12 10966.5 1157.73  11
  -1   5 -12 12596.6 1240.40   2
   1  -5  12 11613.1 1177.93  18
  -1  -5 -13 1620.72 521.295  11
   1  -5  13 3000.80 694.929  13
   1  -5  13 1339.49 435.975  18
   1   5  13 1769.20 565.935   1
  -1   5 -13 1696.39 541.101   2
  -1  -5 -13 1316.88 425.315   2
   1   5  14 6350.30 990.179   1
   1  -5  14 6112.78 928.483  14
   1  -5  14 5956.89 949.442  13
  -1  -5 -14 5314.20 847.313   2
  -1   5 -14 4679.84 830.537   2
   1  -5  14 4449.30 797.443  18
  -1  -5 -14 6516.40 947.835  11
   1  -5  15-492.816 458.538  13
  -1   5 -15 257.264 277.526   2
   1  -5  15 518.979 366.931  14
  -1  -5 -15-184.916 262.878  11
   1   5  15 181.087 372.150   1
  -1  -5 -15 183.960 282.662   2
  -1  -5 -16 4051.11 806.622   2
   1  -5  16 2725.55 673.632  14
  -1  -6  16 702.447 401.892  17
   1  -6 -16 51.8306 216.309  11
  -1   6  15 7301.40 1067.84   1
  -1  -6  15 7689.52 1001.37  17
   1   6 -15 5891.48 982.050   2
  -1  -6  15 7637.49 1119.08  13
   1  -6 -15 6045.12 929.427  11
  -1   6  14 1362.45 634.072   1
  -1  -6  14 769.702 438.080  13
   1   6 -14 1258.87 472.297   2
  -1  -6  14 606.247 348.199  17
   1  -6 -14 938.428 373.981  11
   1   6 -13 5436.67 877.834   2
  -1   6  13 4630.10 811.076   1
  -1  -6  13 4521.64 718.433  17
   1  -6 -13 5318.29 778.123   2
  -1  -6  13 6453.96 941.912  13
   1  -6 -13 5381.99 822.204  11
  -1   6  12 425.598 399.085   1
   1  -6 -12 629.582 356.762  11
   1   6 -12 913.318 412.730   2
  -1  -6  12 466.543 239.749  17
  -1  -6  12 533.849 305.718  13
   1   6 -11 7679.25 821.831   5
   1   6 -11 7068.85 925.983   2
  -1  -6  11 7178.28 823.381  17
  -1  -6  11 8183.55 984.016  13
   1  -6 -11 7306.30 898.715  11
  -1   6  11 8354.02 1010.43   1
   1   6 -10 5222.91 672.714   5
   1  -6 -10 6529.22 821.029  11
  -1  -6  10 5984.49 725.336  17
   1  -6 -10 5176.66 617.729  10
  -1  -6  10 4964.61 751.187  13
  -1   6  10 4647.01 720.141   1
   1   6 -10 5973.55 806.821   2
   1  -6  -9 23032.9 1428.93  11
  -1  -6   9 25093.6 1532.58  13
  -1  -6   9 23304.8 1323.51  17
  -1   6   9 25770.3 1572.17   1
   1   6  -9 24813.9 1549.86   2
   1   6  -9 24262.8 1404.67   5
   1  -6  -9 24414.0 1284.24  10
   1  -6  -8 828.910 247.685  10
  -1   6   8 562.601 296.087   1
  -1  -6   8 1361.88 410.875  13
   1   6  -8 645.908 287.655   5
   1   6  -8 554.385 308.040   2
   1  -6  -8 987.428 344.655  11
  -1  -6   8 872.429 282.403  17
   1  -6  -7 36883.8 1695.62  11
  -1  -6   7 39189.3 1575.41  17
   1   6  -7 36385.9 1723.33   2
  -1   6   7 38256.5 1776.60   1
  -1  -6   7 39049.8 1715.04  13
   1  -6  -7 37351.4 1479.28  10
   1   6  -7 35913.7 1656.35   5
  -1  -6   6 7799.12 738.444  13
  -1   6   6 7981.16 802.331   1
   1  -6  -6 9416.53 837.208  11
   1   6  -6 10723.6 896.757   5
   1  -6  -6 8646.42 702.795  10
  -1  -6   6 9725.31 755.387  17
   1   6  -6 8455.20 799.749   2
  -1   6   6 8912.23 675.066   5
  -1  -6   5 40621.2 1571.04  13
   1  -6  -5 39479.5 1452.15  10
   1   6  -5 40103.0 1657.27   2
   1  -6  -5 38997.1 1280.48   3
  -1  -6   5 41143.2 1476.99  17
  -1   6   5 40389.8 1713.88   1
  -1   6   5 39213.3 1412.61   5
   1   6  -5 43101.7 1748.50   5
   1  -6  -5 40380.7 1663.99  11
   1  -6  -4 3238.98 428.627  10
  -1   6   4 2354.94 456.474   1
  -1   6   4 2702.73 418.109   5
  -1  -6   4 2799.76 417.855  13
  -1  -6   4 2924.66 404.645  17
   1  -6  -4 2279.72 333.902   3
   1  -6  -4 3258.25 482.554  11
   1   6  -4 2880.31 459.064   2
   1   6  -4 3292.09 512.322   5
   1  -6  -4 2589.86 364.996  17
  -1  -6   3 8907.74 761.155  11
   1   6  -3 8314.75 718.503   2
   1   6  -3 9954.76 843.501   5
   1  -6  -3 8336.40 605.877  17
  -1  -6   3 8596.68 633.169  17
  -1   6   3 8667.90 715.398   5
   1  -6  -3 9218.71 775.071  11
  -1   6   3 7517.45 462.131   8
  -1  -6   3 8965.67 736.258   4
  -1  -6   3 8995.34 665.659  13
   1  -6  -3 9132.47 670.815   3
   1  -6  -3 9255.11 691.579  10
   1   6  -2 795.717 297.712   5
  -1   6   2 890.616 169.130   8
  -1  -6   2 771.587 272.133   4
   1  -6  -2 1005.17 304.895  11
   1  -6  -2 670.541 184.267  17
   1  -6  -2 903.904 249.276   3
  -1   6   2 613.591 277.621   5
   1  -6  -2 754.822 205.222  10
  -1  -6   2 614.960 232.362  11
  -1  -6   2 428.726 159.372  13
  -1  -6   2 306.959 154.428  17
  -1  -6   1 13582.9 912.940   4
  -1  -6   1 13104.7 904.466  11
   1  -6  -1 13832.3 916.433  11
   1  -6  -1 13533.6 578.873  13
   1   6  -1 14381.1 903.491  16
  -1   6   1 12885.5 612.521   8
  -1  -6   1 14589.1 781.907  13
   1   6  -1 14561.1 971.041   5
  -1   6   1 14049.7 947.567   5
   1  -6  -1 13842.6 699.212  17
  -1   6   1 14741.0 880.637  16
   1  -6  -1 12312.1 816.834   3
  -1  -6   1 13269.3 778.234  17
  -1  -6   0 212.552 136.597  13
  -1  -6   0-78.7039 234.493  11
   1  -6   0-25.2668 185.654   4
   1   6   0 108.693 209.755  16
   1  -6   0-41.0250 101.123  17
  -1   6   0 456.659 314.397   5
  -1  -6   0 44.3476 149.021  17
  -1  -6   0-142.270 235.514   4
   1  -6   0-53.0967 90.9642  13
   1   6   0 252.559 247.117   5
  -1   6   0-37.2178 139.902  16
   1  -6   0-60.9668 181.562   3
   1  -6   0 102.650 177.289  11
  -1  -6  -1 86161.6 2283.61  11
  -1  -6  -1 82262.7 1713.83  13
   1  -6   1 79372.9 1599.15  17
   1  -6   1 78075.2 2161.81   3
  -1  -6  -1 80127.5 2259.91   4
   1  -6   1 82001.1 1701.09  13
   1   6   1 83416.1 2251.39  16
   1  -6   1 84848.3 2152.49   4
   1  -6   1 82349.7 2245.35  11
  -1   6  -1 78904.8 2280.42   5
  -1  -6  -1 81501.0 1986.63  17
  -1   6  -1 82917.0 1979.31  16
   1   6   1 81322.7 2191.27   5
   1  -6   2 28945.8 979.661  17
  -1   6  -2 28931.2 1424.82   5
   1   6   2 29720.0 1320.32   5
  -1  -6  -2 29979.2 1032.85  13
  -1  -6  -2 30347.3 1258.77  17
  -1  -6  -2 29831.7 1369.68  11
   1  -6   2 29324.4 1251.10   4
   1  -6   2 29248.7 1104.01  13
   1   6   2 32082.7 1344.62   1
   1   6   2 29324.1 1380.11  16
  -1   6  -2 29199.3 1243.94   2
   1  -6   2 28880.2 1356.65  11
   1  -6   3 75282.9 1965.36   4
   1  -6   3 69603.1 1569.81  17
   1  -6   3 66475.0 1786.09  13
  -1  -6  -3 66553.2 1618.89   3
  -1  -6  -3 70646.9 1994.80  17
  -1   6  -3 72877.5 2273.55   5
   1   6   3 67732.4 1957.79   5
  -1  -6  -3 68199.1 1601.49  10
   1   6   3 72670.6 2135.65   1
  -1   6  -3 69983.0 2000.20   2
  -1  -6  -3 68281.4 1567.90  13
  -1  -6  -3 69198.5 2131.81  11
   1  -6   4 3866.58 473.398  13
   1   6   4 4603.70 603.527   1
  -1  -6  -4 4441.79 565.204  11
   1  -6   4 3950.30 468.013   4
  -1  -6  -4 4354.32 418.788  10
   1   6   4 3174.08 453.131   5
  -1  -6  -4 4539.51 534.465  17
  -1   6  -4 4063.01 532.455   2
  -1   6  -4 4033.46 595.586   5
   1  -6   4 4215.99 409.979  17
  -1  -6  -5 34986.3 1607.62  11
   1   6   5 38589.6 1636.25   1
  -1  -6  -5 38147.2 1608.00  17
  -1   6  -5 37260.0 1598.74   2
  -1   6  -5 35232.4 1653.40   5
   1  -6   5 35003.2 1236.36  17
   1  -6   5 36969.2 1374.53   4
   1  -6   5 36158.1 1509.62  13
   1   6   5 33379.5 1336.10   5
  -1  -6  -6 35277.0 1618.61  17
   1   6   6 38609.3 1407.68   5
   1   6   6 35294.4 1629.21   1
  -1  -6  -6 39069.9 1748.40  11
   1  -6   6 39034.9 1665.30  13
  -1   6  -6 36293.6 1659.25   2
   1  -6   6 38495.8 1377.77  17
   1  -6   6 39724.2 1446.76   4
  -1   6  -6 36080.2 1703.64   5
   1  -6   7 16626.1 944.512   4
   1  -6   7 16359.8 1149.42  13
  -1  -6  -7 15757.5 1166.46  11
  -1   6  -7 15781.1 1158.28   2
  -1   6  -7 17381.2 1205.54   5
   1   6   7 15995.5 1156.79   1
   1  -6   7 15299.1 931.779  17
  -1  -6  -8 7747.60 869.089  11
  -1   6  -8 7185.70 831.176   2
   1   6   8 7180.99 817.004   1
   1  -6   8 7004.20 679.140  17
   1  -6   8 7231.02 806.422  13
  -1   6  -8 7812.60 837.002   5
   1  -6   9 18802.6 1150.28  17
  -1  -6  -9 20754.7 1426.89  11
   1  -6   9 21109.7 1448.40  13
   1   6   9 21627.7 1453.42   1
  -1   6  -9 19520.0 1392.18   2
  -1   6  -9 20287.5 1341.00   5
   1   6  10 14651.9 1282.79   1
  -1   6 -10 15307.3 1186.43   5
   1  -6  10 14947.7 1279.80  13
  -1  -6 -10 14410.0 1244.07  11
  -1   6 -10 13213.3 1197.78   2
  -1  -6 -11 14324.4 1294.44  11
   1  -6  11 13615.8 1291.94  13
   1   6  11 12644.9 1233.90   1
  -1   6 -11 14178.3 1300.73   2
   1   6  12 3506.11 731.405   1
   1  -6  12 3476.97 690.628  13
  -1  -6 -12 3580.09 706.170  11
  -1   6 -12 2565.06 581.653   2
   1   6  13 3814.08 805.795   1
   1  -6  13 4311.99 722.823   3
   1  -6  13 3612.78 744.034  13
  -1  -6 -13 3606.51 730.228  11
  -1   6 -13 2663.93 650.214   2
   1   6  14 1951.62 684.074   1
  -1   6 -14 925.591 445.070   2
  -1  -6 -14 584.578 370.557   2
  -1  -6 -14 772.558 457.923  11
   1  -6  14 829.366 404.258  13
   1   6  15 3548.05 801.846   1
  -1  -6 -15 2393.64 627.631   2
  -1  -6 -15 1695.52 583.478  11
   1  -6  15 2863.26 673.969  14
  -1   6 -15 2058.86 577.539   2
   1  -6  15 2448.49 683.536  13
  -1   7  15 1113.04 509.536   1
   1  -7 -15 1469.04 536.055  11
   1   7 -15 567.965 441.845   2
  -1  -7  15 1775.58 595.343  13
   1   7 -14 7382.04 1084.42   2
  -1   7  14 7846.29 1123.84   1
  -1  -7  14 8794.76 1188.34  13
   1  -7 -14 8717.19 1119.81  11
   1   7 -13 448.455 369.220   2
  -1  -7  13 994.140 466.997  13
  -1   7  13 360.293 349.684   1
   1  -7 -13 68.0414 217.140  11
  -1   7  12 19913.3 1614.19   1
  -1  -7  12 21539.4 1499.49  17
  -1  -7  12 23088.1 1745.03  13
   1  -7 -12 22278.6 1659.90  11
   1   7 -12 19070.4 1580.69   2
   1   7 -11 392.994 250.607   5
   1  -7 -11 294.968 252.708  11
   1   7 -11 563.971 330.054   2
  -1   7  11 1040.85 508.158   1
  -1  -7  11-46.7547 190.429  17
  -1  -7  11 225.123 333.593  13
   1   7 -10 8668.90 944.516   5
  -1   7  10 6144.92 915.000   1
   1   7 -10 6223.22 880.354   2
  -1  -7  10 8177.47 859.466  17
  -1  -7  10 7396.25 915.705  13
   1  -7 -10 7810.72 919.563  11
   1  -7  -9 526.523 272.147  11
   1   7  -9 851.423 369.253   5
  -1  -7   9 606.619 248.666  17
  -1  -7   9 416.995 321.547  13
   1   7  -9 272.846 214.373   2
  -1   7   9 536.792 342.529   1
   1  -7  -8 188.875 148.516  10
  -1  -7   8 268.928 151.529  17
  -1  -7   8 300.239 284.620  13
   1  -7  -8 285.026 272.419  11
  -1   7   8 66.1159 343.700   1
   1   7  -8-46.7439 271.120   2
   1   7  -8 450.717 288.554   5
   1   7  -7 1105.91 407.432   5
   1  -7  -7 860.110 258.784  10
  -1  -7   7 614.208 228.555  17
  -1  -7   7 814.451 263.280  13
  -1   7   7 659.024 377.613   1
   1  -7  -7 1232.23 416.048  11
   1   7  -7 543.213 334.749   2
  -1   7   6 15687.3 1181.67   1
   1  -7  -6 14877.9 970.769  10
   1   7  -6 14267.1 1098.27   2
  -1  -7   6 16007.1 1012.98  17
  -1  -7   6 16095.6 1111.61  13
   1  -7  -6 16804.9 1191.76  11
   1   7  -6 15787.5 1199.98   5
  -1   7   6 14703.4 952.619   5
  -1   7   5 6495.00 658.771   5
   1  -7  -5 6875.88 766.464  11
  -1  -7   5 7234.22 719.219  13
  -1  -7   5 5906.14 674.715   4
   1   7  -5 6770.33 805.869   5
   1  -7  -5 6167.72 566.271   3
  -1   7   5 5968.58 753.598   1
  -1  -7   5 5986.96 608.442  17
   1  -7  -5 5563.03 601.452  10
   1   7  -5 6182.07 721.834   2
  -1  -7   4 94842.9 2310.14  17
   1   7  -4 87394.0 2691.32   5
   1  -7  -4 94460.3 2268.65  17
  -1   7   4 86798.4 2384.19   5
  -1   7   4 78971.3 2653.85   1
   1  -7  -4 93495.4 2685.39  11
   1   7  -4 88279.8 2563.59   2
  -1  -7   4 91419.2 2381.19  13
   1  -7  -4 87107.9 2286.79  10
  -1  -7   4 89743.1 2518.70   4
   1  -7  -4 88969.1 2191.88   3
  -1  -7   3 3315.03 524.484   4
   1  -7  -3 2827.13 382.754  17
  -1  -7   3 2611.58 393.639  17
   1  -7  -3 2782.59 433.021  10
   1  -7  -3 2454.17 446.082  11
   1  -7  -3 2488.52 409.098   3
  -1  -7   3 2384.73 405.252  13
  -1   7   3 1865.45 383.222   5
  -1  -7   3 2966.03 490.934  11
   1   7  -3 2301.33 503.880   5
  -1  -7   2 92571.1 2615.60  11
   1  -7  -2 88490.8 1990.78  17
  -1   7   2 91444.9 2466.84  16
  -1  -7   2 92194.6 2559.20   4
  -1  -7   2 89728.3 2183.32  17
   1  -7  -2 88830.6 2329.29   3
   1   7  -2 88455.4 2636.43   5
  -1  -7   2 88102.8 2147.81  13
  -1   7   2 92110.2 2536.29   5
   1  -7  -2 97874.3 2653.89  11
  -1   7   1 18106.4 1082.97  16
   1  -7  -1 17636.9 1137.05  11
   1  -7  -1 17896.9 1081.35   3
   1  -7  -1 17216.2 859.846  17
   1   7  -1 17147.0 1158.98   5
   1   7  -1 17540.0 1099.18  16
  -1  -7   1 18130.7 1149.15   4
  -1  -7   1 18038.0 922.931  13
  -1   7   1 18157.9 1183.46   5
  -1  -7   1 16861.0 1110.21  11
  -1  -7   1 17434.2 964.606  17
   1  -7   0 14826.5 1031.53  11
   1   7   0 14563.1 1020.91  16
  -1  -7   0 13831.0 788.975  13
   1  -7   0 14045.8 968.707   3
   1  -7   0 14177.9 752.999  17
  -1   7   0 13805.2 921.013  16
  -1  -7   0 13637.3 870.595  17
  -1  -7   0 13295.5 988.820  11
  -1   7   0 16191.1 1138.64   5
  -1  -7   0 14485.9 1033.77   4
   1   7   0 12433.1 994.799   5
   1  -7   1 13379.8 997.153  11
   1  -7   1 12891.8 936.301   4
  -1   7  -1 11743.1 983.990   5
  -1  -7  -1 10755.7 910.503   4
  -1   7  -1 12275.4 858.521  16
   1  -7   1 12210.5 710.483  13
  -1  -7  -1 11451.0 699.523  13
  -1  -7  -1 12652.8 966.951  11
   1  -7   1 11722.7 922.827   3
   1   7   1 13416.2 1001.01  16
  -1  -7  -1 10745.8 793.573  17
   1   7   1 12437.5 964.370   5
   1   7   2 2744.59 480.353  16
   1  -7   2 2288.81 383.946   4
   1   7   2 2437.09 484.153   5
   1  -7   2 1991.56 421.067  11
   1   7   2 1797.34 448.399   1
   1  -7   2 2120.66 418.625   3
  -1   7  -2 2073.20 517.449   5
   1  -7   2 2601.40 366.896  13
  -1  -7  -2 2148.17 398.046  17
  -1  -7  -2 1822.17 316.598   3
  -1  -7  -2 2595.46 473.698  11
   1  -7   3 17144.9 966.629  13
   1  -7   3 18800.8 1094.98   4
   1   7   3 18382.6 1133.04   5
   1   7   3 19165.0 1257.15  16
  -1  -7  -3 16560.1 909.048   3
  -1  -7  -3 18818.5 1093.82  17
  -1  -7  -3 19592.6 1238.79  11
  -1   7  -3 19102.9 1283.45   5
  -1   7  -3 18466.7 1118.12   2
   1   7   3 17344.6 1136.54   1
  -1   7  -4 14074.9 1011.66   2
  -1  -7  -4 13403.4 963.129  17
   1  -7   4 13656.4 923.548  13
  -1  -7  -4 11606.7 988.475  11
   1  -7   4 14205.8 952.967   4
   1   7   4 12360.2 936.286   5
   1   7   4 14158.5 1043.61   1
  -1   7  -4 14385.3 1156.67   5
  -1   7  -5 6869.80 844.285   5
   1   7   5 6150.42 656.248   5
   1   7   5 7710.68 805.657   1
   1  -7   5 6932.17 668.672   4
  -1  -7  -5 7657.24 856.027  11
  -1   7  -5 6162.49 714.984   2
  -1  -7  -5 7041.89 738.031  17
   1  -7   5 6212.96 661.552  13
   1  -7   6 41533.8 1790.59  13
   1  -7   6 39196.3 1568.37   4
   1   7   6 36814.8 1790.32   1
  -1  -7  -6 36570.8 1730.03  17
  -1  -7  -6 40429.2 1915.45  11
  -1   7  -6 37961.2 1792.17   2
  -1   7  -6 35890.6 1853.97   5
   1   7   6 39620.9 1581.77   5
   1  -7   7 5823.09 724.053  13
  -1   7  -7 6721.62 796.399   2
   1   7   7 5728.86 757.932   1
  -1   7  -7 5352.16 757.232   5
  -1  -7  -7 5300.48 751.404  11
   1  -7   8 31736.0 1740.61  13
  -1   7  -8 31744.4 1778.92   5
   1   7   8 31682.9 1774.30   1
  -1   7  -8 32656.1 1800.44   2
  -1  -7  -8 34288.3 1887.75  11
  -1  -7  -9 501.176 307.319  11
  -1   7  -9-281.257 299.745   5
   1  -7   9-408.379 261.606  13
   1   7   9 412.919 350.753   1
  -1   7  -9 417.431 267.687   2
   1  -7  10 3209.82 629.076  13
  -1   7 -10 4415.67 733.170   2
   1   7  10 4907.47 814.509   1
  -1  -7 -10 3800.46 691.848  11
  -1   7 -10 5155.91 761.427   5
   1  -7  11 841.282 377.133  13
  -1   7 -11 64.2286 276.445   5
  -1   7 -11 661.506 317.377   2
   1   7  11 506.331 297.660   1
  -1  -7 -11 656.943 401.568  11
   1  -7  12 1270.94 463.064  13
   1   7  12 1681.89 634.847   1
   1  -7  12 1190.52 435.565   3
  -1  -7 -12 1686.19 518.501  11
  -1   7 -12 1176.23 439.036   2
   1  -7  13 977.915 452.047   3
   1  -7  13 352.921 304.405  13
  -1  -7 -13 699.612 391.244  11
   1   7  13 354.825 464.294   1
  -1   7 -13 1010.20 437.553   2
  -1   7 -14 3875.23 802.827   2
   1   7  14 4618.72 915.625   1
  -1  -7 -14 4229.45 809.651   2
   1  -7  14 4710.56 896.061  13
  -1  -7 -14 4365.19 844.950  11
   1  -8 -14 225.634 299.878  11
  -1  -8  14 484.712 429.702  13
   1   8 -13 3666.78 766.548   2
   1  -8 -13 3331.77 754.928  11
  -1   8  13 3076.05 714.316   1
  -1  -8  13 2758.14 662.689  13
  -1  -8  12 213.255 259.444  13
   1   8 -12 36.4114 283.354   2
  -1   8  12-285.950 432.156   1
   1  -8 -12 772.820 399.616  11
   1   8 -11 7275.34 1008.48   2
  -1  -8  11 9356.53 1117.22  13
   1  -8 -11 8998.97 1078.27  11
   1   8 -11 7699.15 971.685   5
  -1   8  11 6297.17 962.873   1
  -1  -8  10 851.055 365.486  13
   1   8 -10 800.952 456.787   5
  -1   8  10-421.168 428.454   1
   1  -8 -10 814.623 386.815  11
   1   8 -10 610.743 299.011   2
  -1  -8   9 7376.21 908.786  13
   1   8  -9 5300.84 807.657   5
   1   8  -9 6404.35 869.654   2
  -1   8   9 5500.39 879.349   1
  -1  -8   9 6512.63 760.807   4
   1  -8  -9 6967.50 911.861  11
  -1  -8   8 482.486 277.203  13
  -1  -8   8 655.496 277.235   4
   1   8  -8 252.611 235.244   2
  -1   8   8 925.824 382.106   1
   1  -8  -8 848.119 363.711  11
   1   8  -8 189.514 337.823   5
   1   8  -7 18843.9 1393.09   2
   1  -8  -7 21107.0 1472.96  11
  -1  -8   7 19823.9 1312.18   4
  -1   8   7 21030.1 1472.88   1
  -1  -8   7 21642.3 1406.25  13
  -1  -8   7 19506.2 1221.46  17
   1   8  -7 20467.8 1506.83   5
  -1  -8   6 5434.40 718.383  13
  -1  -8   6 5764.36 652.853  17
  -1   8   6 5726.14 824.804   1
  -1  -8   6 6066.82 726.086   4
   1   8  -6 6609.35 795.458   2
   1  -8  -6 6879.60 846.549  11
   1   8  -6 6560.35 877.029   5
  -1  -8   5 37416.8 1767.93   4
  -1   8   5 37266.1 1905.94   1
  -1  -8   5 35077.0 1534.14  17
   1  -8  -5 37612.0 1884.48  11
  -1   8   5 37813.7 1710.07   5
   1  -8  -5 37885.1 1618.57  10
  -1  -8   5 38526.1 1704.77  13
   1   8  -5 35153.6 1885.62   5
  -1  -8   4 1229.89 376.744   4
  -1   8   4 1437.00 381.547   5
  -1   8   4 553.088 331.223   1
  -1  -8   4 1313.40 351.391  13
  -1  -8   4 1327.88 311.130  17
   1  -8  -4 1181.89 296.607   3
   1  -8  -4 1350.69 429.605  11
   1   8  -4 1335.58 504.027   5
   1  -8  -3 10112.9 977.172  11
  -1  -8   3 9694.30 797.508  13
  -1   8   3 8728.24 872.473   5
  -1  -8   3 11578.1 1044.97  11
  -1   8   3 10195.6 924.093  16
   1   8  -3 8807.52 970.552   5
  -1   8   3 9563.40 976.777   1
  -1  -8   3 9187.75 898.094   4
   1  -8  -3 9967.18 827.953   3
  -1  -8   3 9816.85 787.999  17
   1   8  -2 2331.72 516.790   5
  -1   8   2 4260.20 595.467  16
  -1  -8   2 3286.48 550.637   4
   1  -8  -2 3566.74 521.505   3
  -1  -8   2 3328.24 589.943  11
  -1   8   2 3968.33 619.544   5
  -1  -8   2 3885.76 488.093  13
   1  -8  -2 4362.41 645.807  11
  -1  -8   2 3373.46 466.946  17
  -1  -8   1 860.177 224.798  17
  -1  -8   1 1047.13 334.364  11
  -1   8   1 625.502 251.691  16
   1   8  -1 801.587 292.141  16
  -1   8   1 904.839 318.994   5
  -1  -8   1 1010.38 364.077   4
   1  -8  -1 1106.08 361.142  11
   1  -8  -1 1071.31 304.679   3
   1   8  -1 696.569 370.164   5
  -1   8   0 611.508 377.899   5
   1   8   0 360.188 283.632  16
   1  -8   0 288.653 201.576   3
  -1  -8   0 422.647 250.503   4
   1   8   0 181.932 320.973   5
  -1   8   0 418.582 238.287  16
   1  -8   0 99.3152 246.312  11
  -1  -8   0 96.8684 162.289  17
  -1  -8   0 963.529 359.215  11
  -1  -8  -1 29303.4 1609.36  11
  -1  -8  -1 29516.2 1389.52  17
  -1  -8  -1 27527.3 1357.57   3
   1   8   1 30955.1 1534.29   1
   1   8   1 27274.3 1546.66   5
   1  -8   1 29097.3 1551.41   3
   1   8   1 28884.4 1566.07  16
   1  -8   1 29652.6 1630.70  11
  -1   8  -1 26977.4 1602.58   5
   1   8   2-73.8653 234.498   1
   1   8   2 241.531 321.647   5
   1  -8   2 326.740 285.040   3
   1  -8   2 154.445 211.920  11
   1   8   2-260.635 289.523  16
   1  -8   2 80.7414 176.571   4
  -1   8  -2 945.730 459.643   5
  -1  -8  -2 248.247 273.193  11
  -1  -8  -2 257.170 211.664   3
  -1  -8  -2 90.3439 202.645  17
  -1   8  -3 69673.0 2624.07   5
   1  -8   3 70941.1 2316.38   4
   1  -8   3 69389.1 2502.02   3
   1   8   3 65983.7 2317.53   5
  -1  -8  -3 66351.3 2209.22  17
   1   8   3 70063.6 2393.96   1
   1   8   3 72146.8 2582.04  16
  -1  -8  -3 72928.9 2565.06  11
   1   8   4 31.9273 278.821   1
   1   8   4-127.603 298.370   5
  -1   8  -4 314.564 376.353   5
   1   8   4 354.777 296.659  16
   1  -8   4 296.399 188.365  13
  -1   8  -4 20.3572 193.348   2
   1  -8   4-123.596 227.129   4
  -1  -8  -4 73.7721 284.752  11
   1  -8   4 183.299 317.710   3
  -1  -8  -4-53.1379 198.771  17
   1  -8   5 21716.2 1272.98   4
  -1   8  -5 22038.7 1535.16   5
  -1  -8  -5 22140.7 1369.60  17
   1  -8   5 23026.1 1325.86  13
   1   8   5 21129.1 1295.50   5
  -1   8  -5 24183.7 1464.81   2
  -1  -8  -5 22220.1 1492.15  11
   1   8   5 20390.1 1380.14   1
  -1  -8  -6 913.223 415.160  11
   1  -8   6 45.2608 181.540  13
  -1   8  -6 165.850 335.977   5
  -1   8  -6-131.314 244.821   2
   1   8   6-115.875 354.403   1
  -1  -8  -6 213.132 194.445  17
  -1  -8  -7 3516.30 654.958  11
   1   8   7 4085.90 672.076   1
  -1   8  -7 3678.15 652.264   2
  -1   8  -7 3913.55 721.628   5
   1  -8   7 4401.56 656.315  13
  -1   8  -8 758.307 422.185   5
  -1  -8  -8 100.903 286.917  11
   1  -8   8 376.947 239.124  13
   1   8   8-184.134 352.115   1
  -1   8  -8 136.042 247.282   2
   1   8   9 1917.20 596.549   1
   1  -8   9 1789.11 487.585  13
   1  -8   9 1932.58 534.886   3
  -1   8  -9 2010.27 535.774   2
  -1  -8  -9 1463.81 466.235  11
  -1   8  -9 1811.26 574.203   5
   1  -8  10 379.711 335.653   3
  -1   8 -10-682.082 460.635   5
   1  -8  10-51.6959 284.986  13
   1   8  10 268.767 406.034   1
  -1   8 -10 289.628 285.930   2
  -1  -8 -10 489.727 385.576  11
   1  -8  11 4497.28 800.479   3
   1  -8  11 4126.97 751.501  13
  -1   8 -11 3689.32 722.323   2
  -1  -8 -11 5057.44 860.695  11
  -1   8 -11 3333.32 668.849   5
   1   8  11 4112.36 772.996   1
   1   8  12 207.315 426.054   1
   1  -8  12 532.036 336.171  13
  -1   8 -12 308.492 256.084   2
   1  -8  12 1278.50 464.498   3
  -1  -8 -12 476.658 351.608  11
   1   8  13 9310.49 1206.73   1
   1  -8  13 8296.42 1169.51  13
   1  -8  13 10932.3 1244.81   3
  -1   8 -13 8223.04 1126.54   2
  -1  -8 -13 10390.5 1283.64  11
  -1  -9  13 131.013 319.819  13
   1  -9 -12 7600.05 1072.95  11
  -1  -9  12 6850.74 1030.96  13
   1   9 -12 7659.74 1089.86   2
  -1   9  12 7051.87 1054.48   1
   1   9 -11 3142.44 679.083   5
   1  -9 -11 4344.24 807.922  11
  -1   9  11 3907.16 830.928   1
   1   9 -11 4976.42 852.138   2
  -1  -9  11 6498.05 969.745  13
   1   9 -10 9725.02 1163.32   5
  -1  -9  10 9782.19 1133.37  13
   1   9 -10 7522.03 1018.55   2
   1  -9 -10 9520.40 1133.82  11
  -1   9  10 9098.61 1180.89   1
  -1  -9   9 3653.95 676.883  13
   1   9  -9 2325.51 585.383   2
  -1   9   9 1423.67 510.692   1
   1  -9  -9 1772.18 532.164  11
   1   9  -9 2726.32 670.950   5
  -1  -9   8 1860.82 456.229   4
  -1  -9   8 1301.58 417.843  13
   1   9  -8 1674.35 485.528   2
   1  -9  -8 1515.90 514.858  11
  -1   9   8 1070.34 523.577   1
   1   9  -8 1620.01 552.652   5
   1  -9  -7 5524.81 805.581  11
   1   9  -7 6461.62 932.438   5
  -1  -9   7 6256.95 815.151  13
  -1  -9   7 6550.78 822.245   4
   1   9  -7 6347.12 877.081   2
  -1   9   7 4883.98 809.307   1
   1   9  -6 4971.91 831.707   5
  -1   9   6 4771.12 748.954   1
  -1  -9   6 4408.92 654.872  13
   1  -9  -6 5968.50 836.837  11
  -1  -9   6 5996.41 777.247   4
   1   9  -5 9012.86 1061.76   5
  -1   9   5 8550.04 977.292   1
  -1  -9   5 7756.29 809.592  13
  -1   9   5 9196.96 1010.83  16
   1  -9  -5 7320.59 904.240  11
  -1   9   5 7914.57 871.185   5
  -1  -9   5 8565.09 932.199   4
  -1   9   4 22433.4 1504.22  16
  -1   9   4 20032.8 1452.87   1
   1  -9  -4 24575.4 1607.74  11
   1   9  -4 23133.7 1650.48   5
  -1   9   4 22520.0 1452.05   5
  -1  -9   4 22668.2 1482.21   4
  -1   9   3 1304.31 381.712   5
  -1  -9   3 1406.08 415.129   4
  -1   9   3 95.8760 283.420   1
  -1  -9   3 2472.68 525.154  11
  -1   9   3 2068.39 491.618  16
   1  -9  -3 1397.74 468.942  11
   1   9  -3 1470.13 492.983   5
   1  -9  -3 1653.14 391.578   3
  -1   9   2 22801.3 1428.17  16
  -1   9   2 21524.4 1465.88   5
   1  -9  -2 22478.2 1518.87  11
  -1  -9   2 21195.0 1447.60   4
   1   9  -2 24603.6 1631.18   5
   1  -9  -2 21536.9 1351.88   3
  -1  -9   2 22756.1 1546.12  11
  -1   9   1 4533.83 722.009   5
   1  -9  -1 4015.50 670.926  11
  -1   9   1 3571.03 575.136  16
   1  -9  -1 3219.29 554.972   3
  -1  -9   1 3553.31 612.615   4
  -1  -9   1 3547.85 641.169  11
   1   9  -1 3221.94 634.395   5
   1   9   0 23743.5 1578.43   5
  -1  -9   0 24180.6 1325.15  17
  -1  -9   0 26857.1 1669.90  11
   1  -9   0 25426.7 1523.52   3
  -1   9   0 25667.8 1471.99  16
  -1  -9   0 25529.2 1470.55   3
  -1   9   0 27239.3 1702.27   5
   1  -9   0 30289.3 1762.51  11
   1   9   0 25799.9 1573.59  16
  -1  -9  -1-31.5408 160.375  17
   1   9   1 775.426 420.210   5
  -1   9  -1-510.310 416.784   5
   1   9   1 23.6809 225.644   1
   1  -9   1-37.1830 211.660   3
   1   9   1 46.0285 309.825  16
  -1  -9  -1-168.322 222.912   3
   1  -9   1 53.4039 248.184  11
  -1  -9  -1 187.601 248.258  11
   1   9   2 13042.4 1156.45   5
   1  -9   2 11341.7 1074.35   3
  -1  -9  -2 12216.2 970.195  17
   1   9   2 12106.1 1112.58  16
   1   9   2 9766.52 956.248   1
  -1  -9  -2 13983.1 1222.33  11
   1  -9   2 12571.0 1161.08  11
  -1   9  -2 11384.5 1138.97   5
  -1  -9  -3 909.176 368.798  11
   1   9   3 942.278 407.916   5
   1   9   3 540.015 319.894   1
  -1  -9  -3 1029.79 339.065  17
   1  -9   3 1328.60 382.205   4
   1  -9   3 432.304 312.052   3
   1   9   3 444.379 290.167  16
  -1   9  -3 644.811 350.959   5
  -1  -9  -4 1555.41 397.705  17
   1   9   4 1849.98 494.560   1
   1   9   4 1718.14 468.636   5
  -1   9  -4 1763.93 522.329   5
   1  -9   4 2493.43 572.574   3
   1  -9   4 1511.94 400.123   4
   1   9   4 2207.90 516.894  16
  -1  -9  -4 2234.65 531.562  11
  -1   9  -5 831.732 389.726   5
  -1  -9  -5 1455.27 468.881  11
   1   9   5 1359.20 436.518   5
   1  -9   5 1288.16 457.254   3
  -1   9  -5 1230.19 366.987   2
   1  -9   5 1185.57 344.094   4
   1   9   5 2696.53 577.125   1
   1   9   5 1514.21 446.295  16
  -1  -9  -5 1662.59 408.516  17
   1   9   6 7799.55 912.248   1
  -1   9  -6 6378.14 846.596   2
   1  -9   6 7531.85 958.263   3
   1   9   6 7298.60 970.555  16
  -1   9  -6 7828.08 1008.77   5
  -1  -9  -6 7072.72 931.918  11
   1  -9   7 464.041 365.167   3
  -1  -9  -7 169.239 303.742  11
  -1   9  -7 60.3282 308.628   5
   1   9   7 345.413 353.951   1
  -1   9  -7 371.089 295.364   2
   1  -9   8 15417.7 1415.68   3
  -1   9  -8 14405.8 1325.92   2
  -1   9  -8 14982.7 1399.22   5
   1   9   8 16573.5 1456.69   1
  -1  -9  -8 16532.1 1467.15  11
   1   9   9 1394.79 517.797   1
   1  -9   9 1521.38 436.026  13
  -1   9  -9 1985.69 544.865   5
   1  -9   9 1547.31 525.968   3
  -1  -9  -9 1093.85 464.229  11
  -1   9  -9 1755.61 505.229   2
  -1   9 -10 7769.18 1038.79   2
   1  -9  10 8539.10 1060.77  13
   1  -9  10 8924.01 1130.12   3
  -1   9 -10 7782.93 1071.87   5
  -1  -9 -10 8869.06 1126.03  11
   1   9  10 7668.25 1085.94   1
   1   9  11 920.633 469.189   1
  -1   9 -11 847.538 421.798   2
  -1  -9 -11 552.080 350.788  11
   1  -9  11 749.025 452.741   3
   1  -9  11 848.935 418.176  13
  -1   9 -11 405.328 357.469   5
  -1   9 -12 1155.40 451.953   2
   1  -9  12 1498.42 522.030  13
   1  10 -11 4228.70 853.837   5
   1  10 -11 3430.30 747.505   2
  -1 -10  11 4809.40 844.966  13
  -1 -10  10 795.301 394.969  13
   1  10 -10 756.304 419.199   2
   1  10 -10 918.997 457.461   5
  -1  10  10 730.197 501.550   1
   1 -10 -10 1253.44 517.109  11
   1  10  -9 6881.92 1040.76   5
   1 -10  -9 5286.85 879.023  11
   1  10  -9 5012.93 852.703   2
   1  10  -8 232.144 364.246   5
   1 -10  -8-204.208 366.640  11
  -1  10   8 449.777 358.317   1
   1  10  -7 8119.61 1094.28   5
  -1  10   7 7677.20 1002.58  16
  -1  10   7 7557.95 1042.30   1
  -1 -10   7 6805.17 877.990   4
   1 -10  -7 8583.02 1073.68  11
  -1 -10   6 1258.28 388.916   4
   1 -10  -6 2264.82 597.200  11
  -1  10   6 1556.13 524.726   1
   1  10  -6 2059.19 650.909   5
  -1  10   6 2426.81 607.667  16
  -1  10   5 6495.48 998.412   1
  -1 -10   5 10083.4 1065.64   4
  -1  10   5 9587.46 1019.83   5
   1  10  -5 8944.66 1133.48   5
  -1  10   5 10239.8 1110.76  16
   1 -10  -5 9559.66 1105.73  11
   1 -10  -4 1363.40 460.632  11
   1  10  -4 1660.75 563.109   5
  -1  10   4 1307.82 394.581  16
  -1  10   4 1536.30 475.087   5
  -1  10   4 907.084 451.058   1
  -1 -10   4 1070.71 405.311   4
  -1  10   3 4351.11 691.350  16
   1 -10  -3 5099.06 776.876  11
  -1  10   3 2948.80 625.930   1
  -1  10   3 5134.41 816.229   5
  -1 -10   3 5075.58 785.179  11
   1  10  -3 4287.21 819.800   5
  -1 -10   3 4486.23 729.217   4
  -1 -10   2-52.6054 279.250   4
  -1  10   2-531.551 420.130   1
  -1 -10   2 230.561 275.008   3
  -1  10   2 13.5756 318.033   5
   1 -10  -2 559.552 282.596   3
   1 -10  -2 103.972 287.507  11
   1  10  -2 112.411 363.135   5
  -1 -10   2 231.841 332.052  11
  -1  10   2 578.072 317.483  16
   1 -10  -1 9386.63 1083.64  11
   1 -10  -1 8579.35 930.309   3
  -1 -10   1 9237.41 1074.74  11
  -1  10   1 7929.92 994.918   5
  -1  10   1 9469.76 971.268  16
  -1 -10   1 9640.74 994.575   3
   1  10  -1 9187.38 1106.81   5
   1  10   0 3287.61 672.167   5
  -1 -10   0 3637.90 699.029  11
   1  10   0 1581.14 478.191   1
   1 -10   0 3051.02 636.651  11
   1 -10   0 2305.97 533.246   3
  -1 -10   0 3242.53 585.853   3
   1  10   0 3172.04 608.951  16
  -1  10   0 2927.54 693.899   5
   1 -10   1 25672.6 1750.04  11
   1 -10   1 23917.7 1607.00   3
   1  10   1 19690.0 1423.09   1
   1  10   1 26190.0 1709.06  16
  -1  10  -1 23328.3 1721.62   5
  -1 -10  -1 26922.0 1801.31  11
   1  10   1 26812.1 1777.79   5
   1  10   2 844.613 403.364   5
   1 -10   2 601.832 365.039   3
   1  10   2 228.143 307.861   1
   1  10   2 474.225 351.842  16
  -1  10  -2-74.7615 421.716   5
  -1 -10  -2 137.747 248.542  11
   1  10   3 7760.83 942.762   1
  -1  10  -3 9154.77 1092.75   5
   1 -10   3 9788.47 1083.18   3
  -1 -10  -3 11486.0 1193.80  11
   1  10   3 9417.79 1064.02   5
   1  10   3 9530.06 1080.07  16
   1  10   4 1883.61 514.670   5
  -1 -10  -4 2427.66 571.188  11
  -1  10  -4 1009.01 466.304   5
   1  10   4 1671.18 533.762  16
   1  10   4 2467.80 580.432   1
   1 -10   4 1201.67 480.163   3
   1  10   5-121.915 313.471   1
  -1  10  -5 931.524 490.846   5
   1  10   5 219.274 286.455  16
  -1 -10  -5-23.5472 325.087  11
   1 -10   5 219.196 262.818   3
   1  10   6 938.369 485.328   1
  -1  10  -6 11.8685 333.522   5
  -1 -10  -6 621.877 365.645  11
   1  10   6 845.731 375.701  16
   1 -10   6 1496.47 539.725   3
   1  10   7 2329.97 627.820   1
  -1 -10  -7 4739.77 823.281  11
   1  10   7 4226.68 827.732  16
   1 -10   7 5233.88 881.916   3
  -1  10  -7 3878.47 736.850   2
  -1  10  -7 3707.94 802.933   5
  -1 -10  -8 11.2272 296.306  11
   1  10   8 1358.80 551.392  16
  -1  10  -8 8.30203 381.383   5
  -1  10  -8 400.580 361.559   2
   1  10   8-31.4821 297.965   1
   1 -10   8 592.957 368.648   3
  -1  10  -9 12522.0 1324.45   2
   1 -10   9 13416.8 1439.84   3
   1  10   9 11063.5 1279.50   1
   1  10   9 15680.0 1564.29  16
  -1  10  -9 14016.3 1457.23   5
  -1 -10  -9 14326.6 1471.32  11
  -1  10 -10-473.025 425.706   5
   1  10  10 195.323 290.744   1
  -1  10 -10 11.6775 274.604   2
   1 -10  10 559.475 474.683   3
   1 -11  -8 7577.91 1062.04  11
  -1  11   8 5786.88 973.234  16
  -1  11   8 6096.12 979.705   1
   1  11  -8 6264.13 1049.17   5
  -1 -11   8 6946.66 1052.63   3
   1  11  -7 68.8249 475.343   5
   1 -11  -7 129.504 355.192  11
  -1  11   7 154.108 360.222   1
  -1  11   7 284.334 340.059  16
  -1 -11   7-308.100 303.895   3
  -1 -11   6 8269.24 1109.27   3
  -1 -11   6 7338.80 971.948   4
  -1  11   6 8070.81 1078.84  16
   1  11  -6 8433.17 1187.11   5
  -1  11   6 5779.73 941.201   1
   1 -11  -6 9745.60 1195.06  11
  -1 -11   5-335.641 353.196   4
   1  11  -5 110.152 420.086   5
   1 -11  -5-157.694 258.675  11
  -1  11   5 282.832 260.590   1
  -1 -11   5 280.293 288.691   3
  -1  11   5 123.387 226.022  16
  -1 -11   4 3503.56 713.483   4
   1  11  -4 3655.14 835.458   5
  -1  11   4 2539.97 609.279  16
   1 -11  -4 2919.73 683.820  11
  -1  11   4 2254.81 626.321   1
  -1  11   4 2551.95 608.472   5
  -1 -11   4 3057.37 670.615   3
  -1  11   3-491.107 391.938   1
   1  11  -3 461.473 438.943   5
  -1  11   3-52.9761 308.460   5
  -1  11   3-326.272 241.029  16
   1 -11  -3-302.837 358.620  11
  -1 -11   3 59.2809 226.846   3
  -1  11   2-178.165 359.921   1
  -1  11   2 334.966 269.709  16
   1 -11  -2 464.990 339.413  11
  -1  11   2 677.392 434.849   5
  -1 -11   2 631.073 404.621  11
  -1 -11   2 675.269 382.173   3
   1  11  -2 596.969 379.151   5
   1 -11  -1 190.088 329.442  11
  -1  11   1 227.956 376.859   5
  -1 -11   1 765.035 357.596  11
  -1 -11   1 29.6414 246.359   3
   1 -11  -1 633.249 315.555   3
   1  11  -1 258.370 403.340   5
  -1  11   0 4820.08 849.841   5
   1  11   0 3106.06 716.910   5
  -1 -11   0 5302.08 902.611  11
   1 -11   0 5125.02 843.172  11
   1 -11   0 4721.92 763.986   3
  -1 -11  -1 351.199 328.766  11
  -1  11  -1-345.524 468.385   5
   1 -11   1 816.706 362.542   3
   1 -11   1 1078.19 495.031  11
   1  11   1 560.602 520.290   5
   1  11   1 192.883 299.822  16
   1  11   1 15.2887 279.201   1
  -1 -11  -2 17170.6 1518.44  11
  -1  11  -2 15324.5 1497.14   5
   1  11   2 16803.6 1483.33  16
   1  11   2 15121.4 1456.18   5
   1 -11   2 17810.3 1505.45   3
  -1 -11  -3 151.488 282.883  11
   1  11   3 24.8849 290.519  16
   1  11   3-115.406 334.568   1
   1  11   3 182.816 297.849   5
   1 -11   3-215.449 324.642   3
  -1  11  -3-4.99360 410.510   5
   1  11   4 8759.56 1112.17  16
   1  11   4 5784.04 888.779   1
  -1  11  -4 9313.93 1224.47   5
   1 -11   4 8715.13 1107.98   3
   1  11   4 7270.03 998.523   5
  -1 -11  -4 9336.29 1151.34  11
   1  11   5 215.519 308.618   1
  -1  11  -5-412.958 474.943   5
  -1 -11  -5 97.6407 254.618  11
   1  11   5-310.236 355.237  16
   1 -11   5-67.2268 229.108   3
  -1 -11  -6 4898.91 853.990  11
   1 -11   6 3792.95 787.817   3
  -1  11  -6 2911.73 781.451   5
   1  11   6 5126.86 907.626  16
   1  11   6 2888.01 631.874   1
  -1 -11  -7 8.55696 303.588  11
   1 -11   7 902.595 450.836   3
   1  11   7 534.274 388.332   1
  -1  11  -7 552.335 415.660   5
   1  11   7 702.068 447.701  16
   1  11   8 2685.30 669.962   1
  -1  12   5 8241.89 1106.67  16
  -1  12   5 5333.41 925.067   1
  -1 -12   5 8277.25 1117.81   3
  -1  12   4-214.573 226.266  16
  -1  12   4-541.428 368.781   1
   1  12  -4 388.335 469.767   5
   1 -12  -4-447.231 311.990  11
  -1 -12   4 73.6316 216.628   3
   1  12  -3 8643.68 1215.76   5
  -1  12   3 8151.54 1056.71  16
   1 -12  -3 10149.0 1253.60  11
  -1  12   3 9611.17 1212.12   5
  -1 -12   3 9179.74 1145.90   3
  -1  12   2-199.103 374.589   1
   1  12  -2 805.731 442.189   5
   1 -12  -2 620.305 364.572  11
  -1  12   2 347.750 385.941   5
  -1 -12   2 27.8748 233.453   3
  -1  12   1 2647.50 690.759   5
   1  12  -1 3291.03 769.214   5
   1 -12  -1 3503.07 763.897  11
  -1 -12   1 2353.39 612.012  11
  -1  12   0 522.369 514.682   5
   1  12   0 462.769 433.174   5
  -1 -12   0 49.5745 315.126  11
   1 -12   0-390.903 321.638  11
   1 -12   0 161.796 263.758   3
  -1 -12  -1 2529.25 690.236  11
  -1  12  -1 2287.34 645.822   5
   1 -12   1 1881.26 536.089   3
   1  12   1 1299.19 491.111   5
   1  12   2 343.758 290.531   5
  -1 -12  -2 1720.67 578.848  11
   1 -12   2 816.550 430.244   3
  -1  12  -2 1352.02 642.093   5
  -1 -12  -3 2480.53 653.056  11
  -1  12  -3 2117.05 662.955   5
   1 -12   3 2391.96 600.611   3
   1  12   3 1375.87 521.893   5
   1  12   3 2435.52 622.041  16
   1  12   4-139.825 333.592  16
   1 -12   4-308.227 326.535   3
   2   0 -18 6450.97 954.486   2
  -2   0  18 7767.32 1095.38   1
  -2   0  18 8643.97 1138.11  15
  -2   0  17-157.630 250.618  15
   2   0 -17-433.671 356.084   2
  -2   0  17 291.875 373.570   1
  -2   0  16 46114.6 2330.85   1
   2   0 -16 44060.2 2288.85   2
  -2   0  16 43839.9 2337.00  13
   2   0 -15 2.45201 243.936   2
  -2   0  15 508.950 339.510   6
  -2   0  15 108.851 255.289  13
  -2   0  15-47.8218 276.533   1
   2   0 -14 13503.4 1167.04   2
  -2   0  14 14891.0 1134.05   6
  -2   0  14 13995.7 1214.78  13
  -2   0  14 15031.1 1198.79   1
  -2   0  13 285.736 230.866   6
  -2   0  13-231.361 354.357   1
  -2   0  13-84.9482 200.334  13
   2   0 -13-347.160 270.641   2
   2   0 -13-118.931 221.944   9
   2   0 -12 758.846 244.119   2
   2   0 -12 607.129 267.217   9
  -2   0  12 723.254 297.421   6
  -2   0  12 986.043 312.762  13
  -2   0  12 1061.40 413.397   1
  -2   0  11 68.5402 126.338  14
   2   0 -11 27.5967 167.385   2
   2   0 -11-284.679 241.880   9
  -2   0  11-161.412 251.911   1
  -2   0  11-74.7828 156.254  13
  -2   0  11-327.684 255.400   6
   2   0 -10 45546.8 1670.23   2
  -2   0  10 46538.3 1661.40   6
  -2   0  10 46491.4 1695.61   1
   2   0 -10 47253.3 1560.86   9
  -2   0  10 44713.0 1695.83  13
  -2   0   9 229.703 258.973   1
   2   0  -9-119.881 207.023   9
  -2   0   9 51.4606 174.113   6
  -2   0   9 480.357 185.955  13
   2   0  -9 16.8299 131.449   2
  -2   0   8 141540. 2583.48  13
  -2   0   8 137604. 2475.93   1
   2   0  -8 133942. 1309.04  12
   2   0  -8 143078. 2450.07   9
   2   0  -8 140245. 2533.22   2
  -2   0   7 331.593 218.849   1
   2   0  -7 109.427 154.292   9
   2   0  -7 144.315 145.807   2
   2   0  -7 110.458 45.6037  12
  -2   0   7 93.6050 135.101  13
   2   0  -6 110389. 1858.34   2
  -2   0   6 105644. 1812.71   1
  -2   0   6 110915. 1914.38  13
   2   0  -6 111876. 1922.17   9
  -2   0   5 21.5924 86.4740  13
   2   0  -5 42.6649 96.6229   7
   2   0  -5 30.8474 102.562   9
  -2   0   5 54.2203 117.688   1
   2   0  -5-4.43730 84.1196   2
   2   0  -4 424473. 2822.64   2
   2   0  -4 417725. 3074.51   7
  -2   0   4 411920. 2769.87   1
   2   0  -3 134.837 66.4328   2
   2   0  -3 47.8091 115.460   9
  -2   0   3 138.843 80.8638  13
  -2   0   3 357.592 93.3697   1
   2   0  -3 169.037 86.2149   7
   2   0  -2 91765.0 1151.13  10
   2   0  -2 87821.3 1202.64   9
  -2   0   2 89814.4 1083.91  13
  -2   0   2 86211.4 1197.46   6
  -2   0   2 92493.2 1126.52  17
   2   0  -2 92952.9 1238.27   7
   2   0  -1 140.023 90.9316   3
  -2   0   1-12.5573 52.7494  17
   2   0  -1 60.6657 63.5379  14
  -2   0   1 48.4380 52.4167   6
   2   0  -1 56.3477 51.7629  10
  -2   0   1 85.9784 59.7368  12
   2   0  -1 128.308 93.5092   7
   2   0  -1 3.42014 62.7370   9
   2   0   0 2157.26 152.393  10
  -2   0   0 2328.76 169.261  17
   2   0   0 1630.19 173.197  14
   2   0   0 2017.23 168.765   3
  -2   0   0 2314.73 198.964  12
   2   0   0 1782.33 166.628   7
   2   0   0 2175.29 158.498   1
  -2   0   0 2371.74 190.791   8
   2   0   1 381.639 111.324   7
   2   0   1 93.9500 69.3011   3
   2   0   1 166.299 104.338  14
   2   0   1 421.998 117.391   1
  -2   0  -1 274.131 94.6747  17
  -2   0  -1 183.469 88.4740  12
   2   0   2 92655.6 1109.98   3
   2   0   2 89888.6 1112.71  15
   2   0   2 94965.8 1431.50   1
  -2   0  -2 89133.1 1451.01  12
  -2   0  -2 89160.4 1372.34  17
   2   0   2 86885.7 1445.82  14
   2   0   3-120.334 133.781  14
   2   0   3 16.8664 56.6119   3
  -2   0  -3 127.506 126.315  12
   2   0   3 65.1060 70.8666  15
   2   0   3-162.033 125.964   1
   2   0   4 189588. 1791.26   3
   2   0   4 195074. 2609.63   1
  -2   0  -4 185325. 2440.40  12
   2   0   4 184343. 2182.42  15
   2   0   4 188093. 2543.24  14
   2   0   5 12.7147 73.4806   3
   2   0   5 184.916 150.170  14
   2   0   5-58.1118 207.409   1
   2   0   5 21.9413 89.3249  15
  -2   0  -5 126.005 151.963  12
  -2   0  -6 46471.4 1393.00  12
  -2   0  -6 48032.8 923.422   9
   2   0   6 44942.8 1455.74  14
   2   0   6 46605.9 1331.83  15
   2   0   6 48278.4 1018.48   3
  -2   0  -6 46259.0 1536.41   2
   2   0   6 44730.8 1549.11   1
  -2   0  -7 117.210 149.983  12
   2   0   7 15.4478 90.2131   3
  -2   0  -7 16.2899 183.554   2
   2   0   7 44.6045 136.758  14
  -2   0  -7 144.909 103.327   9
   2   0   7-197.714 157.687  15
   2   0   8 27723.0 1350.65   1
  -2   0  -8 25444.1 1139.03  12
   2   0   8 26232.9 1248.29  14
   2   0   8 24983.0 1160.47  15
  -2   0  -8 26239.3 1325.05   2
  -2   0  -9 140.322 185.967  12
   2   0   9 111.784 138.298  15
   2   0   9 325.401 208.456  14
  -2   0  -9-61.8878 251.151   2
   2   0  10 74390.3 2252.90  15
  -2   0 -10 74673.6 2127.05  12
   2   0  10 73674.7 2292.16  14
  -2   0 -10 75851.4 2541.61   2
   2   0  10 70376.3 2533.46   1
   2   0  11 840.139 440.780   1
  -2   0 -11-105.924 191.540  12
  -2   0 -11 261.072 246.247   2
   2   0  11 330.090 272.779  15
   2   0  11 153.635 218.071  14
  -2   0 -12 8520.89 951.765   2
   2   0  12 8125.11 862.709  14
   2   0  12 8598.29 871.463  15
   2   0  12 6938.55 1098.51   1
   2   0  13 282.292 332.007   1
  -2   0 -13-279.694 336.316   2
   2   0  13 107.472 169.461  15
   2   0  13 255.124 241.656  14
  -2   0 -14 640.097 346.824   2
   2   0  14 830.422 335.917  15
   2   0  14 924.093 412.119   1
  -2   0 -15-218.395 326.663   2
   2   0  15-103.098 278.324   1
   2   0  16 11116.1 1351.16   1
  -2   0 -16 10458.1 1264.62   2
   2  -1 -18 195.992 293.592  10
  -2  -1  18-169.018 283.538   1
  -2   1  18-98.9366 335.431  15
   2  -1 -18 716.334 445.936   2
   2   1 -18 94.7018 219.815   2
  -2   1  18-126.945 297.329   1
  -2  -1  17 9572.52 1088.98  18
  -2   1  17 8412.39 1103.88  15
   2  -1 -17 8547.85 1064.21   2
   2   1 -17 8501.59 1075.76   2
  -2  -1  17 10428.0 1214.20  13
   2  -1 -17 8569.00 1063.50  10
  -2  -1  17 9419.39 1140.62   1
  -2   1  17 5810.16 1070.20   1
  -2   1  16 704.013 427.733  15
   2   1 -16 225.977 237.218   2
  -2  -1  16 442.225 363.171   1
   2  -1 -16 442.783 280.768   2
  -2  -1  16 839.094 400.647  18
  -2  -1  16 671.484 406.761  13
  -2   1  16 120.419 295.433   1
  -2   1  15 6436.26 875.930   1
  -2  -1  15 8292.66 985.492   1
   2   1 -15 8032.31 979.123   2
   2  -1 -15 7545.04 918.941   2
  -2   1  15 7938.62 883.005   6
  -2   1  15 7894.66 983.605  15
  -2  -1  15 7836.27 895.170  18
  -2  -1  15 8439.22 1020.42  13
  -2  -1  14 347.159 235.048  18
  -2  -1  14 583.994 370.440   1
  -2   1  14 46.3212 232.204  13
   2  -1 -14 295.071 263.796   2
   2   1 -14 143.205 262.206   2
  -2   1  14 466.039 290.301   6
  -2   1  14 1038.43 480.731   1
   2   1 -14 110.390 189.495   9
  -2  -1  14 186.044 177.034   6
  -2  -1  14-117.197 239.807  13
   2  -1 -13 1388.73 384.828   2
  -2  -1  13 1355.46 483.709   1
  -2  -1  13 1311.41 354.991   6
  -2   1  13 1667.08 369.542   6
  -2   1  13 1969.26 460.117  13
  -2  -1  13 2037.13 483.261  13
   2   1 -13 1594.40 426.305   2
   2   1 -13 993.829 313.733   9
  -2   1  13 1710.49 478.460   1
   2  -1 -12 5879.04 703.867   2
  -2  -1  12 5547.87 724.058  13
   2  -1 -12 5714.31 598.267   9
   2   1 -12 4771.72 582.423   9
  -2   1  12 4736.07 690.702   1
  -2  -1  12 6136.80 663.635   6
  -2   1  12 4889.03 608.555  13
   2   1 -12 4597.50 635.239   2
  -2  -1  12 5536.32 693.182   1
  -2   1  11 45148.9 1814.26   1
   2  -1 -11 42844.6 1720.21   2
   2   1 -11 43458.3 1789.67   2
   2   1 -11 45873.7 1659.36   9
  -2  -1  11 39630.4 1684.03   1
   2  -1 -11 43655.6 1558.42   9
  -2   1  11 46194.3 1777.59  13
  -2  -1  11 45682.3 1893.79  13
  -2  -1  11 46399.1 1702.45   6
  -2  -1  10 2256.25 427.758   1
   2   1 -10 2794.71 433.669   9
   2   1 -10 3840.95 516.529   2
   2  -1 -10 2221.16 351.852   9
   2  -1 -10 3234.87 447.166   2
  -2   1  10 3080.25 519.825   1
  -2  -1  10 2980.29 428.823   6
  -2  -1  10 2689.60 459.126  13
  -2   1  10 2682.34 418.982  13
  -2   1   9 118902. 2566.81   1
  -2   1   9 118132. 1819.34  14
   2   1  -9 119139. 2432.75   9
   2  -1  -9 119000. 2342.63   9
   2   1  -9 113111. 1490.79  12
  -2   1   9 118457. 2457.18  13
   2   1  -9 115696. 2552.12   2
  -2  -1   9 116015. 2431.95   1
   2  -1  -9 118563. 2464.97   2
  -2  -1   9 122332. 2485.44   6
  -2  -1   9 115513. 2631.48  13
   2  -1  -8 3441.80 225.104  12
   2   1  -8 3318.12 248.059   5
  -2   1   8 3283.99 466.475   1
   2   1  -8 3661.28 437.470   2
  -2  -1   8 2945.07 389.171   6
   2  -1  -8 3426.26 397.023   2
   2   1  -8 3532.92 444.353   9
   2   1  -8 3844.68 256.377  12
  -2  -1   8 3278.45 431.803  13
   2  -1  -8 2977.32 368.869   9
  -2   1   8 3341.33 284.262  14
  -2  -1   8 2689.86 402.629   1
  -2   1   8 3513.53 390.229  13
  -2  -1   7 31679.1 1060.94   1
   2  -1  -7 32679.0 1103.84   9
   2  -1  -7 32084.3 1077.26   2
  -2   1   7 33214.1 1096.45  13
   2   1  -7 32846.8 1171.33   2
  -2  -1   7 33935.5 1180.31   6
  -2   1   7 32451.0 1173.70   1
   2   1  -7 35171.6 1183.93   9
  -2   1   7 30943.8 753.849  14
   2   1  -7 32322.3 756.395   5
  -2  -1   7 33489.9 1226.36  13
  -2  -1   6 111620. 1801.65   1
  -2   1   6 114550. 1815.49  13
  -2   1   6 112497. 1966.02   1
   2   1  -6 115545. 1624.40   7
   2  -1  -6 116079. 1823.24   2
   2   1  -6 113013. 1407.64   5
   2  -1  -6 115790. 1939.01   9
  -2  -1   6 117407. 2013.85   6
  -2   1   6 115604. 1238.58  14
   2   1  -6 115710. 2025.55   2
  -2  -1   6 115506. 2079.65  13
  -2  -1   5 18051.1 656.814   1
  -2  -1   5 20070.9 787.754   6
   2  -1  -5 20093.2 762.053   9
  -2  -1   5 19156.8 647.366  18
  -2   1   5 19920.3 667.077  13
  -2  -1   5 20723.7 805.615  13
   2   1  -5 20210.2 769.309   2
   2   1  -5 19284.6 578.268   5
   2  -1  -5 19193.4 661.012   2
   2   1  -5 20035.2 639.695   7
  -2   1   5 19202.1 758.808   1
   2   1  -4 13299.4 498.535   7
  -2  -1   4 12851.5 587.378  13
   2  -1  -4 13319.1 584.032   9
  -2  -1   4 13341.6 465.017  18
  -2  -1   4 10775.9 442.277   1
   2   1  -4 13091.0 558.819   2
  -2   1   4 13921.5 574.674   1
  -2  -1   4 13620.9 604.859   6
  -2   1   4 12973.6 460.108  13
   2  -1  -4 12982.8 448.349   2
   2  -1  -4 12971.3 597.439  10
   2   1  -4 13193.0 482.888   5
   2  -1  -3 264502. 2477.44   7
   2   1  -3 265878. 2130.34   7
  -2  -1   3 253805. 2380.95  17
  -2   1   3 268769. 1703.87  13
  -2   1   3 260339. 2255.56   1
   2   1  -3 259216. 2217.71   2
  -2  -1   3 256140. 2373.96  13
   2  -1  -3 269951. 1527.66   2
  -2  -1   3 270402. 2415.51   6
   2  -1  -3 263433. 2193.22   3
   2   1  -3 267842. 2112.50   5
  -2  -1   3 260208. 1533.52   1
   2  -1  -3 263198. 2414.79  10
   2  -1  -2 266256. 2233.84  10
   2  -1  -2 265274. 2165.96   3
  -2  -1   2 270084. 1794.01  12
   2  -1  -2 271669. 1617.59  11
  -2  -1   2 268003. 2226.98  13
   2   1  -2 274686. 2131.44   7
   2  -1  -2 260994. 2302.85   7
  -2  -1   2 261245. 2179.23   6
  -2  -1   2 257067. 2178.11  17
   2   1  -2 280370. 2174.74   5
   2   1  -2 274113. 2040.10   2
   2  -1  -1 325733. 2374.73  10
   2  -1  -1 347920. 1960.54  14
   2   1  -1 342702. 2404.88   7
  -2  -1   1 340895. 2235.86  12
   2  -1  -1 336414. 2431.77   3
  -2  -1   1 326682. 2347.77  17
   2  -1  -1 329927. 2376.49   7
   2   1  -1 349868. 2469.31   5
  -2  -1   1 337142. 1745.27  11
  -2  -1   1 327501. 2261.74   6
   2   1   0 60329.5 738.440   1
   2  -1   0 60936.8 938.671   7
  -2   1   0 60834.1 768.175   2
  -2  -1   0 60237.9 842.582  11
   2   1   0 59532.3 1042.70   5
   2  -1   0 57655.8 989.490  14
  -2  -1   0 59107.7 1050.24  12
   2  -1   0 61907.1 920.889  18
  -2  -1   0 59489.8 1037.47  17
   2   1   0 59795.4 959.234  16
   2   1   0 58718.5 1039.78  14
   2  -1   0 61102.6 1066.51   3
  -2   1   0 59848.0 1046.36   8
  -2  -1   0 62676.1 805.950   8
   2  -1   0 58098.2 1015.79  10
  -2  -1  -1 225884. 2196.33  17
   2   1   1 235164. 1907.44   1
  -2  -1  -1 222793. 1794.68   4
   2  -1   1 233036. 1731.83   7
  -2   1  -1 231198. 2235.37   8
  -2  -1  -1 224297. 2230.38  12
   2  -1   1 235483. 2244.04  14
  -2   1  -1 228896. 1939.45   2
   2   1   1 231949. 2178.56  14
   2  -1   1 239029. 2159.57   3
   2  -1   1 242424. 2102.70  18
   2   1   2 21742.6 722.696  14
   2   1   2 21145.8 687.271   1
  -2  -1  -2 21117.6 587.636   4
  -2   1  -2 20567.4 688.830   2
   2  -1   2 20756.1 763.705  14
   2  -1   2 19690.8 510.257   7
  -2  -1  -2 20815.6 730.611  12
   2  -1   2 22670.2 696.043   3
  -2  -1  -2 20907.0 740.282  17
   2  -1   2 22222.0 740.901   1
   2  -1   3 370995. 3384.96   1
   2  -1   3 366187. 2142.39   7
   2   1   3 355263. 3030.39  15
   2  -1   3 382742. 2964.94   3
  -2  -1  -3 353749. 3351.84  17
   2   1   3 362466. 3209.04  14
  -2  -1  -3 370842. 3287.46  12
   2   1   3 378391. 3281.88   1
  -2   1  -3 371473. 3295.03   2
   2  -1   3 369741. 3456.42  14
   2  -1   4 70918.4 796.779   6
   2  -1   4 72507.8 1371.40   3
   2   1   4 73096.1 1617.52   1
   2   1   4 71695.4 1530.44  14
  -2   1  -4 70320.8 1593.66   2
  -2  -1  -4 72245.6 1540.41  12
   2  -1   4 71778.0 1658.44  14
   2  -1   4 70355.2 1664.96  13
   2   1   4 71122.6 1487.35  15
   2  -1   4 74537.4 1646.30   1
  -2   1  -4 71038.9 1556.70  12
   2  -1   4 68642.2 982.511   7
   2   1   5 14793.0 751.240  14
   2  -1   5 15006.8 484.579   7
  -2  -1  -5 14768.0 754.364  12
   2  -1   5 16159.1 683.022   3
  -2   1  -5 14564.0 802.707   2
   2   1   5 14553.6 737.607  15
   2  -1   5 14925.4 812.307   1
   2  -1   5 16222.7 463.516   6
   2  -1   5 15950.4 871.500  13
   2  -1   5 14843.8 821.134  14
  -2   1  -5 15810.8 791.024  12
   2   1   5 17308.7 869.611   1
   2  -1   6 3385.45 428.493  14
   2  -1   6 3550.80 251.270   6
   2   1   6 2240.09 380.361   1
   2   1   6 2879.86 359.759  15
   2   1   6 2432.83 149.572   3
  -2   1  -6 2993.11 397.969   2
  -2   1  -6 2650.46 351.237  12
   2  -1   6 3180.49 426.132  13
   2  -1   6 2898.21 317.816   3
   2   1   6 2895.00 374.556  14
  -2  -1  -6 2461.41 345.691  12
   2  -1   6 3117.48 450.456   1
   2   1   7 533.817 205.374  14
   2   1   7 523.004 291.004   1
   2  -1   7 723.433 243.494  14
   2  -1   7 918.477 320.657   1
   2  -1   7 797.307 146.127   6
  -2   1  -7 428.655 235.548   2
  -2   1  -7 458.253 166.753   5
  -2   1  -7 282.949 185.178  12
   2  -1   7 450.812 160.094   3
   2   1   7 572.746 221.246  15
  -2  -1  -7 481.263 197.542  12
   2   1   8 20909.9 1106.29  15
   2  -1   8 20209.6 1138.39  14
   2   1   8 21814.6 1235.37   1
   2  -1   8 23766.2 1260.29   1
   2   1   8 20021.1 1054.72  14
   2  -1   8 20040.1 860.659   3
  -2  -1  -8 21621.6 1058.89  12
  -2   1  -8 21029.6 1216.22   2
  -2   1  -8 21404.3 914.355   5
  -2   1  -8 19878.9 1020.43  12
  -2  -1  -8 23093.1 1251.95   2
  -2  -1  -9 73630.3 2373.89   2
   2  -1   9 70323.8 2215.80  14
   2   1   9 70919.8 2156.11  15
   2   1   9 73226.1 2340.57   1
  -2  -1  -9 72654.9 2017.62  12
   2   1   9 72320.8 2099.22  14
  -2   1  -9 72784.8 2050.17  12
  -2   1  -9 73038.9 2360.66   2
   2  -1   9 71766.1 2344.74   1
   2  -1  10 2040.84 429.876  14
   2   1  10 1132.08 323.755  15
  -2  -1 -10 632.452 325.540   2
   2  -1  10 1729.20 456.367   1
   2   1  10 1146.19 316.168  14
   2   1  10 289.182 339.928   1
  -2   1 -10 249.608 250.736   2
  -2  -1 -10 1916.98 359.582  12
  -2   1 -10 1738.92 371.382  12
   2   1  11 61053.0 2129.64  14
  -2   1 -11 57616.6 1974.11  12
   2  -1  11 58584.4 2217.25  14
   2  -1  11 62136.6 2146.50  15
   2  -1  11 61094.5 2367.38   1
   2   1  11 59549.1 2222.35  15
  -2  -1 -11 59268.6 1993.62  12
  -2  -1 -11 62907.7 2444.25   2
   2   1  11 59800.1 2348.59   1
  -2   1 -11 54098.1 2302.25   2
   2   1  12 790.616 458.783   1
   2  -1  12 969.769 374.450  14
   2  -1  12 1012.48 308.472  15
  -2   1 -12 866.442 371.276   2
   2   1  12 1140.84 392.411  15
  -2  -1 -12 904.366 326.539   2
   2  -1  12 1264.50 477.047   1
   2   1  12 1402.31 370.774  14
   2   1  13 2500.61 534.201  15
   2  -1  13 3979.40 619.712  15
   2  -1  13 2607.60 646.481   1
  -2  -1 -13 3646.71 692.798   2
   2  -1  13 3308.93 575.490  14
   2   1  13 3741.66 745.837   1
  -2   1 -13 2302.66 561.004   2
   2  -1  14 3690.72 758.989   1
   2  -1  14 3720.82 651.805  14
   2   1  14 3917.38 675.674  15
  -2  -1 -14 3399.06 677.614   2
  -2   1 -14 3705.18 710.545   2
   2   1  14 5239.01 899.146   1
  -2   1 -15 2370.06 641.890   2
   2  -1  15 1954.88 577.284  18
  -2  -1 -15 1570.09 531.836   2
   2   1  15 1899.87 495.737  15
   2  -1  15 2114.89 629.947   1
   2   1  15 3264.76 766.482   1
   2  -1  16 414.639 358.814   1
   2   1  16-287.618 349.415   1
   2  -1  16-103.113 261.754  18
  -2  -1 -16 352.725 355.864   2
  -2   1 -16-476.951 348.277   2
  -2  -2  18 2103.65 645.853  13
   2  -2 -18 2444.82 592.161   2
   2   2 -18 2354.11 616.386   2
  -2   2  18 3019.86 758.534   1
  -2   2  18 2399.53 650.458  15
  -2  -2  18 1750.17 548.338   1
   2  -2 -18 1190.64 485.313  10
   2  -2 -17 253.575 270.328   2
   2  -2 -17 427.488 359.033  10
   2   2 -17 848.544 445.194   2
  -2  -2  17 496.693 332.018  13
  -2   2  17 189.527 281.152  15
  -2  -2  17 359.103 284.274   1
  -2  -2  17-221.988 234.367  18
  -2   2  17 300.371 367.245   1
  -2   2  16 9899.68 1157.33   1
   2   2 -16 8161.46 1023.63   2
   2  -2 -16 8928.47 1031.42  10
  -2  -2  16 7764.55 1019.94  13
  -2  -2  16 8813.12 1098.36   1
  -2   2  16 10925.5 1258.18  15
  -2  -2  16 8667.64 988.586  18
  -2   2  16 9168.27 1023.98   6
   2  -2 -16 8945.27 1036.07   2
  -2   2  15 220.312 417.377   1
   2   2 -15-53.0109 298.544   2
   2  -2 -15-9.67109 246.898  10
  -2  -2  15 932.397 390.799   1
  -2   2  15 205.834 225.905  15
   2  -2 -15-209.093 205.651   2
  -2  -2  15-336.583 317.192  13
  -2   2  15 423.609 271.688   6
  -2  -2  15 187.825 218.388  18
  -2  -2  14 7780.60 880.465   1
   2  -2 -14 7001.87 841.147   2
  -2   2  14 7726.06 967.912  15
  -2  -2  14 8231.15 900.116  18
  -2   2  14 7810.63 925.434   1
   2  -2 -14 7586.23 878.851  10
  -2  -2  14 8701.01 1008.01  13
   2   2 -14 7292.57 893.984   2
  -2  -2  14 8717.14 851.030   6
   2   2 -14 7916.08 833.489   9
   2  -2 -13 13134.5 1102.54  10
  -2   2  13 14173.5 1196.91   1
   2  -2 -13 13801.6 1091.56   2
  -2  -2  13 14216.8 1108.96  18
   2   2 -13 13160.7 1130.54   2
   2   2 -13 14427.0 1059.46   9
  -2  -2  13 15741.2 1277.87  13
  -2  -2  13 12881.8 986.831   6
  -2   2  13 13606.2 1223.43  15
  -2  -2  13 14716.8 1142.30   1
  -2  -2  12 30726.3 1516.67  18
  -2   2  12 37280.9 1883.66  15
   2  -2 -12 35117.1 1683.26  10
   2   2 -12 30964.1 1496.27   9
  -2  -2  12 32221.4 1481.19   6
   2  -2 -12 31549.9 1554.10   2
   2   2 -12 30193.8 1628.53   2
  -2  -2  12 33531.0 1769.84  13
  -2   2  12 31669.6 1687.67   1
  -2  -2  12 28926.6 1581.48   1
  -2  -2  11 3211.48 585.074  13
   2  -2 -11 2130.74 457.047  10
   2   2 -11 1973.45 422.794   2
  -2  -2  11 2666.39 439.066   6
  -2   2  11 3367.85 598.037   1
  -2   2  11 2535.87 417.809  13
   2  -2 -11 2804.53 460.378   2
  -2  -2  11 1938.34 455.799   1
   2   2 -11 3164.95 516.307   9
  -2  -2  11 2440.38 442.317  18
   2  -2 -10 94533.4 2359.73   2
  -2  -2  10 93481.6 2626.90  13
  -2  -2  10 94488.1 2342.94   1
  -2  -2  10 99534.4 2367.22   6
  -2   2  10 94599.7 2295.48  13
  -2  -2  10 92799.3 2314.07  18
   2  -2 -10 95044.4 2480.34  10
   2   2 -10 98580.5 2599.47   2
  -2   2  10 91122.0 2534.09   1
  -2   2   9 35965.6 1497.50   1
   2  -2  -9 35233.4 1341.86   2
   2   2  -9 34439.3 1005.75   5
  -2   2   9 35819.2 1305.47  13
  -2  -2   9 36737.9 1375.51   6
  -2  -2   9 34510.1 1354.69  18
  -2  -2   9 28522.8 1307.40   1
  -2  -2   9 35156.6 1506.17  13
   2  -2  -9 37082.5 1472.27  10
   2   2  -9 36766.0 1517.42   2
   2   2  -8 22778.8 819.588   5
   2  -2  -8 21951.9 1063.64  10
  -2  -2   8 22601.2 1034.86   6
  -2   2   8 21481.6 598.222  14
  -2  -2   8 21885.2 985.967  18
   2   2  -8 22572.6 1109.08   2
  -2  -2   8 23588.9 1170.11  13
  -2   2   8 22795.7 952.629  13
  -2   2   8 20463.9 1067.66   1
  -2  -2   8 22208.6 994.643   1
   2  -2  -8 22180.1 981.873   2
   2   2  -7 26221.3 746.894   7
   2  -2  -7 25965.4 1094.15  10
  -2  -2   7 26381.6 1046.20   6
   2   2  -7 26451.5 1117.15   2
  -2   2   7 26407.7 925.011  13
  -2  -2   7 24792.4 978.957  18
  -2  -2   7 26509.6 1148.41  13
  -2  -2   7 24073.7 955.740   1
  -2   2   7 24959.6 548.830  14
   2  -2  -7 25629.3 962.509   2
   2   2  -7 26707.5 872.379   5
  -2   2   7 24169.3 1092.49   1
   2  -2  -6 4015.02 413.257  10
  -2   2   6 3495.15 400.186   1
   2   2  -6 4581.34 302.160   7
  -2  -2   6 4162.65 376.980  18
   2   2  -6 3972.29 347.722   5
  -2   2   6 4431.19 343.866  13
   2   2  -6 4278.69 423.340   2
  -2  -2   6 4580.58 418.729   6
  -2  -2   6 4472.72 454.036  13
  -2  -2   6 3846.21 355.265   1
  -2   2   6 4240.55 195.535   5
  -2  -2   5 23762.5 815.168  18
  -2  -2   5 24558.3 751.840   1
  -2   2   5 24652.7 565.267   5
   2   2  -5 25303.2 691.622   7
  -2   2   5 25334.2 678.291  13
   2  -2  -5 24227.5 742.793   3
  -2  -2   5 25100.9 960.004  13
  -2   2   5 25158.7 949.058   1
   2  -2  -5 25114.0 930.543  10
  -2  -2   5 25718.5 919.282   6
   2   2  -5 24349.0 923.842   2
   2   2  -5 23924.6 796.067   5
   2   2  -4 295567. 2963.13   2
   2  -2  -4 285501. 2911.86  10
   2  -2  -4 279414. 2662.07  11
  -2  -2   4 284828. 2980.94  13
  -2  -2   4 278189. 2167.06   1
  -2   2   4 282420. 2149.66   5
   2   2  -4 291427. 2710.52   5
   2  -2  -4 276942. 2502.79   3
  -2  -2   4 296406. 2956.49   6
  -2   2   4 286400. 2970.81   1
  -2  -2   4 292935. 3002.43  17
   2   2  -4 291192. 2311.38   7
  -2   2   4 295510. 1819.88  13
  -2   2   3 51040.0 1106.66  15
   2  -2  -3 49558.9 1054.80   3
   2   2  -3 54117.4 1183.41   2
  -2   2   3 50370.4 985.572   5
  -2  -2   3 51192.0 1169.33   6
   2   2  -3 52114.4 984.968   7
  -2  -2   3 51846.4 1179.08  17
   2  -2  -3 49817.1 1013.58  11
   2   2  -3 50842.4 1127.65   5
   2  -2  -3 51100.8 1156.62  10
  -2  -2   3 50242.3 1174.14  13
   2   2  -2 401540. 3024.04   2
  -2   2   2 384342. 2909.73   5
  -2  -2   2 388188. 3079.23  17
   2  -2  -2 384777. 2658.41  11
  -2  -2   2 383592. 3049.10  13
   2  -2  -2 388890. 3107.74  10
   2   2  -2 396153. 2800.19   7
   2  -2  -2 387420. 2996.74   3
  -2   2   2 393018. 2702.61  15
  -2  -2   2 375847. 2700.74  11
   2   2  -2 398088. 3096.74   5
   2   2  -1 90518.0 1474.21   5
  -2  -2   1 94448.6 1324.36  11
   2  -2  -1 91122.1 1475.93   3
  -2  -2   1 92325.2 1431.09  13
  -2  -2   1 93362.6 1489.45  17
   2  -2  -1 92573.9 1280.77  11
  -2   2   1 91208.0 904.166   2
   2  -2  -1 95132.1 1524.68  10
  -2  -2   1 89918.7 1407.06  12
   2   2  -1 89023.1 1460.17  16
  -2   2   0 2886.36 203.178   2
   2  -2   0 2951.48 240.949   7
   2  -2   0 2494.88 262.011  10
   2  -2   0 2717.33 241.698  11
   2   2   0 2967.18 284.985  16
   2   2   0 3000.52 296.440   5
   2  -2   0 2662.19 287.962   3
  -2   2   0 2719.68 159.634  16
  -2  -2   0 3149.62 295.230  17
   2   2   0 2732.85 209.295   1
  -2   2   0 2417.99 239.537   8
  -2  -2   0 2785.98 251.069  11
  -2  -2   0 2780.89 292.992  12
   2  -2   1 17203.8 603.072  13
  -2  -2  -1 16633.7 678.459  17
   2   2   1 16603.1 558.285   1
  -2  -2  -1 16420.4 626.714   4
  -2  -2  -1 16244.9 618.059  11
   2  -2   1 16206.8 499.230   7
   2   2   1 16463.5 644.535  14
  -2  -2  -1 15219.4 646.029  12
  -2   2  -1 16757.5 674.366   8
   2  -2   1 16586.3 646.218  18
   2   2   1 16073.5 620.583   5
  -2   2  -1 17683.2 584.114   2
   2  -2   1 17781.1 696.035   3
  -2  -2  -2 18201.9 689.913   4
   2  -2   2 19607.2 496.095   7
   2   2   2 19277.7 693.024   5
   2  -2   2 19330.9 735.892  13
   2   2   2 20980.5 711.200   1
  -2  -2  -2 19714.4 772.721  12
  -2   2  -2 19320.5 708.932   2
   2  -2   2 20229.3 775.585  18
   2  -2   2 20264.5 468.033   4
  -2  -2  -2 19254.3 783.552  17
   2  -2   2 20564.5 781.941   3
   2   2   2 19576.9 731.642  14
  -2  -2  -2 20191.2 739.376  11
   2   2   3 3455.32 359.642   1
   2  -2   3 3526.22 362.488  18
   2  -2   3 3363.61 184.690   7
   2  -2   3 3992.41 380.398   3
   2  -2   3 4421.72 412.148  13
  -2   2  -3 3175.06 350.454   2
  -2  -2  -3 3494.33 372.457  17
  -2   2  -3 3108.52 376.636   5
  -2  -2  -3 4302.61 395.181  12
   2   2   3 3696.37 343.028  14
  -2  -2  -4 264804. 3113.27  12
   2   2   4 267951. 2994.17  14
   2  -2   4 270116. 3320.68  18
   2  -2   4 273193. 3057.52   3
  -2   2  -4 268409. 3188.20   5
   2  -2   4 255919. 3280.65  13
  -2   2  -4 261779. 3208.97   2
  -2  -2  -4 256499. 3309.82  17
   2  -2   4 258811. 3217.26   1
   2   2   4 270564. 3182.94   1
   2   2   5 4357.49 483.617   1
   2  -2   5 3747.20 423.026  18
   2   2   5 3887.01 436.075  15
   2   2   5 4005.70 400.753  14
  -2  -2  -5 3604.59 418.912  12
   2  -2   5 3666.80 437.029  13
  -2   2  -5 3676.09 432.873   2
  -2   2  -5 4250.57 415.456   5
   2  -2   5 3609.54 429.951   1
  -2   2  -6 72907.8 1995.21   2
   2   2   6 70950.7 1893.21  15
   2  -2   6 72002.2 1969.42  18
   2  -2   6 72717.0 1140.97   6
   2   2   6 70861.5 1742.43  14
   2   2   6 70477.0 1933.88   1
  -2   2  -6 74819.9 1759.10   5
   2  -2   6 71405.2 2019.43  13
  -2  -2  -6 71858.7 1806.72  12
   2  -2   6 72659.5 1967.00   1
  -2   2  -7 6736.91 670.149   2
   2   2   7 5833.94 592.790  15
  -2  -2  -7 5571.30 550.325  12
  -2   2  -7 6224.98 532.145   5
   2   2   7 6224.81 564.793  14
  -2   2  -7 6412.53 596.630  12
   2  -2   7 6034.62 649.905  13
   2  -2   7 6418.76 660.988   1
   2  -2   7 5643.10 354.532   6
   2  -2   7 5764.36 637.243  18
   2   2   7 6859.16 687.744   1
  -2   2  -8 20444.3 977.215   5
   2  -2   8 18344.1 1189.23   1
  -2   2  -8 19955.3 1066.51  12
   2   2   8 19033.0 1125.99  15
   2   2   8 20811.1 1055.22  14
  -2  -2  -8 19886.6 1037.52  12
  -2   2  -8 18224.9 1135.98   2
   2  -2   8 18056.1 1136.85  18
   2  -2   8 20501.0 1242.09  13
   2  -2   8 19690.1 1170.20  14
   2   2   8 21486.6 1249.31   1
  -2   2  -9 8828.82 659.946   5
   2   2   9 8674.48 811.520  15
   2   2   9 9405.80 756.959  14
  -2   2  -9 8231.22 719.504  12
   2  -2   9 9319.80 867.552  18
   2  -2   9 10113.7 890.914  14
  -2   2  -9 8524.54 837.499   2
  -2  -2  -9 8208.22 704.889  12
   2  -2   9 8431.20 669.798   3
   2  -2   9 10141.1 944.692  13
   2   2   9 8273.59 849.617   1
   2  -2   9 8540.68 807.175   1
   2   2  10 22098.7 1359.79  15
  -2   2 -10 23093.9 1235.82  12
   2  -2  10 23774.4 1489.10  13
   2  -2  10 22829.8 1421.59  18
  -2  -2 -10 21837.7 1389.86   2
   2  -2  10 20830.4 1351.41   1
   2   2  10 24647.0 1471.53   1
  -2   2 -10 22904.6 1431.60   2
   2  -2  10 21550.4 1345.84  14
   2   2  10 24017.7 1244.17  14
  -2  -2 -10 22354.9 1197.92  12
  -2   2 -11-294.362 287.777   2
   2   2  11-542.099 311.267  15
   2   2  11-86.0852 388.800   1
  -2   2 -11 122.794 217.150  12
   2  -2  11 189.002 261.899  18
   2  -2  11-200.141 293.419   1
  -2  -2 -11 40.0858 217.847  12
   2   2  11 143.491 155.197  14
  -2  -2 -11-7.56855 233.868   2
   2  -2  11-35.1339 216.893  14
  -2   2 -12 9186.05 1021.41   2
   2  -2  12 10254.3 1056.16  18
   2  -2  12 9192.60 961.048  14
   2   2  12 9476.67 1055.13   1
   2   2  12 8928.09 955.707  15
   2  -2  12 8683.72 1011.08   1
  -2  -2 -12 9892.40 1062.36   2
   2  -2  13-21.1768 274.360   1
  -2   2 -13 1087.12 402.442   2
   2   2  13 638.677 427.085   1
   2   2  13 519.416 274.619  15
   2  -2  13 529.011 294.820  14
  -2  -2 -13 936.441 394.340   2
   2  -2  13 1266.45 451.254  18
   2   2  14 6957.57 978.567   1
  -2  -2 -14 7323.09 984.654   2
   2  -2  14 6893.60 901.187  14
   2   2  14 7765.15 969.790  15
  -2   2 -14 5926.22 899.947   2
   2  -2  14 8374.58 1066.33  18
   2  -2  14 5254.92 956.620   1
   2  -2  15 291.588 425.438   1
   2  -2  15 437.148 271.532  14
   2  -2  15 94.0169 239.044  18
  -2   2 -15 246.137 261.791   2
   2   2  15 966.693 412.926  15
  -2  -2 -15 759.523 382.096   2
  -2   2 -16 6611.80 1032.05   2
   2  -2  16 7251.49 1036.56  18
   2  -2  16 6277.24 1082.88   1
   2   2  16 9221.04 1130.35  15
  -2  -2 -16 8683.81 1184.89   2
   2   2  16 8447.12 1200.06   1
   2  -3 -18 2140.11 558.804  10
   2   3 -18 1970.92 556.870   2
  -2   3  18 2739.35 725.104  15
   2  -3 -18 1833.49 609.604  11
  -2  -3  18 1553.27 559.031  13
  -2   3  18 1093.18 503.071   1
  -2  -3  17 4054.84 772.908   1
  -2   3  17 5145.05 939.378   1
   2  -3 -17 4769.51 794.636  10
  -2   3  17 6876.18 1031.54  15
   2   3 -17 4998.55 854.128   2
  -2  -3  17 4101.45 708.322  18
  -2  -3  17 4627.25 894.179  13
  -2  -3  16-94.6158 267.421  18
  -2  -3  16-43.8155 285.415  13
  -2   3  16 293.522 442.402   1
  -2   3  16-39.7486 313.415  15
   2  -3 -16-53.4543 240.880  10
   2  -3 -16-273.197 303.969   2
  -2  -3  16 136.692 206.747   1
   2   3 -16 3.74196 205.255   2
   2  -3 -15 17224.5 1369.72  10
  -2  -3  15 15505.3 1297.80  18
   2   3 -15 16802.0 1277.80   9
   2  -3 -15 15472.3 1278.08   2
  -2  -3  15 14424.1 1364.27   1
  -2   3  15 14804.9 1418.16   1
  -2  -3  15 19535.6 1606.72  13
  -2   3  15 17586.5 1524.29  15
   2   3 -15 17623.8 1470.74   2
  -2  -3  14 13469.2 1287.94  13
  -2   3  14 11860.0 1193.22   1
   2  -3 -14 12860.7 1133.15  10
  -2  -3  14 11284.7 1049.96  18
   2  -3 -14 12280.4 1091.36   2
  -2   3  14 12220.0 1207.94  15
   2   3 -14 12036.8 1057.00   9
  -2  -3  14 8838.93 1002.78   1
   2   3 -14 10716.7 1112.07   2
   2   3 -13 15592.8 1276.82   2
   2  -3 -13 18228.5 1278.39  10
  -2   3  13 15748.4 1296.32   1
  -2   3  13 19634.7 1478.12  15
   2  -3 -13 16976.3 1219.03   2
  -2  -3  13 17075.2 1246.62  18
  -2  -3  13 18081.8 1418.16  13
  -2  -3  13 14939.9 1174.21   1
   2   3 -13 14030.9 1126.60   9
  -2  -3  13 17014.1 1142.09   6
  -2   3  12 593.501 427.412   1
  -2  -3  12 373.134 303.411   1
   2   3 -12 456.763 265.438   2
   2  -3 -12 292.433 216.265   2
  -2  -3  12 488.457 259.613   6
   2  -3 -12-167.192 271.187  10
  -2  -3  12 570.490 330.633  13
  -2  -3  12 213.452 189.974  18
  -2   3  12 811.608 384.123  15
   2  -3 -11 20514.3 1240.16  10
   2   3 -11 22079.6 1365.49   2
  -2  -3  11 20895.8 1235.28  18
  -2   3  11 22601.0 1423.47  15
  -2  -3  11 18712.5 1163.62   1
  -2  -3  11 21921.5 1408.40  13
  -2   3  11 20246.4 1347.26   1
  -2  -3  11 22042.3 1197.69   6
   2  -3 -11 21516.4 1207.59   2
   2  -3 -10 10699.0 852.457  10
  -2   3  10 10243.2 903.070   1
  -2   3  10 10246.8 910.470  15
  -2  -3  10 10205.7 908.404  13
  -2  -3  10 9151.76 789.780   1
  -2  -3  10 9380.87 782.435  18
   2   3 -10 9110.26 852.805   2
   2   3 -10 10283.3 662.520   5
  -2  -3  10 9635.91 768.568   6
   2  -3 -10 10547.3 795.009   2
   2  -3  -9 26949.4 1280.26  10
  -2  -3   9 27781.9 1223.35   6
  -2   3   9 24994.0 1357.29  15
  -2  -3   9 24176.9 1138.55   1
   2   3  -9 24758.8 1298.30   2
  -2  -3   9 27196.3 1388.90  13
   2  -3  -9 25983.1 1166.86   2
   2   3  -9 25473.7 1027.84   5
  -2  -3   9 24450.9 1173.09  18
  -2   3   9 25714.5 1318.80   1
  -2  -3   8 2198.54 361.059  18
   2   3  -8 2218.73 323.475   5
  -2   3   8 1954.40 399.015  15
   2   3  -8 2336.29 392.027   2
  -2  -3   8 1962.37 381.972  13
  -2  -3   8 1478.52 291.220   1
  -2   3   8 1278.99 322.403   1
   2  -3  -8 1836.52 339.525  11
  -2  -3   8 2386.80 370.712   6
   2  -3  -8 1990.96 353.563  10
  -2  -3   7 9174.43 606.162   1
  -2  -3   7 9988.53 678.806   6
   2  -3  -7 9345.11 670.459  10
  -2  -3   7 10276.6 757.358  13
   2   3  -7 10789.1 768.588   2
   2   3  -7 9784.19 626.317   5
   2   3  -7 9502.95 431.698   7
  -2   3   7 9067.08 724.758  15
  -2   3   7 9766.99 752.240   1
  -2  -3   7 8939.94 633.634  18
  -2   3   7 8915.83 357.253   5
   2  -3  -7 9520.33 678.363  11
  -2   3   6 1326.48 165.566   5
   2  -3  -6 1354.51 204.419   3
   2   3  -6 1115.80 239.316   5
   2  -3  -6 1133.46 245.210  11
  -2   3   6 1718.02 368.294   1
  -2  -3   6 1355.50 282.327   6
  -2  -3   6 1283.57 286.807  13
   2  -3  -6 927.546 229.276  10
  -2   3   6 1055.43 267.961  15
   2   3  -6 1264.89 165.580   7
  -2  -3   6 1462.72 286.903  17
   2   3  -6 1491.11 285.341   2
   2  -3  -5 174420. 2577.86  10
   2   3  -5 171051. 2486.51   5
   2   3  -5 171291. 1875.69   7
  -2   3   5 170960. 1916.52   5
  -2   3   5 169641. 2713.82   1
   2  -3  -5 169521. 2126.32   3
  -2  -3   5 171546. 2565.42   6
  -2   3   5 166864. 2661.12  15
  -2  -3   5 163692. 2656.19  13
  -2  -3   5 177599. 2684.97  17
   2  -3  -5 167403. 2475.34  11
   2   3  -5 176010. 2724.67   2
   2  -3  -4 799.804 183.163  11
   2  -3  -4 897.026 175.024   3
   2  -3  -4 961.776 198.309  10
  -2   3   4 841.196 145.549   5
   2   3  -4 1129.10 241.925   2
  -2   3   4 738.787 187.577  15
  -2  -3   4 908.871 200.303  17
  -2  -3   4 553.365 189.049  13
  -2   3   4 622.000 170.049   1
   2   3  -4 851.026 160.064   7
   2   3  -4 1127.39 251.198   5
  -2   3   3 321408. 2946.23   5
  -2  -3   3 317106. 3130.60  11
   2   3  -3 336143. 3347.34   5
   2  -3  -3 335361. 3296.77  10
  -2  -3   3 331618. 3278.81  17
  -2  -3   3 326534. 3283.57  13
   2  -3  -3 328352. 3050.19   3
   2  -3  -3 319557. 3069.49  11
   2   3  -3 334319. 3352.21   2
  -2   3   3 337910. 3190.46  15
   2  -3  -2 15523.1 699.675  10
   2  -3  -2 13808.2 624.758  11
  -2   3   2 14089.0 644.337   5
  -2  -3   2 13890.9 651.269  13
  -2  -3   2 15000.3 677.805  17
   2   3  -2 15566.3 721.663   5
   2  -3  -2 14524.6 661.397   3
  -2  -3   2 14870.1 651.419  11
  -2   3   1 4471.54 389.396   5
   2  -3  -1 4655.14 363.066  11
   2  -3  -1 4791.40 398.120   3
  -2  -3   1 4746.71 386.767  17
  -2   3   1 4202.85 338.988   8
   2   3  -1 4074.13 392.965   5
   2   3  -1 4250.88 377.106  16
   2  -3  -1 4598.69 202.039  17
  -2  -3   1 4947.57 375.447  13
   2  -3  -1 4402.33 389.233  10
  -2  -3   1 4370.62 353.912  11
  -2   3   0 12312.8 656.917   5
  -2   3   0 11089.5 552.895   8
   2   3   0 12192.7 619.804   5
  -2   3   0 11946.2 455.912  16
  -2  -3   0 12476.2 618.889  17
   2   3   0 13195.2 516.028   1
  -2   3   0 11651.3 478.613   2
   2  -3   0 11915.6 443.991  13
  -2  -3   0 12159.5 597.049  11
   2   3   0 11971.0 628.446  16
   2  -3   0 11097.7 621.494   3
   2  -3   0 12232.8 596.046  11
   2  -3   1 2622.12 325.312   3
   2  -3   1 2455.81 153.076  17
  -2  -3  -1 2512.21 318.568  17
  -2   3  -1 2893.36 311.838   8
  -2   3  -1 2474.25 331.223   5
   2   3   1 2507.34 269.376   1
   2  -3   1 2232.27 236.127  13
  -2  -3  -1 1761.73 301.637  12
  -2  -3  -1 3003.10 322.031   4
   2   3   1 2879.75 327.057   5
   2  -3   1 2326.55 235.025   4
  -2   3  -1 2402.04 248.631   2
  -2  -3  -1 2343.88 277.579  11
  -2  -3  -2 33095.7 1082.30   4
   2  -3   2 35091.2 839.376   4
  -2  -3  -2 33381.8 602.144  10
   2   3   2 31740.0 991.514   5
  -2   3  -2 33545.9 1150.40   5
   2   3   2 34895.1 1016.75   1
  -2  -3  -2 34581.6 1153.64  17
   2  -3   2 32770.7 997.506  13
   2  -3   2 34237.5 1139.94   3
  -2   3  -2 34352.9 1018.33   2
  -2  -3  -2 32341.4 1087.53  12
  -2  -3  -2 34532.6 1086.74  11
  -2  -3  -3 122576. 1325.95  10
   2  -3   3 125561. 2251.18   3
   2   3   3 119386. 2025.26  14
   2  -3   3 115421. 2081.96  13
   2  -3   3 123838. 2252.62  18
  -2  -3  -3 121987. 2188.39  11
  -2   3  -3 118757. 2070.66   2
   2  -3   3 126081. 1541.19   4
   2   3   3 113274. 1877.59   5
  -2  -3  -3 119457. 2146.64  12
   2   3   3 125091. 2094.55   1
  -2  -3  -3 125643. 2293.56  17
  -2   3  -3 119936. 2261.12   5
  -2   3  -4 14657.5 816.642   5
  -2   3  -4 12758.3 739.707   2
   2  -3   4 12850.7 780.662  18
  -2  -3  -4 12613.4 505.336  10
   2   3   4 14420.7 777.782   1
   2   3   4 12746.0 699.534  14
  -2  -3  -4 13252.0 813.292  17
   2   3   4 13133.5 639.806   5
   2  -3   4 13785.8 796.723  13
  -2  -3  -4 12941.0 751.815  12
  -2  -3  -4 13529.7 791.981  11
  -2  -3  -5 197311. 3296.25  17
   2  -3   5 195650. 3180.70  13
   2   3   5 193792. 2796.41  14
   2  -3   5 200118. 3247.43  18
  -2   3  -5 193076. 3118.18   2
   2   3   5 206768. 3145.95   1
  -2  -3  -5 191659. 2950.53  12
  -2  -3  -5 194566. 2227.62  10
  -2   3  -5 200405. 3064.66   5
   2   3   6 12555.3 863.895   1
   2  -3   6 13285.3 895.737  18
  -2   3  -6 12631.5 868.657   2
  -2  -3  -6 12749.6 640.067  10
   2   3   6 13091.2 771.377  14
  -2   3  -6 12455.8 799.012   5
   2  -3   6 13361.0 908.304  13
  -2  -3  -6 11987.0 791.589  12
  -2   3  -7 59244.5 1970.40   2
   2   3   7 58964.7 1700.08  14
  -2  -3  -7 58851.7 1500.67  10
   2  -3   7 58507.1 1976.86  18
   2   3   7 64221.9 2026.15   1
   2   3   7 56097.3 1910.32  15
  -2  -3  -7 56657.0 1751.29  12
   2  -3   7 60825.9 2037.32  13
  -2   3  -7 57891.2 1739.78   5
   2   3   8 4376.47 648.795   1
  -2   3  -8 3904.58 477.112   5
   2   3   8 3206.84 427.666  14
   2  -3   8 2032.36 447.696   1
  -2  -3  -8 3673.89 487.493  12
   2  -3   8 4235.05 584.178  18
   2  -3   8 3557.22 554.697  13
  -2   3  -8 3550.17 549.228   2
  -2  -3  -8 3921.60 430.111  10
   2   3   8 4134.66 573.725  15
   2   3   9 16360.5 1193.15   1
   2   3   9 17897.8 1210.69  15
  -2   3  -9 17067.7 1061.94  12
   2   3   9 18650.7 1058.61  14
   2  -3   9 17189.6 1254.35  13
  -2  -3  -9 18090.7 978.021  10
  -2   3  -9 15616.9 1149.22   2
  -2   3  -9 16774.1 995.217   5
   2  -3   9 16230.7 1162.85  18
   2  -3   9 15922.9 1185.27   1
  -2  -3  -9 15610.3 997.318  12
   2  -3  10 285.547 233.026   3
   2   3  10 108.868 163.419  14
  -2   3 -10-42.3666 268.294   2
   2  -3  10 38.5582 189.161  14
  -2  -3 -10-25.5657 177.439  12
   2   3  10 25.7731 229.081  15
   2  -3  10-687.165 424.466   1
   2  -3  10-107.657 253.144  18
   2   3  10 230.709 375.377   1
   2  -3  10-306.794 323.235  13
  -2   3 -10-273.872 232.976  12
   2  -3  11 6394.00 826.061  14
   2   3  11 5800.40 774.266  15
   2  -3  11 8047.08 958.169  13
   2   3  11 5795.96 827.893   1
   2  -3  11 5514.38 811.480   1
  -2   3 -11 5933.96 809.387   2
  -2   3 -11 5137.02 643.489  12
   2  -3  11 5724.80 769.830  18
  -2  -3 -11 6772.66 723.122  12
  -2  -3 -12 3286.27 623.234   2
   2  -3  12 2835.86 586.774  18
   2  -3  12 2632.86 582.602   1
   2  -3  12 3665.58 655.048  14
  -2   3 -12 3349.73 656.890   2
   2   3  12 3807.13 643.549  15
   2   3  12 2866.53 614.765   1
   2   3  13 849.988 330.591  15
  -2   3 -13 1089.64 472.382   2
   2  -3  13-84.6875 323.502   1
   2  -3  13 251.952 268.421  18
  -2  -3 -13 687.494 360.049   2
   2   3  13 140.828 383.105   1
   2  -3  13 370.809 269.931  14
   2   3  14 573.190 353.209   1
   2  -3  14-158.421 350.786   1
   2  -3  14 1762.73 545.837  18
  -2   3 -14 1306.87 476.515   2
  -2  -3 -14 580.375 330.976   2
   2   3  14 863.279 396.564  15
   2  -3  14 861.045 346.172  14
  -2  -3 -15 7414.82 1050.34   2
   2  -3  15 9444.43 1113.84  14
   2  -3  15 9982.12 1220.25  18
  -2   3 -15 8762.51 1131.58   2
   2   3  15 9047.56 1180.92   1
   2   3  16 2087.21 622.955   1
   2  -3  16 1325.37 435.060  14
   2  -3  16 1246.42 474.396  18
  -2  -3 -16 1774.16 571.338   2
  -2   3 -16 1829.92 602.171   2
   2  -4 -17 760.538 396.806  11
  -2   4  17 969.387 525.202   1
  -2   4  17 742.258 448.082  15
   2   4 -17-342.316 339.906   2
  -2  -4  17 381.070 294.409  13
   2  -4 -16 3327.96 708.325  11
  -2  -4  16 3988.15 729.797  18
   2  -4 -16 3478.34 661.190  10
   2   4 -16 3707.13 751.316   2
  -2   4  16 3790.42 781.927  15
  -2  -4  16 3547.26 784.732  13
  -2   4  16 3042.73 739.782   1
   2  -4 -15 3035.17 597.665   2
  -2   4  15 3158.24 702.803  15
   2  -4 -15 3236.59 613.610  10
  -2   4  15 2548.74 720.540   1
   2  -4 -15 2328.33 570.456  11
  -2  -4  15 2139.57 540.056  18
  -2  -4  15 1786.26 502.231  13
   2   4 -15 1768.46 510.553   2
   2   4 -15 2928.60 600.325   9
  -2  -4  14 497.163 292.575  18
  -2   4  14 310.497 266.017  15
  -2   4  14 933.919 465.461   1
   2   4 -14 1201.53 454.392   9
   2  -4 -14 51.3573 234.201  10
   2   4 -14 657.398 329.085   2
   2  -4 -14 1006.04 390.393  11
  -2  -4  14 454.780 305.661  13
   2  -4 -14 701.571 316.110   2
   2   4 -13 728.234 362.620   2
   2  -4 -13 295.265 219.197  10
  -2  -4  13 3.16574 176.716   6
   2  -4 -13 345.403 246.966   2
  -2  -4  13 51.7489 305.501  13
  -2  -4  13 123.481 239.015  18
  -2   4  13 873.124 512.588   1
   2  -4 -13-83.2715 255.607  11
  -2   4  13 664.708 350.650  15
  -2  -4  12 17070.0 1135.33   6
   2  -4 -12 16263.6 1167.33  10
   2   4 -12 17804.1 1353.94   2
  -2   4  12 16772.0 1348.86  15
   2  -4 -12 17508.5 1182.19   2
  -2  -4  12 16121.6 1319.79  13
  -2  -4  12 16242.8 1196.03  18
  -2   4  12 17636.5 1343.65   1
   2  -4 -12 17213.2 1254.66  11
   2   4 -11 15125.4 1182.10   2
   2  -4 -11 12749.0 992.467  10
   2  -4 -11 12572.4 954.191   2
  -2   4  11 15262.2 1228.17  15
  -2  -4  11 13901.7 1000.13   6
  -2  -4  11 12131.7 1094.57  13
  -2  -4  11 12722.6 1004.83  18
   2  -4 -11 14264.1 1092.15  11
  -2   4  11 16463.4 1237.39   1
   2  -4 -10 96794.2 2590.56  10
   2   4 -10 95873.6 2814.88   2
  -2  -4  10 99802.2 2526.46   6
  -2   4  10 91483.7 2759.81   1
  -2   4  10 100267. 2955.54  15
   2   4 -10 99496.5 2324.14   5
  -2  -4  10 104349. 2976.53  13
   2  -4 -10 102586. 2771.78  11
   2   4  -9 431.116 231.462   2
   2   4  -9 587.481 211.567   5
  -2   4   9 775.518 363.204  15
   2  -4  -9 374.664 220.058  10
  -2   4   9 726.722 327.852   1
  -2  -4   9 840.040 284.410  17
   2  -4  -9 610.574 276.317  11
  -2  -4   9 647.798 302.608  13
  -2  -4   9 335.368 182.118   6
   2   4  -8 59114.1 1753.95   5
   2  -4  -8 60316.9 1849.98  10
  -2   4   8 63080.8 2092.99  15
  -2   4   8 57461.3 1990.31   1
   2  -4  -8 60931.3 1923.20  11
  -2  -4   8 59344.6 2063.71  13
  -2  -4   8 63572.8 1991.52  17
   2   4  -8 57243.2 1987.37   2
   2  -4  -7 31480.8 976.702   3
  -2   4   7 32854.8 1463.22   1
  -2  -4   7 32283.5 1355.07  17
   2  -4  -7 32196.6 1287.48  10
  -2   4   7 29990.3 862.424   5
   2   4  -7 33052.5 1433.02   2
   2  -4  -7 32146.2 1316.27  11
  -2   4   7 30895.5 1399.91  15
   2   4  -7 33487.4 1286.18   5
  -2  -4   7 31041.3 1376.29  13
  -2   4   6 1613.62 327.015  15
   2  -4  -6 2548.80 355.425  10
  -2  -4   6 2362.87 358.713  17
   2  -4  -6 1436.64 229.497   3
  -2   4   6 2058.65 257.378   5
   2   4  -6 2147.18 393.467   2
   2   4  -6 1768.52 206.975   7
  -2  -4   6 2390.60 395.988  13
  -2   4   6 2093.19 404.179   1
   2   4  -6 1317.54 320.289   5
   2  -4  -6 1404.42 284.287  11
  -2   4   5 297.416 136.897   5
   2  -4  -5 117.331 161.516  10
  -2   4   5-260.441 270.237   1
  -2   4   5 128.375 179.236  15
   2   4  -5 317.209 166.204   2
   2   4  -5 28.9424 82.9587   7
   2  -4  -5 246.071 140.638   3
  -2  -4   5 19.4120 126.519  13
   2   4  -5 4.70383 191.673   5
  -2  -4   5 213.653 137.614  17
   2  -4  -5 65.6860 132.531  11
   2  -4  -4 12179.1 653.173   3
  -2  -4   4 13054.4 758.939  17
  -2   4   4 13102.7 763.098  15
   2   4  -4 13897.2 618.327   7
   2   4  -4 12710.7 776.681   5
   2  -4  -4 13612.2 754.306  11
  -2  -4   4 13897.9 793.583  13
   2   4  -4 12950.4 784.508   2
  -2   4   4 13736.2 687.000   5
   2  -4  -4 12750.1 730.518  10
  -2  -4   3 1037.47 232.428  13
   2  -4  -3-212.433 145.371  11
  -2  -4   3 747.991 220.597  11
  -2   4   3-141.805 171.435   5
  -2  -4   3 666.161 228.333  17
   2   4  -3 1188.86 292.997   5
   2   4  -3 748.687 219.354   2
   2  -4  -3 300.225 165.131  10
   2  -4  -3-184.273 156.651   3
   2  -4  -2 153532. 2452.63  10
   2   4  -2 154920. 2572.25   5
  -2  -4   2 153470. 2412.45  11
  -2   4   2 154363. 2430.70   5
  -2  -4   2 154905. 2350.71  13
  -2  -4   2 159935. 2424.93  17
   2  -4  -2 149661. 2360.97   3
   2  -4  -2 159798. 1725.59  17
   2  -4  -2 150898. 2370.12  11
   2  -4  -1 59.6939 107.827  11
   2  -4  -1 63.0426 137.567  10
  -2   4   1 245.289 108.225   8
  -2  -4   1 95.6392 153.631  17
  -2  -4   1 47.3975 120.229  13
  -2  -4   1-22.8054 129.784  11
   2  -4  -1 49.8343 55.1001  13
   2   4  -1 50.7450 134.428  16
   2  -4  -1 199.656 152.811   3
  -2   4   1 111.616 155.321   5
   2   4  -1-23.1966 169.668   5
   2   4   0 175167. 2730.40  16
   2  -4   0 174677. 2688.41   3
   2  -4   0 174115. 2577.49  11
  -2  -4   0 171563. 2671.41   4
  -2  -4   0 172598. 2358.37  13
   2  -4   0 169635. 1847.63  13
  -2  -4   0 180518. 2617.85  17
  -2   4   0 170074. 2130.67  16
  -2   4   0 166577. 2314.87   8
   2   4   0 168102. 2601.31   5
   2  -4   0 175883. 1482.05  17
  -2   4   0 166736. 2132.89   2
  -2  -4   0 173012. 2579.47  11
  -2   4   0 172339. 2731.89   5
   2  -4   1 10086.5 526.998  13
   2  -4   1 10130.6 371.321  17
  -2   4  -1 8605.03 526.853   2
  -2   4  -1 9891.00 492.351  16
  -2  -4  -1 8822.65 626.913   4
   2  -4   1 9342.38 545.258   4
  -2  -4  -1 10115.8 646.763  17
   2  -4   1 9607.97 673.765   3
   2   4   1 10234.3 575.762   1
   2   4   1 10329.8 692.096  16
   2   4   1 9631.84 635.708   5
   2  -4   1 9653.23 638.735  11
  -2  -4  -1 8953.94 604.170  11
  -2   4  -1 9924.69 696.374   5
  -2  -4  -2 157996. 2644.23  17
  -2   4  -2 153952. 2353.11   2
  -2  -4  -2 152959. 1574.90  10
   2   4   2 163364. 2427.13   1
  -2   4  -2 161746. 2787.93   5
   2  -4   2 160536. 2196.31   4
   2  -4   2 155478. 1661.61  17
   2  -4   2 161573. 2744.05   3
   2  -4   2 159038. 2309.77  13
   2   4   2 154472. 2447.40   5
  -2  -4  -2 156462. 2598.40  11
  -2  -4  -2 151909. 2609.08   4
  -2  -4  -3-5.55452 58.1913  10
  -2   4  -3 141.798 223.309   5
  -2   4  -3-85.3259 149.715   2
   2  -4   3 248.217 164.000  13
  -2  -4  -3-97.5000 232.636  12
   2  -4   3 6.85660 73.2261  17
   2   4   3 298.855 164.236   1
   2  -4   3 270.402 222.850   3
   2  -4   3 1.61798 86.8660   4
  -2  -4  -3-40.1917 168.504  11
  -2  -4  -3 78.1605 146.661  17
   2   4   3 49.9583 136.710   5
  -2  -4  -4 63517.1 1196.43  10
  -2  -4  -4 62571.3 893.346   3
   2   4   4 65612.7 1585.35   5
  -2  -4  -4 65443.8 1819.41  12
  -2  -4  -4 71654.9 1983.01  17
   2  -4   4 68875.0 1394.05   4
  -2   4  -4 66219.8 1798.78   2
  -2   4  -4 71080.3 1950.79   5
   2  -4   4 66460.8 1792.17  13
   2   4   4 71056.0 1825.23   1
  -2  -4  -4 68016.6 1882.72  11
  -2   4  -5 5076.47 549.589   2
   2  -4   5 5362.52 555.517  13
  -2  -4  -5 5023.30 561.890  11
   2  -4   5 5334.17 394.208   4
   2  -4   5 5729.63 610.116  18
   2   4   5 6125.80 611.041   1
  -2  -4  -5 4914.45 572.495  17
  -2  -4  -5 5105.56 372.364  10
  -2  -4  -5 5065.50 552.648  12
   2   4   5 5214.42 458.764   5
  -2   4  -5 5589.61 580.770   5
  -2  -4  -6 1787.53 383.686  11
   2  -4   6 1874.56 401.613  13
  -2  -4  -6 1840.50 250.471  10
  -2   4  -6 1900.91 378.813   5
   2   4   6 1271.84 266.080  14
   2  -4   6 1063.22 334.230  18
  -2   4  -6 919.390 261.607   2
  -2  -4  -6 1732.62 379.060  17
   2   4   6 1568.53 410.136   1
  -2  -4  -6 1455.02 321.849  12
   2   4   7 2616.75 515.071   1
   2   4   7 2273.85 366.592  14
  -2   4  -7 2889.00 444.780   5
  -2  -4  -7 2567.93 466.557  11
  -2  -4  -7 3027.21 435.341  12
   2  -4   7 2146.85 459.303  13
  -2   4  -7 2849.99 469.492   2
   2  -4   7 2906.84 459.226  18
   2   4   8 7666.88 828.040   1
  -2  -4  -8 8034.82 734.059  12
   2  -4   8 9873.78 932.326  13
   2   4   8 9030.65 709.001  14
  -2   4  -8 9011.82 794.042   5
  -2   4  -8 9614.62 885.552   2
  -2  -4  -8 9028.95 855.842  11
   2  -4   8 7841.49 807.060  18
   2  -4   9 7568.10 861.121  13
   2   4   9 8344.49 880.964   1
   2   4   9 8485.73 719.581  14
  -2  -4  -9 8869.35 791.249  12
   2  -4   9 8999.32 925.565  18
  -2   4  -9 8137.79 867.673   2
  -2  -4  -9 8383.02 877.438  11
  -2   4  -9 8322.33 760.743   5
   2   4  10 41693.9 2015.49   1
   2  -4  10 41106.8 2048.08  13
  -2  -4 -10 39057.3 1700.86  12
  -2   4 -10 37067.5 1708.14  12
  -2  -4 -10 37482.2 1897.32  11
   2  -4  10 37587.1 1700.75   3
   2  -4  10 39116.9 1962.48  18
  -2   4 -10 38022.8 1632.74   5
  -2   4 -10 36220.6 1891.08   2
  -2   4 -11 3183.55 626.785   2
  -2   4 -11 3502.43 568.432  12
  -2  -4 -11 4535.89 723.460  11
   2   4  11 4850.62 809.995   1
   2  -4  11 4278.20 614.697   3
   2  -4  11 4456.54 747.319  13
  -2  -4 -11 3940.08 596.204  12
   2  -4  11 2357.79 530.579  18
  -2   4 -12 22709.3 1657.55   2
  -2  -4 -12 22200.7 1627.43  11
  -2   4 -12 24320.6 1465.78  12
   2   4  12 21255.9 1584.62   1
   2  -4  12 22198.3 1610.05  18
   2  -4  12 22088.4 1624.33  14
   2  -4  12 22907.8 1688.74  13
  -2  -4 -13 1920.85 594.540  11
  -2  -4 -13 1280.35 439.154   2
   2  -4  13 1863.81 530.150  14
   2   4  13 1072.48 450.012   1
  -2   4 -13 1175.03 455.725   2
   2  -4  13 1872.92 527.614  18
  -2  -4 -14 3999.93 776.328   2
  -2   4 -14 3754.32 737.362   2
  -2  -4 -14 3892.51 765.731  11
   2   4  14 4715.37 871.791   1
   2  -4  14 4155.31 787.972  18
   2  -4  14 4188.71 772.637  14
   2  -4  15 2447.00 595.532  14
   2   4  15 2205.81 666.486   1
  -2  -4 -15 1753.71 590.122  11
  -2   4 -15 1800.48 549.231   2
   2  -4  15 2345.97 585.714  18
  -2  -4 -15 2343.55 603.209   2
   2  -4  16 1024.16 414.047  14
   2   5 -17 9494.71 1229.13   2
  -2   5  17 8835.02 1218.04   1
  -2  -5  17 7656.24 1065.54  17
  -2   5  17 9173.74 1241.55  15
   2  -5 -17 9289.82 1183.33  11
   2  -5 -16 423.500 355.124  11
   2   5 -16-102.818 254.675   2
   2   5 -16 36.8221 287.418   9
  -2  -5  16-80.9696 273.504  17
  -2   5  16 177.521 381.570   1
  -2   5  16 592.695 369.129  15
  -2  -5  16 116.019 254.096  13
   2   5 -15 17905.4 1566.04   2
  -2   5  15 16234.2 1549.19  15
   2  -5 -15 16448.9 1440.48  11
   2  -5 -15 15533.1 1309.81  10
   2   5 -15 15134.0 1322.57   9
  -2  -5  15 14082.8 1340.57  17
  -2  -5  15 16067.6 1551.84  13
  -2   5  15 14395.7 1463.78   1
   2  -5 -14 14.5076 256.562  11
   2  -5 -14 838.620 363.561  10
  -2  -5  14-16.5127 339.371  13
   2   5 -14 410.114 287.749   2
  -2  -5  14 71.6094 238.970  17
  -2   5  14 80.0875 316.216   1
  -2   5  14 561.462 346.163  15
   2   5 -13 3901.43 700.181   2
  -2   5  13 4187.71 774.850   1
   2  -5 -13 4397.75 672.725  10
  -2   5  13 4090.33 754.046  15
   2  -5 -13 3604.35 665.554  11
  -2  -5  13 4388.40 767.749  13
  -2  -5  13 4703.84 741.403  17
  -2  -5  12 3055.94 649.784  13
  -2   5  12 3158.32 667.734   1
   2  -5 -12 2705.99 531.250  11
  -2   5  12 3385.81 641.364  15
   2   5 -12 2736.66 568.697   2
   2  -5 -12 2414.03 466.505   2
  -2  -5  12 2905.47 553.106  17
   2  -5 -12 3847.14 614.329  10
   2  -5 -11 2136.13 485.667  11
   2  -5 -11 2907.46 505.442  10
  -2  -5  11 2539.69 579.863  13
  -2   5  11 1763.73 473.850  15
   2   5 -11 1280.47 386.011   2
  -2  -5  11 1550.40 386.733  17
  -2   5  11 2173.52 574.255   1
  -2  -5  10 96.4081 232.353  13
   2  -5 -10 202.845 248.318  11
   2   5 -10 300.642 245.013   5
  -2   5  10 550.116 340.560   1
   2  -5 -10 719.951 322.790  10
  -2   5  10 231.901 316.176  15
   2   5 -10 719.380 370.267   2
  -2  -5  10 247.743 237.975  17
  -2   5   9 27196.5 1541.73  15
   2  -5  -9 27284.4 1356.83  10
  -2  -5   9 25889.3 1393.88  17
  -2  -5   9 29766.1 1594.97  13
  -2   5   9 27530.3 1530.45   1
   2   5  -9 26194.8 1326.70   5
   2  -5  -9 29304.3 1502.21  11
   2   5  -9 26145.5 1494.18   2
   2  -5  -8 9405.22 812.946  11
   2   5  -8 9888.02 882.983   2
  -2   5   8 9396.54 879.300  15
   2  -5  -8 10732.1 818.672  10
   2   5  -8 9652.28 804.767   5
  -2  -5   8 9548.09 889.538  13
  -2   5   8 10779.5 952.515   1
  -2  -5   8 9698.20 812.128  17
   2  -5  -7 102445. 2428.68  10
  -2  -5   7 109367. 2597.66  17
   2  -5  -7 103679. 2564.60  11
  -2   5   7 110077. 2782.66  15
   2   5  -7 105068. 2735.49   2
  -2  -5   7 108008. 2702.56  13
   2  -5  -7 102697. 1928.36   3
  -2   5   7 110764. 2790.12   1
   2   5  -7 107084. 2576.28   5
  -2  -5   6 2058.07 365.826  17
  -2   5   6 1530.64 272.782   5
   2   5  -6 1965.06 379.483   2
   2  -5  -6 2144.80 358.496  10
   2   5  -6 2183.81 394.565   5
   2  -5  -6 1881.48 278.782   3
  -2   5   6 1934.57 394.486   1
  -2  -5   6 1993.27 395.187  13
   2  -5  -6 2148.61 387.034  11
   2   5  -5 83404.0 1578.75   7
  -2  -5   5 86313.1 2101.64  17
  -2   5   5 81642.3 1851.28   5
   2  -5  -5 80603.1 1805.99   3
  -2  -5   5 81032.3 2130.79  13
  -2   5   5 82801.6 2392.88   1
   2  -5  -5 83663.8 2052.63  10
   2   5  -5 86311.1 2239.55   5
   2   5  -5 82324.9 2222.42   2
   2  -5  -5 81379.4 2100.20  11
   2  -5  -4 3892.30 468.285  10
   2   5  -4 5160.53 591.397   5
  -2  -5   4 4630.19 483.350  17
  -2   5   4 5205.41 489.888   5
  -2  -5   4 4831.21 509.920  13
   2  -5  -4 5024.20 526.976  11
  -2  -5   4 5925.68 573.869  11
   2  -5  -4 4821.25 469.881   3
   2   5  -4 5111.99 560.319   2
   2  -5  -3 16495.7 895.696  10
   2   5  -3 17943.9 1025.06   5
  -2   5   3 16569.2 881.445   5
  -2  -5   3 15405.3 850.349  13
  -2  -5   3 16886.9 882.106  17
   2  -5  -3 16720.1 858.844   3
   2  -5  -3 16405.0 701.586  17
  -2  -5   3 16921.1 932.648  11
   2  -5  -3 16747.7 913.142  11
  -2  -5   2 668.147 183.131  13
  -2   5   2 611.461 219.407   5
  -2   5   2 816.368 175.499   8
   2  -5  -2 1403.17 299.252  10
   2  -5  -2 642.935 188.809  11
   2  -5  -2 1037.77 170.825  17
   2   5  -2 935.330 320.239   5
  -2  -5   2 835.496 224.968  17
   2  -5  -2 786.603 229.811   3
   2  -5  -2 877.204 95.9237  13
  -2  -5   2 898.466 236.778  11
   2  -5  -1 19543.5 978.272   3
  -2   5   1 20850.1 1032.82   5
  -2  -5   1 18601.8 991.427   4
  -2   5   1 19046.0 806.502   8
   2  -5  -1 18623.2 566.440  13
  -2  -5   1 19082.0 868.868  13
   2  -5  -1 19293.2 634.146  17
  -2   5   1 20195.2 881.127  16
   2  -5  -1 19105.9 955.268  11
  -2  -5   1 19176.6 928.037  17
  -2  -5   1 21113.0 1015.16  11
   2   5  -1 19914.5 1012.63  16
   2  -5  -1 21411.6 1020.12  10
   2   5  -1 18927.0 1017.37   5
  -2  -5   0 7482.80 639.484   4
  -2   5   0 7020.65 505.314   2
  -2  -5   0 7112.64 583.005  17
   2  -5   0 7511.26 640.248   3
  -2   5   0 6473.99 601.344   5
   2  -5   0 6965.12 588.935  11
   2   5   0 7029.08 607.791   5
  -2  -5   0 7000.50 521.964  13
   2  -5   0 7051.13 414.162  13
   2  -5   0 6696.91 359.077  17
  -2   5   0 8051.62 548.767   8
  -2   5   0 7412.86 515.882  16
   2   5   0 7275.11 631.469  16
  -2  -5   0 6583.15 585.813  11
   2  -5   1 73889.9 1925.72  11
  -2   5  -1 70271.8 1532.47  16
   2  -5   1 70830.3 1481.60  13
   2  -5   1 71956.2 1724.32   4
  -2  -5  -1 72728.0 1868.76  17
  -2  -5  -1 69511.1 1934.52   4
  -2  -5  -1 73884.3 1930.29  11
   2   5   1 62010.2 1723.13   1
   2  -5   1 70127.1 1942.24   3
  -2  -5  -1 71054.7 1631.76  13
   2  -5   1 71063.0 1160.92  17
   2   5   1 69666.3 1853.75   5
  -2   5  -1 70456.4 1652.06   2
  -2   5  -1 67798.0 1968.25   5
   2   5   1 71602.1 1987.96  16
   2  -5   2 9734.99 611.022  13
   2  -5   2 8813.97 596.185   4
   2   5   2 9845.88 685.210   1
  -2   5  -2 9173.86 640.164   2
   2   5   2 9527.72 705.997   5
  -2   5  -2 9333.87 764.051   5
  -2  -5  -2 9572.55 721.285  11
   2  -5   2 9329.35 751.232   3
  -2  -5  -2 8917.49 719.067   4
  -2  -5  -2 10808.8 749.906  17
   2  -5   2 9361.96 449.229  17
  -2  -5  -3 80135.3 1382.57  10
  -2   5  -3 86498.7 2321.92   5
   2  -5   3 86207.6 1828.03   4
   2  -5   3 84083.9 1472.51  17
  -2  -5  -3 82001.8 2166.23  17
   2  -5   3 87211.1 2277.70   3
   2   5   3 88001.4 2127.31   1
   2  -5   3 83409.6 1943.27  13
   2   5   3 78583.1 1939.44   5
  -2  -5  -3 84192.8 2178.32  11
  -2   5  -3 82202.4 2021.63   2
  -2   5  -4 35942.5 1408.49   2
   2   5   4 35431.8 1396.93   1
   2  -5   4 34748.1 1039.93  17
   2  -5   4 34843.3 1354.07  13
   2  -5   4 35542.6 1159.02   4
  -2  -5  -4 35554.9 1490.37  17
   2   5   4 34535.4 1278.64   5
  -2  -5  -4 36366.9 1489.90  11
  -2   5  -4 38377.2 1573.49   5
   2   5   5 13954.0 937.366   1
  -2  -5  -5 14161.3 984.756  17
   2  -5   5 15373.7 761.343   4
   2  -5   5 14985.5 747.869  17
   2  -5   5 15094.6 968.603  13
  -2  -5  -5 15128.8 1021.82  11
   2   5   5 14400.5 827.793   5
  -2   5  -5 15150.8 982.144   2
  -2   5  -5 13720.6 990.484   5
  -2   5  -6 11159.8 886.109   5
   2  -5   6 11381.4 709.565  17
   2   5   6 11646.0 931.178   1
  -2  -5  -6 9450.27 849.179  11
  -2   5  -6 10002.9 839.888   2
   2  -5   6 10871.4 873.267  13
  -2  -5  -6 9411.50 855.040  17
   2   5   6 10719.1 703.781   5
   2   5   7 13340.1 1028.05   1
  -2   5  -7 13665.5 1030.68   2
   2  -5   7 12720.7 1001.13  13
  -2  -5  -7 14231.5 1067.91  11
  -2   5  -7 13382.4 1001.85   5
  -2   5  -8 19569.6 1230.23   5
   2   5   8 17923.5 1248.47   1
   2  -5   8 19311.1 1307.80  13
  -2   5  -8 19338.4 1301.26   2
  -2  -5  -8 18361.3 1278.40  11
   2   5   9 39319.0 1912.48   1
  -2   5  -9 41154.2 1807.46   5
   2  -5   9 44440.5 2080.49  13
   2  -5   9 41652.0 1864.62   3
   2  -5   9 37951.9 1905.30  18
  -2   5  -9 40857.3 1965.35   2
  -2  -5  -9 40934.8 1978.62  11
  -2  -5 -10 2689.83 588.993  11
   2  -5  10 2448.42 519.345   3
  -2   5 -10 2513.84 531.876   2
   2  -5  10 2747.94 596.855  18
   2   5  10 2659.40 625.662   1
  -2   5 -10 2973.45 531.723   5
   2  -5  10 3563.50 654.442  13
   2   5  11 18883.6 1492.72   1
   2  -5  11 18079.8 1315.54   3
   2  -5  11 21671.2 1604.02  13
   2  -5  11 18272.0 1441.18  18
  -2   5 -11 19108.8 1486.40   2
  -2  -5 -11 20040.2 1513.52  11
  -2   5 -12 3367.44 682.367   2
   2  -5  12 2358.76 515.627   3
   2  -5  12 3046.64 677.759  18
   2  -5  12 2853.15 648.113  13
  -2  -5 -12 3088.67 670.878  11
   2   5  12 2604.10 683.635   1
  -2  -5 -13 2497.94 608.950  11
  -2  -5 -13 3350.00 696.639   2
  -2   5 -13 3029.55 681.797   2
   2  -5  13 2498.87 624.740  14
   2  -5  13 1684.19 501.887  18
   2  -5  13 2366.61 607.820  13
   2   5  13 2506.28 641.574   1
  -2  -5 -14 756.295 410.129  11
  -2  -5 -14 105.544 219.704   2
   2   5  14 60.9054 327.513   1
   2  -5  14 399.499 330.783  14
   2  -5  14-299.407 396.281  18
  -2   5 -14-294.606 364.100   2
   2  -5  15 2660.56 678.987  14
  -2   5 -15 1017.63 434.058   2
   2  -5  15 1580.39 490.126  18
   2   5  15 997.339 489.135   1
  -2  -5 -15 1906.85 602.465   2
  -2  -5 -15 1394.50 483.575  11
  -2  -6  16 3827.90 759.586  17
   2   6 -16 5132.56 845.807   9
   2   6 -16 5790.05 961.874   2
  -2   6  16 4590.57 866.380   1
  -2  -6  16 6467.89 1068.42  13
   2  -6 -16 3641.62 741.452  11
  -2  -6  15 915.690 403.186  17
   2   6 -15 18.0932 293.902   2
  -2   6  15 643.956 498.174   1
  -2  -6  15 405.663 438.156  13
   2  -6 -15 119.048 269.136  11
  -2  -6  14 6016.26 864.005  17
  -2   6  14 5444.77 943.212   1
  -2  -6  14 6300.00 975.647  13
   2   6 -14 7315.95 1006.67   2
   2  -6 -14 6368.35 901.186  11
   2   6 -13 426.194 341.573   2
   2  -6 -13 929.744 345.576  10
   2  -6 -13-3.90851 242.968  11
  -2  -6  13 440.225 350.268  13
  -2  -6  13 878.464 354.376  17
  -2   6  13 260.534 354.280   1
   2  -6 -12 5525.19 794.285  11
   2  -6 -12 5439.33 708.988  10
  -2  -6  12 5183.15 751.520  17
   2   6 -12 5146.82 803.574   2
  -2  -6  12 4235.44 742.264  13
  -2   6  12 5024.73 785.640   1
   2   6 -11 216.117 236.190   5
   2   6 -11 47.3920 243.185   2
   2  -6 -11 64.7818 202.703  10
  -2  -6  11 2.12311 194.222  17
  -2  -6  11 749.438 385.540  13
  -2   6  11 51.1016 288.676   1
   2  -6 -11-153.173 238.024  11
   2   6 -10 9812.84 1015.29   2
   2  -6 -10 10070.2 898.032  10
  -2  -6  10 11151.9 1074.50  13
  -2  -6  10 10759.7 971.497  17
   2  -6 -10 11160.2 1023.41  11
   2   6 -10 9971.06 932.992   5
  -2   6  10 10032.6 1043.21   1
   2   6  -9 4239.59 604.470   5
   2  -6  -9 4089.97 607.457  11
   2  -6  -9 4772.55 598.114  10
  -2  -6   9 5397.42 744.037  13
   2   6  -9 3596.56 621.731   2
  -2  -6   9 3634.70 554.452  17
  -2   6   9 4793.55 711.409   1
   2  -6  -8 17636.3 1089.64  10
  -2   6   8 19410.1 1352.05   1
   2  -6  -8 19796.4 1262.28  11
   2   6  -8 19371.2 1225.15   5
  -2  -6   8 20618.9 1308.54  13
  -2  -6   8 19406.9 1181.65  17
   2   6  -8 18892.4 1282.99   2
   2   6  -7 3929.47 599.157   2
   2  -6  -7 4338.90 576.065  11
   2   6  -7 4845.06 634.653   5
  -2  -6   7 5091.10 636.789  13
  -2   6   7 4645.02 652.146   1
  -2  -6   7 4167.52 554.130  17
   2  -6  -7 4866.03 569.075  10
   2  -6  -6 26926.9 1272.94  10
  -2  -6   6 26816.7 1292.15  17
  -2  -6   6 25636.3 1329.69  13
  -2   6   6 26106.6 1145.64   5
  -2   6   6 26213.6 1410.57   1
   2  -6  -6 24790.6 1065.73   3
   2   6  -6 27393.7 1431.30   2
   2   6  -6 24768.4 1369.93   5
   2  -6  -6 25445.1 1321.94  11
   2  -6  -5 48224.9 1679.24  10
  -2   6   5 49462.5 1901.50   1
   2  -6  -5 45929.5 1741.24  11
   2  -6  -5 43139.8 1439.21   3
   2   6  -5 46172.9 1301.98   7
  -2  -6   5 47511.8 1660.16  17
   2   6  -5 44910.3 1764.72   2
  -2  -6   5 47914.4 1729.42  13
  -2   6   5 45022.2 1547.11   5
   2   6  -5 47666.7 1853.78   5
   2  -6  -4 60133.6 1858.26  10
   2  -6  -4 59252.2 1726.78   3
  -2   6   4 63259.4 1866.65   5
  -2  -6   4 60882.6 1871.59  13
  -2  -6   4 63908.5 2020.14  11
  -2  -6   4 62069.2 1853.55  17
   2   6  -4 60332.2 1998.86   2
   2   6  -4 62385.0 2088.01   5
   2  -6  -4 58294.7 1910.55  11
  -2  -6   3 8754.95 761.082  11
  -2  -6   3 8515.79 684.293  13
   2  -6  -3 7936.63 530.342  17
  -2   6   3 7949.48 539.908   8
   2  -6  -3 8095.14 654.965   3
   2  -6  -3 7575.58 670.095  10
  -2  -6   3 8535.25 680.856  17
  -2   6   3 8591.90 723.162   5
   2   6  -3 8147.79 790.396   5
   2  -6  -3 8098.24 708.128  11
   2  -6  -2 65062.2 1406.15  17
   2  -6  -2 66745.0 1929.45  10
  -2  -6   2 64602.9 2013.87   4
   2  -6  -2 62733.3 1872.94   3
  -2  -6   2 64818.5 1779.33  13
  -2  -6   2 65554.0 1850.35  17
  -2   6   2 62671.9 1509.37   8
   2   6  -2 62488.5 2031.74   5
  -2   6   2 65912.1 2009.13   5
   2  -6  -2 62283.7 1914.57  11
  -2  -6   2 64736.7 1984.57  11
   2  -6  -1 104259. 2495.03  11
   2  -6  -1 107760. 2505.55   3
  -2  -6   1 107726. 2371.16  17
   2   6  -1 106828. 2585.29  16
  -2   6   1 107018. 2019.96   8
  -2  -6   1 105625. 2537.63  11
  -2   6   1 108254. 2274.19  16
  -2  -6   1 103320. 2188.92  13
  -2  -6   1 111893. 2649.87   4
   2  -6  -1 102991. 1680.34  17
   2   6  -1 107807. 2617.72   5
  -2   6   1 107320. 2594.85   5
  -2  -6   0 59800.5 1613.19  13
   2  -6   0 58288.4 1281.22  13
   2  -6   0 60113.3 1912.20   3
  -2  -6   0 56578.4 1908.70   4
   2   6   0 59593.6 1948.43  16
  -2  -6   0 59180.1 1775.56  17
   2  -6   0 58676.5 1893.07  11
  -2   6   0 58433.5 1631.49  16
  -2   6   0 60675.0 1995.22   5
   2   6   0 58575.7 1917.45   5
  -2  -6   0 58624.6 1895.37  11
  -2  -6  -1 494.165 180.012  11
   2   6   1 1466.43 386.676   5
   2  -6   1 285.415 184.509  11
   2   6   1 458.756 201.277   1
  -2   6  -1 467.495 262.076   5
  -2  -6  -1 941.135 323.303   4
  -2   6  -1 818.358 211.258  16
   2   6   1 599.101 267.249  16
  -2   6  -1 501.496 179.408   2
  -2  -6  -1 318.428 150.165  13
   2  -6   1 816.794 188.205  13
  -2  -6  -1 569.562 204.814  17
   2  -6   1 711.442 326.210   3
   2   6   2 32298.1 1514.65  16
  -2  -6  -2 32628.3 1399.76  17
   2   6   2 31286.9 1295.91   1
  -2  -6  -2 31504.6 1465.17   4
  -2   6  -2 31510.9 1518.89   5
   2  -6   2 32877.6 1182.82  13
   2  -6   2 29265.1 1411.08   3
   2  -6   2 31589.0 1258.79   4
   2   6   2 29499.5 1344.23   5
  -2  -6  -2 31741.3 1447.36  11
  -2  -6  -2 28844.1 1134.48  13
  -2   6  -2 32079.5 1285.27   2
   2  -6   3 62503.1 1770.18  13
   2  -6   3 60522.4 2083.45   3
  -2  -6  -3 63306.3 2015.40  17
   2   6   3 61704.8 1892.39   5
  -2  -6  -3 61053.4 1482.92   3
  -2  -6  -3 61076.1 1649.76  13
   2  -6   3 63174.3 1769.76   4
  -2   6  -3 61468.8 1875.96   2
   2   6   3 64865.4 1927.88   1
  -2  -6  -3 59185.1 2022.03  11
  -2   6  -3 62449.1 2156.66   5
   2   6   4 19622.9 1070.75   5
   2   6   4 18633.6 1109.03   1
   2  -6   4 21372.3 1015.73   4
  -2   6  -4 19123.3 1242.59   5
  -2   6  -4 18956.1 1101.39   2
  -2  -6  -4 22569.3 1252.08  17
   2  -6   4 21167.3 1268.55   3
   2  -6   4 20844.7 1102.87  13
  -2  -6  -4 20395.4 1217.35  11
   2   6   5 1345.33 362.387   1
  -2   6  -5 1722.29 402.472   5
  -2  -6  -5 2632.72 497.634  17
   2  -6   5 2654.53 367.035   4
  -2   6  -5 1512.70 369.645   2
   2  -6   5 2155.24 392.424  13
   2   6   5 1692.34 361.328   5
   2  -6   5 2065.77 461.161   3
  -2  -6  -5 1964.62 448.613  11
  -2   6  -6 32964.3 1597.38   2
   2  -6   6 33815.9 1694.02   3
  -2   6  -6 31633.2 1627.13   5
   2  -6   6 34132.1 1588.16  13
   2   6   6 34075.4 1371.24   5
  -2  -6  -6 33545.2 1670.31  17
   2   6   6 32477.5 1592.86   1
  -2  -6  -6 33523.8 1676.01  11
   2  -6   7 6030.40 765.724   3
  -2   6  -7 6563.07 765.079   2
  -2   6  -7 5988.10 754.466   5
   2  -6   7 5833.52 733.657  13
   2   6   7 6787.35 778.777   1
  -2  -6  -7 7155.88 822.232  11
   2   6   8 17865.9 1305.59   1
  -2   6  -8 18484.7 1317.20   2
  -2  -6  -8 18005.1 1324.00  11
   2  -6   8 16772.2 1267.27   3
   2  -6   8 17928.0 1282.76  13
  -2   6  -8 17363.7 1253.15   5
   2   6   9 3779.60 696.817   1
   2  -6   9 3637.92 633.824  13
  -2  -6  -9 3600.44 652.339  11
  -2   6  -9 3505.10 625.540   2
  -2   6  -9 3204.98 573.493   5
   2  -6   9 3542.39 624.434   3
  -2   6 -10 8769.35 1011.28   2
   2   6  10 10168.7 1101.95   1
  -2  -6 -10 9767.97 1063.30  11
   2  -6  10 9147.00 990.621   3
   2  -6  10 10040.2 1062.67  13
  -2   6 -10 8555.86 920.162   5
   2  -6  11 586.821 327.403   3
  -2   6 -11 567.417 316.709   2
   2   6  11 1229.15 504.978   1
  -2  -6 -11-146.579 310.238  11
   2  -6  11 535.590 379.783  13
   2   6  12 4697.99 807.378   1
  -2   6 -12 5068.59 844.300   2
   2  -6  12 3700.40 740.622  13
   2  -6  12 4043.92 705.040   3
  -2  -6 -12 5573.88 880.137  11
  -2  -6 -13 2365.42 610.176  11
  -2   6 -13 1916.78 529.472   2
   2   6  13 1415.71 568.870   1
   2  -6  13 2183.24 570.561  13
   2  -6  13 1852.65 585.342  14
  -2  -6 -14 3905.39 827.071  11
   2   6  14 2852.08 705.550   1
  -2   6 -14 3423.96 767.755   2
   2  -6  14 3500.78 767.979  14
  -2  -6 -14 2597.52 657.484   2
  -2  -7  15 1737.37 514.104  17
  -2  -7  15 2984.68 750.599  13
   2  -7 -15 2233.94 586.513  11
   2   7 -15 1633.34 557.232   2
  -2   7  15 2419.11 696.398   1
   2   7 -14 206.272 239.602   2
  -2  -7  14 282.667 284.110  17
   2  -7 -14-543.560 333.105  11
  -2  -7  14-115.980 333.275  13
  -2   7  14 147.878 329.137   1
  -2  -7  13 17283.0 1571.25  13
   2  -7 -13 13380.7 1346.53  11
  -2   7  13 14877.8 1465.16   1
  -2  -7  13 14241.9 1295.95  17
   2   7 -13 13422.1 1376.32   2
   2  -7 -12 978.998 452.841  11
  -2  -7  12 910.581 368.733  17
   2   7 -12 1872.82 526.588   2
  -2  -7  12 1517.20 495.933  13
  -2   7  12 2044.54 634.857   1
  -2   7  11 17966.4 1526.40   1
  -2  -7  11 20240.4 1420.89  17
  -2  -7  11 20074.2 1555.03  13
   2   7 -11 18196.6 1485.14   2
   2   7 -11 21209.0 1457.19   5
   2  -7 -11 20693.5 1522.36  11
   2   7 -10-308.677 260.651   5
   2  -7 -10 13.9206 166.717  10
  -2   7  10-256.646 417.457   1
  -2  -7  10-17.1409 211.136  17
   2   7 -10 286.414 297.493   2
   2  -7 -10-138.855 241.143  11
  -2  -7  10 399.746 329.516  13
   2  -7  -9 10329.3 909.446  10
  -2   7   9 9791.49 1049.65   1
   2  -7  -9 10766.2 1043.39  11
  -2  -7   9 9966.44 927.742  17
   2   7  -9 10289.2 1008.99   5
   2   7  -9 10266.0 1044.11   2
  -2  -7   9 11323.8 1074.75  13
   2  -7  -8 8285.91 802.429  10
   2   7  -8 8209.77 891.416   5
  -2   7   8 7856.89 941.209   1
  -2  -7   8 8503.09 826.857  17
  -2  -7   8 10280.7 973.388  13
   2  -7  -8 8482.61 892.018  11
   2   7  -8 8885.27 950.973   2
   2  -7  -7 17373.6 1120.80  10
  -2  -7   7 18395.5 1164.84  17
   2   7  -7 15507.3 1204.38   5
  -2   7   7 17588.1 1308.73   1
  -2  -7   7 17425.1 1219.07  13
   2   7  -7 14851.6 1168.44   2
   2  -7  -7 17074.8 1215.39  11
   2  -7  -6 1160.98 378.486  11
  -2  -7   6 1380.41 378.189  13
   2   7  -6 1081.37 432.765   5
  -2   7   6 947.270 299.519   5
   2  -7  -6 1234.53 327.811  10
   2   7  -6 811.874 339.813   2
  -2   7   6 658.817 373.334   1
  -2  -7   6 768.752 272.402  17
  -2   7   5 19065.9 1291.82   1
  -2  -7   5 19621.2 1182.71  13
  -2   7   5 20987.0 1172.19   5
  -2  -7   5 22611.7 1212.81  17
   2  -7  -5 20631.3 1083.40   3
   2  -7  -5 21006.4 1286.19  11
   2  -7  -5 21327.0 1204.30  10
   2   7  -5 20352.4 1291.84   2
   2   7  -5 19500.5 1314.60   5
  -2  -7   4 5693.71 678.065  11
   2  -7  -4 6411.69 659.064  10
   2   7  -4 5114.53 687.906   5
  -2  -7   4 6321.46 661.857  13
  -2  -7   4 5465.08 676.065   4
  -2  -7   4 7182.01 689.075  17
   2  -7  -4 6232.72 628.238   3
  -2   7   4 7096.08 718.913   5
   2  -7  -4 5851.89 684.483  11
   2   7  -3 18020.7 1244.67   5
   2  -7  -3 17760.2 1055.05   3
   2  -7  -3 21175.4 1243.32  11
   2  -7  -3 17983.4 1091.75  10
  -2  -7   3 19198.0 1200.31   4
  -2  -7   3 20477.3 1124.95  17
  -2  -7   3 17347.7 1016.49  13
  -2   7   3 18835.8 1163.12   5
  -2  -7   3 19574.6 1227.38  11
   2  -7  -2 4218.54 568.208  11
  -2  -7   2 3753.30 561.454  11
  -2  -7   2 4555.28 550.235  17
  -2   7   2 4821.41 651.005   5
  -2  -7   2 3810.87 480.518  13
  -2  -7   2 3418.64 546.119   4
  -2   7   2 4974.17 578.302  16
   2   7  -2 4495.73 658.998   5
   2  -7  -2 5284.05 594.862   3
  -2   7   1 34480.6 1420.48  16
   2  -7  -1 34880.4 1581.86  11
  -2  -7   1 32293.4 1571.97   4
  -2  -7   1 33899.1 1425.17  17
  -2  -7   1 33396.6 1563.26  11
   2   7  -1 31058.7 1570.40   5
  -2  -7   1 33395.9 1333.56  13
   2  -7  -1 30378.0 1443.22   3
   2   7  -1 34905.5 1602.06  16
  -2   7   1 33779.2 1607.81   5
  -2   7   0-94.2459 242.418   5
  -2  -7   0-83.0350 207.334  17
  -2  -7   0 491.360 264.331  11
   2   7   0 695.677 374.371   5
   2  -7   0 106.186 219.906  11
  -2   7   0 383.828 205.506  16
   2   7   0 311.367 179.485   1
   2  -7   0 368.764 240.320   3
  -2  -7   0 8.08038 212.864   4
  -2  -7   0 298.915 176.913  13
   2   7   0 340.965 226.610  16
   2  -7   1 43982.5 1806.05  11
  -2  -7  -1 39337.1 1725.85  11
  -2  -7  -1 40824.2 1425.61  13
   2  -7   1 39649.8 1732.57   3
   2   7   1 36621.6 1540.12   1
   2   7   1 43182.2 1837.04  16
  -2  -7  -1 39618.7 1781.06   4
  -2  -7  -1 41409.1 1643.19  17
   2   7   1 39933.0 1711.23   5
  -2   7  -1 39803.5 1812.23   5
  -2  -7  -2 1389.68 365.776  11
  -2   7  -2 1037.29 376.008   5
   2   7   2 1827.56 415.516   1
   2   7   2 1767.51 409.157  16
  -2  -7  -2 2368.09 435.720  17
  -2  -7  -2 1725.17 312.937  13
   2  -7   2 2299.51 487.375   3
   2   7   2 1694.56 416.297   5
  -2  -7  -2 1162.80 327.379   4
  -2   7  -2 1751.11 352.172   2
   2   7   3 24091.0 1302.17   5
  -2  -7  -3 22664.5 1287.12  17
   2  -7   3 23494.0 1187.88   4
   2   7   3 24739.0 1479.34  16
   2  -7   3 23339.8 1405.62   3
  -2  -7  -3 24638.2 1100.92  13
   2   7   3 24915.1 1317.32   1
   2  -7   3 25750.7 1192.69  13
  -2   7  -3 24197.0 1265.52   2
  -2   7  -3 24146.9 1463.20   5
  -2  -7  -3 23538.1 1368.18  11
  -2  -7  -4 1388.02 382.263  11
   2   7   4 1730.90 414.215   5
  -2   7  -4 915.267 272.210   2
  -2  -7  -4 1197.84 342.156  17
   2  -7   4 1152.22 296.142  13
   2   7   4 1942.97 444.046   1
  -2   7  -4 940.418 319.515   5
   2  -7   4 879.164 240.817   4
   2  -7   4 1588.82 445.112   3
   2  -7   5 10804.4 1004.08   3
   2   7   5 10474.6 932.775   1
   2  -7   5 10636.4 879.773  13
  -2  -7  -5 11425.4 1020.47  11
   2   7   5 10121.9 850.297   5
  -2  -7  -5 11311.8 985.608  17
  -2   7  -5 11047.6 1033.92   5
  -2   7  -5 10695.9 926.864   2
  -2  -7  -6 1042.55 331.430  11
  -2   7  -6 1453.15 456.653   5
   2   7   6 2041.99 460.288   1
  -2   7  -6 2019.86 450.882   2
   2  -7   6 1785.40 419.067  13
  -2  -7  -6 1440.20 362.884  17
   2  -7   6 1645.73 454.528   3
   2  -7   7 10214.6 1020.89   3
   2  -7   7 12136.0 1045.43  13
  -2   7  -7 11697.2 1061.62   2
   2   7   7 9780.17 970.259   1
  -2  -7  -7 10548.6 1048.15  11
  -2   7  -7 10650.7 1052.95   5
  -2  -7  -8 4478.35 705.380  11
  -2   7  -8 5503.87 802.458   5
   2   7   8 4130.49 670.235   1
  -2   7  -8 3906.08 660.533   2
   2  -7   8 4889.23 749.826   3
   2  -7   8 4804.68 696.675  13
   2   7   9 9611.83 1058.94   1
  -2   7  -9 9984.36 1056.18   2
   2  -7   9 10783.7 1104.86   3
   2  -7   9 10829.0 1086.03  13
  -2   7  -9 10304.9 1058.04   5
  -2  -7  -9 11424.6 1146.89  11
  -2  -7 -10 1884.94 508.244  11
  -2   7 -10 2326.86 551.173   2
  -2   7 -10 2586.17 581.855   5
   2   7  10 2055.36 612.461   1
   2  -7  10 2118.27 529.438  13
   2  -7  10 1730.97 500.485   3
  -2   7 -11 8155.66 1055.55   2
   2   7  11 10457.9 1189.23   1
   2  -7  11 9854.34 1110.43   3
   2  -7  11 10736.1 1178.20  13
  -2  -7 -11 8897.07 1097.31  11
  -2   7 -12 333.449 244.890   2
   2   7  12 1484.19 581.324   1
   2  -7  12 454.867 323.659   3
  -2  -7 -12 494.819 335.910  11
   2  -7  12 888.823 404.232  13
   2   7  13 8803.86 1171.33   1
  -2   7 -13 5956.67 960.869   2
   2  -7  13 8160.15 1049.02   3
  -2  -7 -13 9317.87 1187.18  11
   2  -7  13 9394.37 1204.71  13
  -2  -7 -14-286.725 298.512   2
   2   8 -14 4646.35 874.723   2
  -2  -8  14 5435.80 931.970  13
  -2   8  14 3599.55 829.885   1
   2  -8 -14 5721.49 907.866  11
   2  -8 -13 116.493 287.757  11
   2   8 -13-24.9084 268.894   2
  -2  -8  13 389.863 433.583  13
  -2   8  13 222.957 420.805   1
  -2   8  12 8477.54 1155.55   1
  -2  -8  12 10637.4 1215.15  13
   2   8 -12 10258.8 1201.24   2
   2  -8 -12 11731.4 1236.94  11
   2   8 -11 1638.55 476.162   5
  -2  -8  11 2097.08 508.747  17
   2   8 -11 2671.09 625.328   2
   2  -8 -11 2967.41 664.408  11
  -2  -8  11 2532.94 598.016  13
  -2   8  11 2533.44 645.213   1
   2   8 -10 3452.23 672.559   5
  -2   8  10 3638.18 726.025   1
  -2  -8  10 2762.94 596.107  13
   2  -8 -10 3610.74 680.068  11
  -2  -8  10 2839.08 542.886  17
   2   8 -10 3537.46 696.388   2
   2  -8  -9 419.533 311.747  11
   2   8  -9-71.3781 287.530   5
  -2  -8   9 239.563 210.432  17
  -2  -8   9 402.353 257.889  13
   2   8  -9 265.897 274.886   2
  -2   8   9 722.742 396.655   1
   2   8  -8 2065.37 499.670   2
   2   8  -8 1208.94 435.199   5
   2  -8  -8 2324.37 473.008  10
   2  -8  -8 2751.39 553.545  11
  -2  -8   8 2003.47 436.741  17
  -2  -8   8 2350.96 518.596  13
  -2   8   8 2059.38 581.539   1
   2  -8  -7 2680.22 542.739  11
  -2   8   7 3897.29 715.935   1
  -2  -8   7 2784.43 533.855   4
   2  -8  -7 2642.36 491.515  10
  -2  -8   7 3176.36 583.664  13
   2   8  -7 2562.65 568.706   5
   2   8  -7 3055.39 580.326   2
  -2  -8   7 2501.00 472.833  17
   2  -8  -6 20964.4 1291.70  10
  -2  -8   6 19425.3 1227.07  17
  -2   8   6 20342.1 1235.72   5
  -2  -8   6 21631.0 1406.16   4
   2   8  -6 19317.5 1426.58   5
  -2  -8   6 21468.4 1357.36  13
  -2   8   6 19838.8 1434.24   1
   2  -8  -6 23127.0 1479.84  11
   2  -8  -5 687.328 338.381  11
   2   8  -5 648.555 350.703   5
   2  -8  -5 989.018 309.134  10
  -2  -8   5 1100.42 376.838   4
  -2   8   5 401.872 210.431   5
  -2  -8   5 1273.36 375.414  13
  -2   8   5 207.851 266.553   1
  -2  -8   5 460.281 229.553  17
   2  -8  -5 906.707 258.177   3
  -2  -8   4 43042.7 1991.14  11
   2  -8  -4 45153.6 1835.14  10
  -2   8   4 44661.2 2055.49   1
   2  -8  -4 39113.2 1658.35   3
  -2  -8   4 42102.8 1939.21   4
  -2  -8   4 47433.3 1851.14  13
  -2  -8   4 39221.0 1684.27  17
   2   8  -4 43228.8 2035.49   5
   2  -8  -4 46298.6 2024.50  11
  -2   8   4 44416.1 1884.63   5
   2   8  -3 3357.16 654.144   5
  -2  -8   3 2980.91 470.297  17
   2  -8  -3 2668.67 530.366  11
  -2  -8   3 3842.31 640.019  11
   2  -8  -3 2793.30 466.519   3
  -2   8   3 3264.30 531.557  16
  -2  -8   3 2467.56 440.512  13
  -2  -8   3 4000.07 658.054   4
  -2   8   3 3307.36 583.022   5
  -2  -8   2 38788.6 1839.20  11
  -2  -8   2 37939.4 1618.88  17
  -2   8   2 42920.8 1773.87  16
  -2  -8   2 38793.3 1849.30   4
   2  -8  -2 38824.1 1722.50   3
  -2  -8   2 40886.1 1612.20  13
   2  -8  -2 38409.6 1820.27  11
   2   8  -2 38777.9 1897.78   5
  -2   8   2 38422.8 1827.28   5
   2  -8  -1 560.239 275.257  11
   2   8  -1 414.568 306.157   5
  -2  -8   1 268.228 187.358  13
  -2  -8   1 432.730 249.984   4
  -2   8   1 220.602 353.523   5
  -2  -8   1 91.0763 180.565  17
   2  -8  -1 380.263 257.557   3
   2   8  -1 603.940 312.553  16
  -2   8   1 475.395 252.514  16
  -2  -8   1 732.953 321.747  11
   2  -8   0 7154.43 788.045  11
   2   8   0 7819.89 864.498   5
  -2  -8   0 6352.89 761.292   4
   2  -8   0 5910.67 707.701   3
  -2  -8   0 6215.53 607.787  13
   2   8   0 6746.25 791.805  16
  -2   8   0 7114.98 698.508  16
  -2  -8   0 7731.20 838.820  11
  -2   8   0 6546.27 816.176   5
  -2  -8   0 6377.12 696.545  17
   2   8   0 6702.76 720.507   1
   2   8   1-35.4801 290.425   5
   2   8   1 132.184 190.665   1
  -2  -8  -1 94.2311 187.974  17
   2  -8   1-99.6847 225.065   3
  -2  -8  -1-85.0624 286.748   4
   2   8   1-274.301 296.007  16
  -2  -8  -1 270.277 234.499  11
  -2   8  -1-40.9309 354.788   5
   2  -8   1-323.261 304.877  11
  -2  -8  -2-57.7350 271.814  11
   2   8   2 224.715 301.757   5
   2   8   2 278.358 246.776   1
   2   8   2 634.278 355.485  16
   2  -8   2 340.591 230.776   3
  -2  -8  -2 235.319 222.843  17
  -2   8  -2 813.100 431.667   5
  -2  -8  -3 660.071 335.498  11
   2   8   3 581.372 350.464   1
  -2   8  -3-88.3562 167.054   2
  -2  -8  -3 278.907 194.252  17
   2  -8   3 161.676 293.457   3
   2   8   3 1128.08 422.436   5
  -2   8  -3 130.791 289.861   5
   2   8   3 689.631 370.954  16
   2   8   4 22263.7 1515.19  16
   2   8   4 19460.1 1279.50   5
   2  -8   4 20180.4 1194.27   4
   2   8   4 22045.3 1371.56   1
   2  -8   4 21142.3 1454.91   3
  -2   8  -4 21473.3 1337.11   2
  -2   8  -4 21698.4 1549.41   5
  -2  -8  -4 21700.2 1466.51  11
  -2  -8  -4 20866.2 1338.66  17
  -2  -8  -5 3570.08 658.394  11
  -2   8  -5 4214.10 767.612   5
   2   8   5 4981.77 763.660  16
   2   8   5 4272.93 615.949   5
  -2   8  -5 3803.83 602.000   2
  -2  -8  -5 4251.06 650.870  17
   2   8   5 2354.01 527.794   1
   2  -8   5 3360.28 614.608   3
   2   8   6 57555.0 2346.07   1
  -2  -8  -6 62553.9 2589.64  11
  -2  -8  -6 58575.0 2405.43  17
   2  -8   6 56680.0 2494.52   3
  -2   8  -6 57237.0 2539.18   5
   2  -8   6 64507.7 2333.29  13
  -2   8  -6 61172.7 2406.69   2
   2  -8   7 1288.66 494.061   3
  -2  -8  -7 1539.42 460.832  11
   2   8   7 1467.08 476.058   1
  -2   8  -7 1157.97 453.051   5
   2  -8   7 2065.69 460.081  13
  -2   8  -7 1871.53 476.452   2
   2  -8   8 19475.6 1523.07   3
  -2   8  -8 19085.6 1456.81   2
   2   8   8 19428.2 1499.58   1
   2  -8   8 19556.2 1436.77  13
  -2   8  -8 18009.1 1466.77   5
  -2  -8  -8 21025.9 1603.09  11
  -2  -8  -9 2362.52 598.196  11
  -2   8  -9 2706.16 627.306   2
  -2   8  -9 1884.64 555.020   5
   2  -8   9 2178.23 530.034  13
   2   8   9 3588.95 745.927   1
   2  -8   9 1737.62 528.129   3
  -2  -8 -10-213.235 282.459  11
  -2   8 -10-148.895 267.810   5
   2  -8  10 365.571 278.334   3
  -2   8 -10 160.186 232.433   2
   2   8  10 340.382 402.450   1
   2  -8  10-95.5211 291.572  13
  -2   8 -11 66.3760 303.026   5
   2  -8  11-128.203 235.937   3
   2  -8  11 227.959 281.972  13
   2   8  11 831.856 537.387   1
  -2   8 -11 778.307 384.447   2
  -2  -8 -11-243.234 327.097  11
  -2  -8 -12 31.5761 305.397  11
   2   8  12 100.972 422.806   1
  -2   8 -12 61.0608 307.177   2
   2  -8  12 399.923 354.989   3
   2  -8  13 169.923 333.582  13
   2  -8  13 420.344 302.503   3
   2  -9 -13 4561.32 841.559  11
  -2  -9  13 3477.61 758.709  13
   2  -9 -12 590.174 415.279  11
  -2   9  12 548.735 447.113   1
   2   9 -12 223.254 270.266   2
  -2  -9  12 57.2677 291.274  13
  -2   9  11 3682.46 852.140   1
   2   9 -11 5806.51 910.754   2
  -2  -9  11 5920.43 925.482  13
   2  -9 -11 6400.02 966.037  11
   2   9 -11 5107.77 868.185   5
  -2  -9  10 743.664 334.723  13
   2  -9 -10 557.615 332.972  11
  -2   9  10 475.535 381.466   1
   2   9 -10 710.983 468.100   5
   2   9 -10 681.654 373.136   2
  -2   9   9 9261.63 1143.49   1
   2   9  -9 9218.94 1097.58   5
   2  -9  -9 10779.6 1152.46  11
  -2  -9   9 10781.0 1089.04   4
   2   9  -9 9143.50 1116.31   2
  -2  -9   9 9811.16 1089.18  13
  -2  -9   8 589.233 336.219   4
   2  -9  -8 630.537 362.341  11
   2   9  -8 539.284 452.846   5
   2   9  -8 998.613 418.940   2
  -2  -9   8 733.729 367.450  13
  -2   9   8 581.840 422.742   1
  -2  -9   7 16781.8 1327.53   4
  -2   9   7 17559.3 1480.12   1
   2   9  -7 15837.1 1410.41   5
   2  -9  -7 19121.1 1462.64  11
  -2  -9   7 19137.0 1393.61  13
   2   9  -6 424.125 468.674   5
  -2  -9   6 204.500 233.921   4
   2  -9  -6 301.234 328.503  11
  -2  -9   6 275.922 235.447  13
  -2   9   6-51.4162 287.742   1
  -2   9   5 5023.78 878.657   1
  -2  -9   5 7896.83 909.529   4
   2   9  -5 7704.71 979.218   5
  -2   9   5 8241.40 904.342   5
   2  -9  -5 7523.55 909.368  11
  -2   9   5 8096.93 917.316  16
  -2  -9   5 7910.42 841.244  13
  -2  -9   5 7666.21 802.270  17
   2   9  -4 2672.41 637.667   5
  -2   9   4 3043.90 567.828  16
  -2   9   4 3399.33 619.037   5
  -2  -9   4 2820.36 558.154   4
   2  -9  -4 2341.93 529.896  11
  -2   9   4 1726.56 435.604   1
   2  -9  -4 2728.66 498.235   3
  -2  -9   4 2609.71 485.027  13
  -2  -9   4 3893.68 576.837  17
   2  -9  -3 169.684 289.022  11
  -2   9   3 277.652 289.529   5
   2   9  -3 172.064 386.367   5
  -2  -9   3 999.860 409.890   4
  -2  -9   3 1017.42 312.743  17
  -2   9   3 657.036 317.399  16
  -2  -9   3 798.512 357.362  11
   2  -9  -3 661.846 297.813   3
  -2  -9   2 2494.64 514.823   4
   2  -9  -2 1276.25 374.628  11
   2   9  -2 1692.91 556.141   5
  -2  -9   2 2006.99 535.995  11
  -2   9   2 2396.54 546.879   5
   2  -9  -2 1769.19 442.674   3
  -2   9   2 2644.75 500.882  16
  -2  -9   2 2191.97 446.888  17
  -2  -9   1 13650.1 1040.71  17
   2  -9  -1 13913.2 1142.98   3
  -2   9   1 14518.0 1096.01  16
   2   9  -1 12591.0 1192.50   5
  -2  -9   1 15026.5 1239.05   4
  -2  -9   1 13851.5 1209.67  11
  -2   9   1 15220.7 1292.33   5
   2  -9  -1 15746.0 1285.97  11
  -2   9   0 556.766 389.265   5
  -2  -9   0 927.631 336.806  17
   2   9   0 1560.54 448.314  16
  -2  -9   0-22.7966 288.151  11
   2   9   0 1102.31 465.638   5
   2  -9   0 306.132 281.616  11
  -2  -9   0 576.879 325.775   4
   2  -9   0 500.484 296.418   3
   2   9   0 701.145 311.535   1
   2   9   1 45334.4 1962.82   1
  -2  -9  -1 49245.1 2017.74  17
   2   9   1 49549.1 2274.06  16
   2   9   1 48909.9 2218.69   5
   2  -9   1 46683.5 2151.91   3
  -2  -9  -1 50428.0 2296.45  11
  -2   9  -1 50563.0 2377.29   5
   2  -9   1 53267.3 2340.75  11
   2  -9   2 3559.32 667.373   3
   2   9   2 3096.97 622.001   5
  -2   9  -2 3095.36 688.480   5
   2   9   2 4040.78 713.300  16
  -2  -9  -2 2670.52 516.994  17
   2   9   2 3013.51 541.570   1
  -2  -9  -2 3406.53 619.850  11
  -2  -9  -3 14885.7 1167.21  17
   2   9   3 14255.2 1147.20   1
   2  -9   3 13854.0 1232.12   3
  -2  -9  -3 14595.0 1270.44  11
   2   9   3 15083.3 1301.34  16
   2   9   3 14955.1 1226.06   5
  -2   9  -3 15309.7 1367.64   5
  -2  -9  -4-135.346 308.811  11
  -2   9  -4 218.193 369.139   5
   2   9   4-240.825 282.034   1
  -2  -9  -4-86.3338 201.334  17
   2   9   4 236.965 272.481   5
   2  -9   4-8.79888 260.483   3
   2   9   4-147.936 267.521  16
   2   9   5 3809.05 622.836   5
  -2   9  -5 4220.09 789.091   5
  -2   9  -5 3747.11 644.227   2
   2   9   5 2169.32 572.978   1
  -2  -9  -5 3784.60 690.528  11
  -2  -9  -5 3650.57 632.265  17
   2   9   5 2805.02 606.731  16
   2  -9   5 3449.53 670.866   3
  -2  -9  -6 230.371 297.974  11
  -2   9  -6-206.062 274.889   5
  -2  -9  -6 74.1101 223.380  17
  -2   9  -6-541.810 334.188   2
   2   9   6 267.304 228.461  16
   2  -9   6-148.327 228.448   3
   2   9   6-69.4005 315.131   1
  -2  -9  -7 3853.38 744.767  11
  -2   9  -7 4951.57 853.278   5
  -2   9  -7 3637.97 673.853   2
   2  -9   7 4465.05 774.566   3
   2   9   7 4174.42 774.351  16
   2   9   7 3297.13 641.331   1
  -2  -9  -8 469.299 371.600  11
  -2   9  -8 959.343 442.680   5
  -2   9  -8 701.817 360.145   2
   2  -9   8 866.123 413.454   3
   2   9   8 113.279 333.129   1
  -2   9  -9 3982.88 777.271   5
  -2  -9  -9 3663.84 743.551  11
   2  -9   9 4440.46 798.677   3
  -2   9  -9 3733.47 726.327   2
   2   9   9 4069.85 786.635   1
  -2  -9 -10 516.881 395.298  11
  -2   9 -10 293.258 195.921   2
  -2   9 -10-392.280 385.010   5
   2  -9  10 60.8788 246.578   3
   2   9  10 537.383 423.192   1
  -2   9 -11 5791.63 939.270   5
   2   9  11 5256.95 890.405   1
   2  -9  11 6583.64 968.276  13
   2  -9  11 5684.39 937.140   3
  -2   9 -11 6628.08 1003.83   2
  -2  -9 -11 7327.89 1095.32  11
   2  10 -11-450.378 427.403   5
   2 -10 -11-88.8120 332.677  11
  -2  10  11 259.121 409.987   1
  -2 -10  11 254.035 295.653  13
   2  10 -11 434.971 381.844   2
   2  10 -10 5442.93 929.744   5
  -2  10  10 3681.04 746.788   1
  -2 -10  10 6404.50 949.293  13
   2 -10 -10 6291.63 955.138  11
   2 -10  -9 1286.79 451.032  11
   2  10  -9 765.292 452.954   5
  -2  10   9 457.787 426.614   1
  -2 -10   9 1004.60 391.345  13
  -2 -10   9 1198.79 431.061   4
  -2 -10   8 14217.6 1303.17   4
   2 -10  -8 13106.7 1323.90  11
  -2 -10   8 15150.2 1344.19  13
  -2  10   8 10456.7 1237.19   1
   2  10  -8 11952.3 1320.88   5
   2 -10  -7 1927.90 541.593  11
  -2 -10   7 1404.19 463.504   4
   2  10  -7 2022.18 617.417   5
  -2  10   7 2698.32 682.777   1
  -2  10   7 1830.52 513.409  16
  -2  10   6 9508.29 1086.26  16
   2 -10  -6 11140.8 1183.96  11
  -2  10   6 8788.64 1142.99   1
  -2 -10   6 10039.5 1090.04   4
   2  10  -6 8428.50 1092.98   5
   2  10  -5 295.947 428.890   5
  -2  10   5-699.840 417.443   1
  -2  10   5 131.203 241.896  16
  -2  10   5 343.107 353.086   5
   2 -10  -5 605.576 346.464  11
  -2 -10   5-409.439 348.262   4
   2 -10  -4 613.687 327.700  11
  -2  10   4 741.891 365.550   5
   2  10  -4 943.637 442.480   5
  -2 -10   4 713.422 361.880   4
  -2  10   4 700.570 311.412  16
  -2  10   4-351.193 389.566   1
   2 -10  -3 433.484 332.193  11
  -2  10   3 736.384 393.549   5
   2  10  -3 1421.67 542.761   5
  -2  10   3 1523.29 421.686  16
  -2 -10   3 655.401 322.585   4
  -2 -10   3 1361.11 471.391  11
   2 -10  -3 1182.88 361.966   3
  -2  10   3 633.950 313.167   1
   2 -10  -2 5151.04 802.001  11
   2  10  -2 4926.47 853.585   5
  -2 -10   2 4992.69 766.844   4
  -2  10   2 5340.63 724.400  16
  -2 -10   2 6172.85 889.182  11
  -2  10   2 5306.27 835.444   5
   2 -10  -2 4010.17 667.250   3
  -2 -10   1 652.931 400.240  11
   2  10  -1 1539.51 536.632   5
  -2 -10   1 1392.05 482.029   4
   2 -10  -1 610.010 332.446   3
  -2  10   1 1231.12 471.543   5
   2 -10  -1 1256.45 418.353  11
  -2 -10   1 1295.61 405.272   3
   2 -10   0 27016.8 1791.71  11
   2  10   0 25785.1 1722.52  16
  -2 -10   0 27418.6 1815.05  11
   2 -10   0 25267.3 1655.94   3
  -2  10   0 26000.4 1790.10   5
   2  10   0 26362.8 1794.46   5
  -2  10  -1 70.9743 353.346   5
   2  10   1 949.670 467.914   5
   2 -10   1 582.792 329.966  11
  -2 -10  -1 201.478 335.624  11
   2 -10   1 460.493 390.607   3
   2  10   1 430.105 361.820  16
   2 -10   2 13288.7 1265.00   3
  -2 -10  -2 12596.9 1122.82  17
   2  10   2 13679.1 1267.74   5
   2  10   2 12818.1 1253.94  16
   2  10   2 8685.93 976.149   1
  -2  10  -2 12399.6 1306.11   5
  -2 -10  -2 12741.6 1250.26  11
   2  10   3 286.559 310.126  16
  -2  10  -3 1381.82 551.445   5
  -2 -10  -3 1189.09 426.854  11
  -2 -10  -3 810.877 310.413  17
   2 -10   3 830.268 389.667   3
   2  10   3 1143.45 491.894   5
   2  10   3 942.195 378.186   1
  -2 -10  -4 2759.34 624.597  11
  -2  10  -4 3015.87 727.428   5
   2 -10   4 1897.89 527.647   3
  -2 -10  -4 1291.99 419.578  17
   2  10   4 2662.11 603.947   5
   2  10   4 1369.97 450.680  16
   2  10   4 1567.84 476.040   1
   2  10   5 113.000 295.952   1
  -2 -10  -5 1203.22 407.393  11
  -2  10  -5 1675.25 637.613   5
  -2 -10  -5 1001.67 356.049  17
   2 -10   5 887.497 388.417   3
   2  10   5 1149.74 463.428  16
  -2 -10  -6 4160.77 781.741  11
  -2  10  -6 2970.75 724.010   5
   2 -10   6 1782.69 531.985   3
   2  10   6 2971.65 575.392   1
  -2 -10  -7-332.197 332.308  11
  -2  10  -7 461.907 410.670   5
   2  10   7 228.122 381.199  16
   2  10   7-404.232 376.650   1
   2 -10   7-573.429 402.422   3
  -2  10  -7-161.967 224.284   2
   2 -10   8 7584.60 1076.47   3
   2  10   8 5876.07 985.856  16
  -2  10  -8 5341.84 855.247   2
  -2  10  -8 7055.84 1049.94   5
  -2 -10  -8 6601.30 997.998  11
   2  10   8 5547.70 910.063   1
  -2  10  -9 996.989 450.727   5
  -2 -10  -9 1109.82 453.809  11
   2  10   9 1605.46 580.948  16
  -2  10  -9 902.953 419.335   2
   2  10   9 2115.18 606.967   1
   2 -10   9 879.176 430.538   3
  -2  10 -10 2705.59 652.564   2
   2  10  10 2472.21 660.174   1
  -2  11   9 383.745 374.725  16
   2  11  -9 913.128 541.718   5
   2 -11  -9 129.657 259.129  11
   2 -11  -8 120.776 235.686  11
  -2  11   8-363.247 395.645  16
  -2 -11   8-385.076 316.516   4
  -2  11   8 465.710 455.053   1
   2  11  -8 331.348 378.542   5
  -2  11   7 11331.7 1277.06  16
   2 -11  -7 11283.2 1278.28  11
  -2 -11   7 9236.40 1107.20   4
  -2  11   7 8728.13 1129.82   1
   2  11  -7 12447.5 1414.32   5
   2 -11  -6 698.054 424.964  11
   2  11  -6 416.660 481.408   5
  -2  11   6 595.011 448.526   1
  -2 -11   6-87.8927 286.185   4
  -2  11   6 217.894 252.725  16
   2  11  -5 14833.2 1510.32   5
  -2  11   5 15437.4 1391.73  16
  -2 -11   5 15921.1 1450.21   4
  -2  11   5 10507.2 1259.63   1
   2 -11  -5 16841.4 1530.57  11
   2  11  -4 327.027 435.596   5
   2 -11  -4-127.640 300.288  11
  -2  11   4-9.50043 398.713   1
  -2  11   4 202.491 211.119  16
  -2  11   4-70.4086 295.745   5
  -2 -11   4-46.9665 213.343   4
   2 -11  -3 4912.53 827.297  11
  -2  11   3 5434.82 899.540   5
  -2  11   3 3542.66 714.254   1
  -2 -11   3 4187.14 742.875   3
   2  11  -3 4201.84 853.370   5
  -2 -11   3 3873.38 737.437   4
  -2 -11   3 4399.04 799.633  11
   2  11  -2 2054.64 648.562   5
  -2  11   2 1329.30 556.238   5
  -2  11   2 1352.84 453.029   1
   2 -11  -2 1017.52 443.169  11
   2 -11  -2 1953.40 534.797   3
  -2 -11   2 1950.48 583.226  11
  -2 -11   2 1668.58 495.092   3
  -2  11   1 3796.39 764.764   5
   2 -11  -1 4992.54 842.772  11
   2  11  -1 3526.77 734.312   5
  -2 -11   1 4517.82 821.806  11
   2 -11  -1 3654.89 658.405   3
  -2 -11   0-127.844 371.684  11
   2  11   0 853.604 503.048   5
  -2  11   0 916.927 528.895   5
   2 -11   0 1035.65 472.731  11
   2 -11   0 711.182 378.170   3
   2  11   1 5366.89 890.244   5
  -2  11  -1 5270.74 921.582   5
  -2 -11  -1 5629.99 949.757  11
   2  11   1 5970.41 923.111  16
   2 -11   1 5121.67 836.931   3
   2  11   2 688.130 399.129  16
   2  11   2 199.810 325.488   5
  -2  11  -2 1470.62 568.325   5
   2 -11   2 1175.04 430.912   3
  -2 -11  -2 836.501 429.142  11
  -2 -11  -3 4192.33 792.778  11
   2  11   3 2918.82 709.817  16
   2  11   3 4243.19 817.215   5
   2 -11   3 4155.12 791.600   3
  -2  11  -3 2178.92 698.740   5
  -2  11  -4 61.9198 415.636   5
  -2 -11  -4 44.1019 261.896  11
   2 -11   4 768.409 455.049   3
   2  11   4 709.657 307.779  16
  -2  11  -5 4344.74 889.447   5
   2 -11   5 6137.25 970.334   3
  -2 -11  -5 5077.48 893.685  11
   2  11   5 5090.12 891.306  16
  -2 -11  -6 88.9918 292.639  11
  -2  11  -6 669.085 516.296   5
   2  11   6 766.737 423.813  16
   2 -11   6-345.593 428.163   3
  -2  11  -7 7293.50 1138.36   5
  -2 -12   6 2079.50 580.694   4
  -2 -12   5 26.0141 197.336   3
  -2 -12   5-46.6978 263.920   4
   2 -12  -5 121.631 323.499  11
  -2  12   5 81.1487 268.775   1
   2 -12  -4 2075.62 582.628  11
   2  12  -4 1704.92 645.697   5
  -2  12   4 2142.50 667.217   1
  -2 -12   4 2533.38 631.549   3
  -2  12   3 370.357 389.407   5
  -2  12   3 404.993 329.565   1
   2  12  -3-15.5211 381.342   5
  -2 -12   3 284.039 262.031   3
   2 -12  -3-236.062 321.698  11
  -2 -12   2 6378.41 1015.85  11
   2  12  -2 5597.47 1017.98   5
  -2  12   2 5135.21 936.509   5
   2 -12  -2 5401.90 926.404  11
   2 -12  -1 667.404 418.373  11
  -2  12   1 709.354 486.113   5
   2 -12  -1 1177.80 429.960   3
   2  12  -1 1349.11 614.072   5
  -2 -12   1 1177.72 530.935  11
  -2  12   1 410.164 335.437   1
  -2 -12   0 7529.78 1113.05  11
  -2  12   0 6479.21 1056.41   5
   2 -12   0 6998.05 980.820   3
   2  12   0 8165.26 1154.81   5
  -2 -12  -1 333.018 363.732  11
  -2  12  -1-154.314 439.680   5
   2  12   1-445.897 391.249   5
   2 -12   1-198.941 242.760   3
  -2  12  -2 1811.54 570.005   5
  -2 -12  -2 2364.92 638.692  11
   2  12   2 3469.62 759.251   5
   2 -12   2 2385.20 595.082   3
   2  12   3 12.3083 290.075   5
   2 -12   3 480.946 392.875   3
   2  12   3 147.008 356.408  16
  -3   0  19 1940.02 581.633   1
   3   0 -19 736.025 341.771   2
  -3   0  18-51.9449 410.482  15
   3   0 -18 108.228 200.546   2
  -3   0  18 120.167 354.444   1
  -3   0  17 13901.5 1342.91  13
   3   0 -17 12729.1 1259.83   2
  -3   0  17 10285.3 1261.98   1
  -3   0  16 299.558 424.245   1
  -3   0  16 305.052 276.548   6
   3   0 -16 224.315 247.416   2
  -3   0  16-86.6963 252.088  13
  -3   0  15 11877.5 1187.10   1
  -3   0  15 15304.9 1290.05  13
  -3   0  15 12814.3 1112.90   6
   3   0 -15 14787.7 1228.63   2
   3   0 -15 12810.2 1064.77   9
   3   0 -14-8.99095 206.371   9
  -3   0  14-297.251 310.283   1
   3   0 -14 197.239 223.287   2
  -3   0  14 33.4352 206.254  13
  -3   0  14 415.467 242.157   6
  -3   0  13 27871.3 1533.28   1
   3   0 -13 25155.2 1431.90   2
  -3   0  13 28853.2 1584.93  13
   3   0 -13 27136.1 1400.99   9
  -3   0  13 27053.5 1485.60   6
   3   0 -12-13.7723 229.459   9
   3   0 -12 49.3040 204.286   2
  -3   0  12 336.150 277.370  13
  -3   0  12-167.516 250.017   6
  -3   0  12-265.332 270.425   1
   3   0 -11 53588.6 1855.52   2
  -3   0  11 47461.8 1824.89   1
  -3   0  11 54086.3 1930.05  13
  -3   0  11 53935.7 1927.76   6
   3   0 -11 52237.2 1792.03   9
  -3   0  10 346.113 272.423   1
   3   0 -10 220.195 196.585   2
  -3   0  10 353.438 211.373  13
  -3   0  10-68.1261 207.812   6
   3   0  -9 40895.3 1447.69   9
   3   0  -9 38576.1 1375.03   2
  -3   0   9 38352.4 1356.95   1
  -3   0   9 37823.8 1414.39  13
  -3   0   9 39859.4 1513.30   6
   3   0  -8-130.976 130.628   2
  -3   0   8-39.9689 117.419  13
  -3   0   8-58.6582 163.767   1
  -3   0   8 124.204 179.768   6
   3   0  -8-180.513 190.566   9
  -3   0   7 21900.7 873.666   1
   3   0  -7 20957.8 948.702   9
   3   0  -7 21962.8 872.170   2
   3   0  -7 22259.2 901.125   7
  -3   0   7 22656.8 935.113  13
  -3   0   7 22724.7 1004.87   6
  -3   0   6-6.18227 98.2863  13
   3   0  -6-202.800 189.401   9
  -3   0   6-67.0750 186.671   6
   3   0  -6-9.76985 96.1831   2
  -3   0   6 169.864 158.457   1
   3   0  -5 61589.0 1143.51   2
   3   0  -5 63210.2 1433.83   9
   3   0  -5 61622.6 1351.42   7
  -3   0   5 61014.5 1152.66   1
  -3   0   5 60057.9 1281.36  13
  -3   0   5 60705.4 1432.17   6
   3   0  -4-42.8096 124.896   9
  -3   0   4 54.2232 107.125   6
   3   0  -4 32.5819 105.443   7
  -3   0   4-36.4590 81.6764  13
   3   0  -4 241.401 137.767  10
  -3   0   4 61.8891 71.4691   1
   3   0  -4 0.08928 53.6658   2
   3   0  -3 6408.97 405.053  10
   3   0  -3 7374.08 435.092   7
  -3   0   3 7397.85 398.927  17
   3   0  -3 6310.40 410.482   9
  -3   0   3 6436.85 293.855   1
  -3   0   3 6797.67 372.952  13
  -3   0   3 6744.65 411.905   6
  -3   0   3 7270.02 281.175  12
   3   0  -3 7235.31 292.809   2
   3   0  -2 201.019 110.728  10
   3   0  -2 108.903 81.0530  14
  -3   0   2 98.2803 64.9087  17
   3   0  -2 31.8425 99.7403   9
   3   0  -2 226.974 115.851   7
  -3   0   2 64.8599 70.6524  12
  -3   0   2 10.2036 73.9762   6
   3   0  -1 41195.1 975.163   7
   3   0  -1 41544.1 806.820  10
   3   0  -1 41593.9 937.676   3
   3   0  -1 43395.4 907.136  14
   3   0  -1 42736.3 845.457   9
  -3   0   1 40460.5 777.888   6
  -3   0   1 41312.1 900.934  12
  -3   0   1 42106.4 823.271  17
  -3   0   0-123.473 121.252   8
   3   0   0-76.0107 128.824   7
  -3   0   0-4.38427 61.2604  17
   3   0   0 115.347 88.6336  14
  -3   0   0 232.923 146.777  12
   3   0   0 277.224 129.294   3
  -3   0   0 98.1523 56.0719   6
   3   0   0-17.9142 54.8807  10
   3   0   1 931121. 5053.08  14
  -3   0  -1 917161. 4785.76   8
   3   0   1 899053. 4520.86   7
  -3   0  -1 922947. 4444.67  17
  -3   0  -1 939286. 5082.11  12
  -3   0  -2 132.550 96.5098  17
   3   0   2 2.61341 70.9557   3
   3   0   2-37.0614 120.421  14
  -3   0  -2 39.8803 99.2710  12
   3   0   2-5.05601 118.350   1
   3   0   3 157790. 2300.25   1
   3   0   3 159228. 1780.75   3
  -3   0  -3 154769. 2215.45  17
   3   0   3 153672. 1778.17  15
   3   0   3 144602. 2348.38  14
   3   0   3 147304. 1905.42   7
  -3   0  -3 149534. 2324.22  12
  -3   0  -4 183.041 151.018  12
   3   0   4 16.6046 82.2082  15
   3   0   4-71.1418 132.122  14
   3   0   4 17.6643 73.7275   3
   3   0   4 137.145 213.864   1
   3   0   5 18582.8 793.354  15
   3   0   5 20731.3 681.391   3
   3   0   5 20116.2 989.781  14
  -3   0  -5 22038.4 1007.08  12
   3   0   5 22765.7 1043.08   1
   3   0   6 81.1306 92.0802  15
   3   0   6-63.5154 205.312  14
  -3   0  -6 290.135 261.813  12
  -3   0  -6-60.0426 172.008   2
   3   0   6 53.0811 78.0931   3
   3   0   6 147.279 244.607   1
  -3   0  -7 28530.3 1368.33   2
   3   0   7 30342.5 1176.90  15
   3   0   7 29784.6 1348.23  14
  -3   0  -7 28703.6 1270.43  12
   3   0   7 33084.5 1437.05   1
   3   0   8 0.30450 125.035  15
   3   0   8 9.76276 183.011  14
  -3   0  -8 47.8914 248.218   2
  -3   0  -8-370.004 267.322  12
   3   0   8 565.949 354.627   1
  -3   0  -9 145800. 3476.57   2
   3   0   9 145028. 2972.63  15
  -3   0  -9 143805. 3070.47  12
   3   0   9 143863. 3265.22  14
  -3   0 -10 154.295 300.138   2
   3   0  10 619.164 446.932   1
   3   0  10-113.867 193.869  14
   3   0  10-113.290 181.772  15
  -3   0 -10-346.222 264.101  12
   3   0  11 29814.8 1621.06  14
  -3   0 -11 29125.5 1724.08   2
   3   0  11 30587.3 1532.80  15
  -3   0 -11 30711.9 1550.23  12
   3   0  11 28509.2 1716.44   1
   3   0  12 293.559 321.547   1
  -3   0 -12 148.232 244.073   2
   3   0  12-108.229 209.518  14
   3   0  12-139.159 207.375  15
  -3   0 -12-23.3242 189.412  12
   3   0  13 459.001 395.459   1
  -3   0 -13 78.9159 286.770   2
   3   0  13-40.3897 226.522  14
   3   0  14 145.624 222.412  14
   3   0  14 435.633 397.954   1
  -3   0 -14 57.6598 279.878   2
  -3   0 -15 1532.69 539.849   2
   3   0  15 1075.67 479.240   1
  -3   0 -16-411.706 435.701   2
   3   0  16 345.024 403.402   1
   3   1 -19 794.789 440.761   2
  -3   1  19 1472.73 523.479   1
   3   1 -18 10520.6 1202.52   2
  -3   1  18 10887.0 1311.59  15
   3  -1 -18 8503.90 1066.92   2
  -3  -1  18 10184.9 1241.59  13
  -3  -1  18 9839.37 1199.62   1
   3  -1 -18 9732.97 1175.65  10
  -3   1  18 11265.0 1286.98   1
   3  -1 -17 848.365 471.611  10
  -3   1  17 611.461 389.148  15
   3  -1 -17-34.7470 251.461   2
  -3  -1  17 663.362 376.485   1
   3   1 -17 812.153 391.083   2
  -3   1  17-64.5514 232.318   6
  -3  -1  17 416.078 357.988  13
  -3   1  17-123.803 380.348   1
   3   1 -16 9269.77 1041.48   2
   3  -1 -16 8017.40 997.952  10
   3  -1 -16 7698.66 939.472   2
  -3  -1  16 8351.90 929.864   6
  -3   1  16 8181.81 945.159   6
  -3  -1  16 8137.49 1011.39  13
  -3  -1  16 8051.11 967.038   1
  -3   1  16 6967.29 1007.30   1
   3  -1 -15 5516.28 749.591   2
  -3   1  15 4474.28 706.649   6
   3   1 -15 5114.91 756.282   2
  -3  -1  15 4440.20 686.823   1
  -3   1  15 5100.12 715.142  13
   3   1 -15 4501.21 637.955   9
  -3  -1  15 5220.70 720.782   6
  -3  -1  15 4193.51 709.646  13
  -3  -1  15 5833.74 739.597  18
  -3   1  15 5056.77 811.084   1
   3  -1 -14 1674.14 378.120   2
  -3  -1  14 1323.53 357.713  18
  -3   1  14 1869.32 527.442   1
   3   1 -14 782.877 360.608   2
  -3   1  14 786.715 346.163   6
   3   1 -14 1632.61 394.016   9
  -3   1  14 692.931 288.356  13
  -3  -1  14 1603.83 469.881   1
  -3  -1  14 1225.43 404.408  13
  -3  -1  14 1041.60 353.078   6
   3   1 -13 7833.42 842.190   2
   3  -1 -13 8196.96 824.759   2
   3   1 -13 7666.62 781.153   9
  -3  -1  13 7818.89 860.652  13
  -3   1  13 9646.13 897.197  13
  -3  -1  13 8991.10 814.591  18
  -3   1  13 9653.86 957.149   1
  -3  -1  13 7606.20 802.750   6
  -3   1  13 6643.36 775.846   6
  -3  -1  13 8365.57 849.124   1
  -3  -1  12 25404.3 1372.69   6
   3   1 -12 24089.4 1365.94   2
   3  -1 -12 26015.6 1371.68   2
  -3   1  12 27719.1 1483.46   1
   3  -1 -12 28648.2 1365.20   9
  -3  -1  12 24477.5 1261.17  18
  -3   1  12 24050.6 1319.68  13
   3   1 -12 27161.7 1385.91   9
  -3  -1  12 25673.6 1472.96  13
  -3  -1  12 25685.4 1378.74   1
   3  -1 -11 6433.11 647.241   2
   3   1 -11 6128.26 661.966   2
  -3   1  11 6627.32 738.041   1
   3  -1 -11 6170.12 628.314   9
  -3  -1  11 6284.07 704.913  13
  -3  -1  11 6324.44 657.643   1
   3   1 -11 6150.14 656.032   9
  -3   1  11 7450.77 700.767  13
  -3  -1  11 6002.70 645.456   6
  -3   1  10 44827.7 1580.56  13
   3   1 -10 46106.4 1667.08   2
   3  -1 -10 45405.9 1564.60   2
  -3   1  10 41337.1 1609.81   1
  -3  -1  10 43102.0 1524.72   1
   3   1 -10 46003.6 1652.83   9
   3  -1 -10 43348.2 1568.84   9
  -3  -1  10 44437.5 1658.13   6
  -3  -1  10 44033.8 1703.63  13
  -3  -1   9 53283.8 1573.11   1
   3  -1  -9 55615.9 1598.05   2
  -3   1   9 51331.2 1666.68   1
   3  -1  -9 52657.5 1633.94   9
  -3   1   9 52460.1 1591.86  13
  -3  -1   9 55713.2 1736.88   6
   3   1  -9 54480.9 1719.25   9
   3   1  -9 53067.4 1673.48   2
  -3  -1   9 53879.4 1765.98  13
  -3  -1   8 21017.4 902.514   1
   3   1  -8 21900.7 1002.32   2
   3   1  -8 22575.6 882.405   7
   3  -1  -8 22268.0 1015.45   9
   3  -1  -8 23037.7 952.633   2
   3   1  -8 22894.2 1052.40   9
  -3  -1   8 22913.0 1066.58   6
  -3   1   8 21867.6 941.292  13
  -3  -1   8 20092.8 864.998  18
  -3   1   8 17846.6 979.590   1
   3   1  -8 21138.3 674.039   5
  -3  -1   8 21267.1 1038.03  13
   3   1  -7-76.2800 103.749   5
   3  -1  -7-110.919 170.290   9
  -3   1   7-20.8930 153.495   1
   3   1  -7 413.591 258.553   9
  -3  -1   7 57.2926 94.6548  18
   3   1  -7 110.553 115.385   2
   3   1  -7 131.588 121.708   7
   3  -1  -7-42.2293 84.8916   2
  -3  -1   7 37.5518 119.690  13
  -3  -1   7-101.486 130.798   6
   3  -1  -7 274.839 207.985  10
  -3  -1   7 63.4907 131.386   1
  -3   1   7 62.9141 90.4488  13
   3   1  -6 252683. 2873.93   2
   3  -1  -6 250505. 3122.44  10
   3  -1  -6 250702. 2467.59   2
   3  -1  -6 252914. 3079.64   9
  -3   1   6 248388. 2863.81   1
  -3  -1   6 254833. 3160.98   6
   3   1  -6 251992. 2697.61   7
  -3  -1   6 246116. 2356.07  18
  -3  -1   6 255075. 3112.40  13
  -3   1   6 242264. 2605.24  13
   3   1  -6 255503. 3125.16   9
  -3  -1   6 243265. 2443.98   1
   3   1  -6 254118. 2347.09   5
   3   1  -5 154352. 2048.39   2
  -3  -1   5 144900. 1621.42   1
   3  -1  -5 149287. 2261.76  10
   3   1  -5 150891. 2277.29   9
   3  -1  -5 159924. 2298.47   9
   3   1  -5 153659. 2043.11   7
  -3   1   5 151461. 2065.48   1
  -3  -1   5 149273. 1586.45  18
  -3   1   5 150920. 1835.40  13
  -3  -1   5 152045. 2209.74  13
  -3  -1   5 159959. 2336.40   6
   3   1  -5 154811. 1850.73   5
   3  -1  -5 153246. 1644.59   2
   3  -1  -5 153391. 2304.19   7
  -3  -1   4 384379. 3379.00   6
   3  -1  -4 391279. 3365.14  10
  -3  -1   4 382046. 3292.27  13
  -3   1   4 383186. 2584.87  13
  -3   1   4 387987. 3034.11   1
   3  -1  -4 400148. 3520.63   7
   3  -1  -4 387326. 2028.44   2
   3   1  -4 393935. 3150.16   7
  -3  -1   4 371935. 3325.26  17
   3   1  -4 395438. 2990.77   5
   3   1  -4 388933. 3368.71   9
   3   1  -4 393779. 2989.96   2
   3  -1  -3 18140.4 688.343  10
  -3   1   3 16426.1 509.789  13
   3  -1  -3 16869.6 665.198   3
  -3  -1   3 17949.7 687.296   6
   3   1  -3 17225.3 662.242   7
   3   1  -3 18500.8 685.576   9
   3  -1  -3 18024.3 423.955  14
  -3  -1   3 17252.5 688.224  17
   3  -1  -3 16019.4 687.741   7
   3  -1  -3 19022.3 448.023  11
  -3  -1   3 16995.4 676.012  13
   3   1  -3 19037.1 664.664   5
  -3  -1   3 18170.1 515.857  12
   3   1  -3 18674.9 610.164   2
   3   1  -2 6728.71 388.910   9
   3   1  -2 7614.54 333.129  10
   3  -1  -2 7283.67 421.662  10
   3   1  -2 6507.99 407.333   7
  -3  -1   2 6426.88 395.429  13
  -3  -1   2 6562.72 396.488  17
   3  -1  -2 6531.38 418.598   7
  -3  -1   2 6357.73 341.171  12
  -3   1   2 7223.03 294.090  17
  -3  -1   2 6612.45 389.022   6
   3   1  -2 6650.48 402.732   5
   3  -1  -2 6188.55 406.822   3
   3  -1  -2 7096.99 319.405  14
  -3  -1   2 6672.62 249.007  11
   3   1  -1 41127.3 639.806  10
   3  -1  -1 41679.0 976.338  10
  -3  -1   1 40194.9 956.580  17
   3   1  -1 38710.9 979.002   7
   3  -1  -1 42886.6 1026.35   3
   3  -1  -1 39370.7 863.938  14
   3  -1  -1 41363.2 980.183   7
   3   1  -1 41542.8 973.206  14
   3   1  -1 40578.8 823.128   9
  -3  -1   1 41028.0 891.247   6
   3  -1  -1 43356.0 739.748  18
  -3  -1   1 41697.5 960.986  12
  -3   1   1 41164.8 631.996  17
  -3  -1   1 42666.6 657.893  11
   3  -1   0 3653.15 296.027  10
  -3  -1   0 3019.93 238.183   8
   3   1   0 3226.42 205.576   9
   3   1   0 3465.54 262.743  16
   3   1   0 3132.61 293.147  14
  -3   1   0 3418.53 196.765  17
   3  -1   0 2882.80 280.926  14
  -3  -1   0 3181.38 288.057  17
   3  -1   0 3418.97 276.253   7
   3  -1   0 3240.90 295.636   3
   3   1   0 3737.99 333.998   7
   3  -1   0 3302.61 250.750  18
  -3  -1   0 3327.44 298.888  12
   3   1   0 3131.01 219.646   1
  -3  -1   0 3584.53 233.849  11
  -3   1   0 3697.26 322.792   8
  -3   1  -1 50865.5 891.386  17
  -3  -1  -1 50607.4 1213.65  12
  -3   1  -1 50899.1 1035.09   2
   3  -1   1 50408.1 1139.44   3
   3  -1   1 49346.4 1008.88   7
  -3   1  -1 52128.1 1236.96   8
   3   1   1 50064.7 1195.32  14
   3  -1   1 48681.0 1178.31  14
  -3  -1  -1 50776.6 1174.19  17
   3   1   1 51732.4 1014.20   1
   3  -1   2 364051. 3342.99   1
   3  -1   2 346019. 2650.28   7
  -3  -1  -2 342983. 2486.72   4
   3  -1   2 361524. 3090.40   3
   3   1   2 370295. 3080.53   1
  -3  -1  -2 345009. 3292.10  17
  -3  -1  -2 348299. 3401.39  12
   3   1   2 358229. 3360.37  14
  -3   1  -2 343616. 3077.88   2
   3  -1   2 348283. 3410.53  14
  -3  -1  -3 5230.63 450.023  12
   3   1   3 5574.30 440.080   1
  -3   1  -3 5830.43 450.221   2
   3  -1   3 5520.27 334.759   7
   3  -1   3 5566.28 402.802   3
   3   1   3 6305.64 290.653   3
   3  -1   3 5966.50 469.202   1
  -3  -1  -3 5919.09 478.731  17
   3  -1   3 5297.94 480.415  14
   3  -1   3 5981.01 296.711  15
   3   1   3 5371.09 458.739  14
  -3   1  -3 5583.76 478.884  12
   3  -1   4 208486. 2498.77   3
   3  -1   4 198252. 2033.14   7
  -3   1  -4 197027. 2896.82  12
  -3  -1  -4 201479. 2901.18  12
   3   1   4 206626. 1581.89   3
   3  -1   4 195484. 2063.64  15
   3   1   4 193869. 2849.23  14
   3  -1   4 193625. 2972.48  14
   3   1   4 201348. 2826.95   1
  -3  -1  -4 200883. 2928.26  17
   3  -1   4 206543. 2953.76   1
  -3   1  -4 196262. 2861.63   2
   3   1   5 30950.6 1257.90   1
   3   1   5 31109.2 609.759   3
   3  -1   5 31085.7 946.335  15
  -3   1  -5 32846.8 1278.41   2
   3  -1   5 31456.9 1279.53  14
   3  -1   5 30982.3 832.932   7
   3  -1   5 33289.0 1291.31   1
   3   1   5 31902.7 1218.92  14
   3  -1   5 33425.6 1038.58   3
  -3   1  -5 32330.9 1239.45  12
  -3  -1  -5 31104.4 1208.47  12
   3   1   5 31719.1 1124.29  15
   3   1   6 10165.3 766.825   1
   3  -1   6 10212.1 780.360   1
  -3   1  -6 9955.93 756.611   2
   3   1   6 9340.22 650.855  15
  -3  -1  -6 8617.59 699.793  12
  -3   1  -6 9023.71 704.661  12
   3  -1   6 8993.88 571.842  15
   3  -1   6 9930.86 771.955  14
   3  -1   6 8802.83 471.964   7
   3   1   6 9466.24 704.374  14
   3  -1   6 9315.09 582.001   3
   3  -1   7 3961.86 394.958   3
   3   1   7 2828.55 492.529   1
   3  -1   7 3274.92 498.829  14
   3   1   7 3658.63 454.871  15
  -3  -1  -7 3696.98 495.221  12
  -3   1  -7 3728.43 513.453   2
   3  -1   7 3614.40 521.100   1
   3   1   7 2997.95 440.318  14
   3  -1   7 4072.83 422.146  15
  -3   1  -7 3491.87 463.844  12
  -3   1  -8 18321.0 938.498   5
  -3   1  -8 18673.2 1194.56   2
  -3  -1  -8 16566.2 1030.78  12
   3   1   8 19058.2 1195.03   1
   3   1   8 17553.9 1032.11  15
   3  -1   8 17843.2 1161.65   1
   3  -1   8 19520.5 983.031  15
   3  -1   8 16978.5 1123.90  14
  -3   1  -8 17863.5 1071.46  12
   3   1   8 18831.0 1096.06  14
   3   1   9 5026.85 647.895   1
   3   1   9 5189.69 613.483  15
  -3   1  -9 4231.40 621.044   2
  -3  -1  -9 4771.60 658.295   2
   3  -1   9 5173.89 690.398   1
   3  -1   9 4805.39 529.395  15
   3  -1   9 4604.40 634.458  14
  -3   1  -9 4132.97 559.133  12
   3   1   9 4664.97 591.347  14
  -3  -1  -9 4746.14 599.752  12
  -3  -1 -10 8598.34 903.511   2
   3   1  10 11105.7 926.332  14
   3  -1  10 9555.92 899.280  14
  -3  -1 -10 9752.31 862.709  12
   3  -1  10 10737.6 861.695  15
  -3   1 -10 10646.5 890.008  12
   3   1  10 9305.26 845.433  15
   3  -1  10 10633.2 994.740   1
   3   1  10 10220.8 984.901   1
  -3   1 -10 9716.72 972.026   2
  -3   1 -11 2352.82 484.504  12
   3  -1  11 1641.19 459.149  14
   3   1  11 2404.89 474.622  15
   3   1  11 1711.83 396.300  14
  -3   1 -11 2637.02 602.228   2
  -3  -1 -11 2314.55 563.232   2
   3   1  11 2575.20 609.116   1
   3  -1  11 2154.45 548.199   1
  -3  -1 -11 2508.98 476.299  12
  -3   1 -12 4187.36 716.267   2
   3   1  12 5345.28 713.221  15
  -3  -1 -12 5353.42 686.956  12
   3   1  12 4850.89 686.918  14
  -3  -1 -12 5364.06 809.027   2
  -3   1 -12 5871.70 729.619  12
   3  -1  12 5199.89 761.912  14
   3  -1  12 4451.13 802.441   1
   3   1  12 4921.95 804.080   1
  -3  -1 -13 610.607 377.568   2
   3  -1  13 332.958 262.081  14
  -3   1 -13 243.422 314.654   2
   3  -1  13 363.770 317.334   1
   3   1  13 205.743 244.665  15
   3   1  13 182.416 243.219  14
   3   1  13 740.007 429.613   1
  -3   1 -14 17631.6 1566.18   2
   3  -1  14 18262.9 1566.49  18
  -3  -1 -14 17647.1 1567.70   2
   3  -1  14 17765.0 1446.87  14
   3  -1  14 19328.9 1648.41   1
   3   1  14 19528.5 1649.31   1
  -3   1 -15 425.486 411.715   2
  -3  -1 -15 742.245 349.236   2
   3  -1  15 1502.77 551.394  18
   3   1  15 1182.72 546.867   1
   3  -1  15 267.843 321.443   1
   3  -1  15 490.655 269.156  14
  -3  -1 -16 7128.58 1072.05   2
   3  -1  16 6953.24 1050.53  18
  -3   1 -16 6567.66 1043.83   2
   3  -1  16 5600.73 937.667   1
   3   1  16 6510.13 1041.08   1
   3   2 -18-101.777 257.458   2
  -3   2  18-60.8219 324.631   1
   3  -2 -18-369.160 352.868  10
  -3   2  18 105.060 347.546  15
  -3  -2  18 3.46463 286.335  13
  -3   2  17 9332.82 1134.54   1
   3   2 -17 7832.37 1032.07   2
   3  -2 -17 6935.89 949.413  10
  -3   2  17 8493.75 1159.89  15
  -3   2  17 8333.01 1019.77   6
  -3  -2  17 7886.37 1092.01  13
  -3   2  16 1697.31 567.849   1
   3  -2 -16 3051.30 651.200  10
   3   2 -16 2757.64 542.477   9
   3  -2 -16 3132.61 609.533   2
   3   2 -16 1894.23 512.834   2
  -3   2  16 3408.23 710.419  15
  -3  -2  16 3326.56 696.625  13
  -3  -2  16 2577.55 611.117   1
  -3   2  16 2645.01 610.696   6
   3   2 -15 2905.97 555.908   9
   3  -2 -15 2800.86 583.256  10
   3   2 -15 3357.80 642.632   2
  -3   2  15 1656.05 502.411   1
  -3   2  15 1626.32 424.652   6
  -3  -2  15 2850.11 564.649   1
  -3  -2  15 2939.52 546.796  18
   3  -2 -15 2512.63 526.626   2
  -3   2  15 2738.06 610.422  15
  -3  -2  15 2197.85 581.707  13
  -3  -2  15 2689.21 528.683   6
   3   2 -14 539.389 294.025   2
  -3  -2  14-6.35593 255.016   6
  -3   2  14 26.5461 234.772  15
  -3   2  14 624.886 458.168   1
  -3  -2  14 364.097 242.093  18
  -3  -2  14 391.661 299.126   1
   3  -2 -14 158.636 217.870   2
   3   2 -14-123.684 215.778   9
   3  -2 -14 75.0598 236.226  10
  -3  -2  14-66.3563 291.229  13
   3   2 -13 14199.8 1151.34   2
   3  -2 -13 15233.4 1193.87  10
  -3   2  13 15008.2 1205.43   1
   3  -2 -13 14234.5 1072.19   2
  -3  -2  13 15656.2 1121.71   6
   3   2 -13 14690.6 1099.57   9
  -3  -2  13 14641.9 1232.48  13
  -3  -2  13 13459.3 1034.65  18
  -3   2  13 14795.8 1061.75  13
  -3  -2  13 13850.5 1095.08   1
   3   2 -12 2443.11 481.956   2
   3   2 -12 2838.00 509.916   9
  -3  -2  12 2648.49 454.800  18
  -3  -2  12 3689.71 552.892   6
   3  -2 -12 2691.65 438.530   2
  -3   2  12 2933.35 568.525   1
  -3  -2  12 3124.22 555.461  13
  -3   2  12 3248.70 489.127  13
  -3  -2  12 4060.26 558.393   1
   3  -2 -12 2589.54 518.833  10
  -3   2  11 72874.5 2349.35   1
   3  -2 -11 80190.6 2437.52  10
  -3   2  11 77517.8 2157.36  13
  -3  -2  11 72654.7 2117.89  18
   3   2 -11 75686.8 2369.56   2
   3   2 -11 77873.3 2332.69   9
  -3  -2  11 79971.4 2526.86  13
  -3  -2  11 82445.6 2223.18   1
  -3  -2  11 83071.8 2354.19   6
   3  -2 -11 78071.0 2179.66   2
   3  -2 -10 2053.65 354.221   2
   3  -2 -10 1769.69 399.586  10
   3   2 -10 1970.84 432.316   9
   3   2 -10 1598.81 358.487   2
  -3  -2  10 1773.59 376.277   6
  -3  -2  10 1892.95 430.264  13
  -3  -2  10 1314.25 277.176  18
  -3   2  10 1270.21 276.463  13
  -3   2  10 1576.19 441.969   1
  -3  -2  10 1638.73 375.408   1
   3  -2  -9 26804.9 1275.46  10
   3   2  -9 28769.3 1304.82   2
   3  -2  -9 27713.0 1114.31   2
   3   2  -9 27839.2 952.987   7
  -3   2   9 29058.4 1308.68   1
  -3  -2   9 26852.5 1317.97  13
  -3   2   9 26598.5 1078.15  13
  -3  -2   9 27753.8 1255.83   6
   3   2  -9 25563.1 895.881   5
  -3  -2   9 25951.5 1092.05  18
  -3  -2   9 27207.1 1105.41   1
   3   2  -8-59.3721 131.091   2
  -3   2   8-11.9789 100.149  13
   3   2  -8 130.868 127.540   5
   3   2  -8 70.2717 90.3147   7
   3  -2  -8 53.2503 177.905  10
  -3  -2   8 267.065 142.120  18
   3  -2  -8 174.279 127.924   2
  -3  -2   8 72.9007 156.179  13
  -3  -2   8 55.7007 183.422   6
  -3   2   8-110.937 265.412   1
  -3  -2   8 302.103 183.035   1
   3   2  -7 15471.1 840.464   2
   3  -2  -7 15627.9 856.497  10
   3  -2  -7 16547.8 703.355   2
  -3  -2   7 14057.4 705.261  18
  -3  -2   7 15580.3 867.927   6
   3   2  -7 16336.9 690.290   7
  -3   2   7 13534.7 838.384   1
  -3   2   7 14925.3 432.084   5
  -3   2   7 15883.4 681.598  13
  -3  -2   7 15477.3 881.619  13
   3   2  -7 16562.3 715.360   5
  -3  -2   7 13931.8 679.366   1
  -3   2   6 1193.11 154.856   5
   3   2  -6 1692.89 252.851   5
  -3   2   6 1458.14 300.662   1
   3  -2  -6 905.202 236.428  10
   3  -2  -6 970.940 157.309   2
   3   2  -6 1020.78 168.620   7
  -3  -2   6 1279.60 265.405  13
   3   2  -6 1302.17 251.765   2
   3  -2  -6 1459.24 236.664  11
  -3   2   6 1461.93 187.528  13
  -3  -2   6 1414.28 272.658   6
  -3  -2   6 1107.42 233.373  17
  -3  -2   6 1280.83 186.070   1
   3  -2  -5 141879. 1531.42   2
  -3   2   5 139802. 2237.22   1
  -3  -2   5 148089. 2361.45  13
  -3  -2   5 143441. 2356.19  17
   3  -2  -5 142274. 2300.00  10
  -3  -2   5 151185. 2376.32   6
   3   2  -5 144061. 2065.86   5
   3  -2  -5 139270. 2038.64   3
   3   2  -5 144346. 1948.31   7
  -3   2   5 140597. 1525.37  13
  -3  -2   5 139860. 1519.24   1
   3  -2  -5 142567. 1947.23  11
   3   2  -5 144063. 2217.10   2
  -3   2   4 21806.4 486.422  13
   3  -2  -4 21629.9 459.071   2
   3  -2  -4 21482.9 786.375   3
  -3  -2   4 21465.4 860.429  17
  -3  -2   4 21842.4 866.518   6
   3  -2  -4 22332.4 867.476  10
  -3  -2   4 21158.1 851.734  13
   3   2  -4 21447.0 774.082   7
   3   2  -4 21267.1 801.338   5
   3  -2  -4 21663.0 689.295  11
   3   2  -4 23134.1 843.463   2
  -3  -2   3 132711. 1642.95  11
  -3  -2   3 130950. 2009.95  17
   3  -2  -3 138893. 2059.08  10
  -3  -2   3 137200. 2045.19  13
   3   2  -3 139522. 1902.17   7
   3  -2  -3 137635. 1148.67  14
   3  -2  -3 131864. 2084.26   7
  -3   2   3 130530. 1062.73  13
  -3  -2   3 132294. 2020.37   6
   3  -2  -3 132057. 1970.05   3
   3   2  -3 134417. 2002.72   5
   3   2  -3 137206. 1941.89   2
   3  -2  -3 131660. 1593.81  11
   3   2  -2 1132.55 224.755   5
   3  -2  -2 934.495 172.037  10
  -3  -2   2 991.266 204.890  17
  -3   2   2 1135.73 146.383  15
  -3  -2   2 1001.70 142.758  11
   3  -2  -2 1174.23 205.727   7
   3  -2  -2 1072.94 135.830  14
   3   2  -2 1415.92 236.564   7
  -3  -2   2 851.930 179.293  13
   3  -2  -2 1261.49 226.308   3
  -3  -2   2 1211.42 188.278  12
   3  -2  -2 965.955 138.428  11
   3  -2  -1 106470. 1413.33  11
   3  -2  -1 105049. 1753.09  10
  -3  -2   1 104419. 1743.35  17
   3  -2  -1 106013. 1665.64   7
   3  -2  -1 100831. 1484.57  14
   3  -2  -1 104941. 1768.95   3
  -3  -2   1 103875. 1668.72  12
   3   2  -1 106631. 1692.25  16
  -3   2   1 111278. 1074.72  15
  -3   2   1 104594. 979.817   2
   3   2  -1 104932. 1742.75   5
  -3  -2   1 103543. 1412.54  11
  -3   2   0 43784.8 836.800   2
  -3  -2   0 43267.1 1158.58  17
   3   2   0 45695.2 1120.28  16
   3   2   0 42878.7 793.217   1
   3   2   0 44149.2 1138.82   5
   3  -2   0 43849.7 1144.90  10
  -3  -2   0 45420.4 797.896   8
  -3   2   0 44815.6 1165.33   8
   3  -2   0 43139.3 1010.39   7
   3  -2   0 45371.9 1176.74   3
  -3  -2   0 44245.0 1158.93  12
  -3  -2   0 44752.3 981.933  11
   3  -2   1 133607. 2071.38   3
   3   2   1 119965. 1625.15   1
  -3  -2  -1 128255. 2079.41  12
   3   2   1 128091. 2015.54  14
  -3   2  -1 126210. 2057.21   8
  -3  -2  -1 125438. 1823.60   4
  -3  -2  -1 125631. 2041.76  17
   3  -2   1 132444. 1933.57  18
  -3   2  -1 131123. 1724.49   2
   3   2   1 125004. 1959.50   5
   3  -2   1 127853. 1655.57   7
  -3  -2  -1 129091. 1831.96  11
   3   2   2 72460.3 1431.29   1
  -3   2  -2 73225.3 1466.43   2
   3   2   2 74536.1 1610.44  14
   3  -2   2 76899.7 1613.65  18
  -3  -2  -2 72221.2 1652.25  17
   3  -2   2 70828.9 1183.20   7
   3  -2   2 72785.7 1598.25   3
  -3  -2  -2 70282.4 1402.42   4
  -3  -2  -2 73065.0 1655.88  12
  -3  -2  -2 74783.4 1508.17  11
   3   2   3 64173.8 1479.79   1
  -3   2  -3 61652.8 1506.79   2
   3  -2   3 65441.5 1615.53  18
   3   2   3 62152.9 1563.85  14
  -3  -2  -3 64886.2 1652.62  17
   3  -2   3 62739.6 1061.29   7
   3  -2   3 64409.3 1540.27   3
  -3  -2  -3 62600.4 1611.01  12
  -3  -2  -4 1832.35 345.340  12
   3  -2   4 1464.38 282.544  18
  -3  -2  -4 1789.90 316.756  17
   3  -2   4 1217.15 239.658   3
   3  -2   4 1379.94 291.641  14
   3  -2   4 1427.30 157.922   7
   3   2   4 1879.02 341.182   1
  -3   2  -4 1603.63 283.633   2
   3   2   4 1347.32 262.469  14
   3   2   5 14745.7 894.881   1
  -3   2  -5 14762.2 874.899   2
   3  -2   5 16236.8 924.046  18
   3  -2   5 13901.3 768.073   3
   3  -2   5 13437.6 465.701   7
   3  -2   5 14495.9 915.996  14
  -3  -2  -5 14220.5 856.183  12
  -3  -2  -5 14986.2 926.624  17
   3   2   5 15548.3 863.495  14
   3  -2   5 14363.2 887.717   1
  -3   2  -6 11851.2 780.540   5
  -3   2  -6 11368.6 795.184  12
  -3   2  -6 11251.9 824.834   2
   3  -2   6 12530.2 871.824  18
   3  -2   6 11521.0 832.150   1
   3  -2   6 11500.9 727.213   3
  -3  -2  -6 12067.3 834.791  12
   3   2   6 12170.6 869.371   1
   3  -2   6 12006.8 894.554  14
   3   2   6 12018.4 801.155  14
   3   2   7 79212.5 2277.87   1
  -3   2  -7 74191.1 2261.68   2
   3  -2   7 74258.1 2271.68  14
   3   2   7 74220.9 2087.47  15
   3  -2   7 77529.4 1916.70   3
  -3  -2  -7 71500.4 2074.14  12
   3   2   7 76679.9 2092.04  14
   3  -2   7 77525.9 2286.04  18
   3  -2   7 72238.3 2224.32   1
  -3   2  -7 70761.7 2084.68  12
  -3   2  -7 77667.2 1994.18   5
   3   2   8 4513.69 557.753  14
  -3   2  -8 4499.97 604.423   2
   3  -2   8 5692.07 697.544  18
   3  -2   8 5889.76 694.609  14
   3   2   8 5200.19 677.013   1
   3  -2   8 5023.34 518.932   3
  -3   2  -8 5011.53 542.185   5
   3   2   8 5384.12 602.764  15
   3  -2   8 4340.89 597.314   1
  -3  -2  -8 4603.60 580.058  12
  -3   2  -8 4586.91 576.924  12
  -3   2  -9 71653.7 2027.75   5
   3   2   9 66320.8 2368.17   1
   3   2   9 68902.3 2177.47  14
   3  -2   9 69542.5 2428.50  18
   3  -2   9 69191.6 2428.46   1
   3  -2   9 73036.1 2479.40  14
   3   2   9 67614.1 2248.57  15
  -3  -2  -9 70354.5 2206.31  12
  -3   2  -9 70399.2 2470.38   2
  -3   2  -9 74787.5 2307.04  12
   3   2  10 804.698 356.943   1
   3  -2  10 1101.05 390.394  14
  -3   2 -10 1305.44 394.975   2
   3  -2  10 1438.06 444.315  18
  -3   2 -10 1892.44 433.985  12
   3   2  10 720.918 286.114  14
  -3  -2 -10 1017.58 401.859   2
   3  -2  10 686.077 274.771   1
   3   2  10 1442.35 358.231  15
  -3  -2 -10 1225.41 345.477  12
   3   2  11-9.19845 397.491   1
   3  -2  11 1489.48 439.312  18
  -3   2 -11 1233.42 394.429  12
   3   2  11 1180.30 374.669  15
   3   2  11 1428.65 369.435  14
  -3   2 -11 531.597 275.724   2
  -3  -2 -11 901.757 353.437   2
   3  -2  11 750.434 407.808   1
  -3  -2 -11 1669.68 413.226  12
   3  -2  11 1543.25 421.347  14
   3  -2  12 5687.27 818.593  14
  -3   2 -12 6911.84 904.524   2
  -3  -2 -12 5770.11 834.716   2
   3   2  12 6802.17 813.834  15
   3   2  12 6271.09 769.585  14
   3   2  12 4476.27 820.276   1
   3  -2  12 7139.02 931.495  18
  -3   2 -12 7343.58 821.425  12
   3  -2  12 6401.98 928.438   1
  -3  -2 -12 7246.55 809.045  12
   3   2  13 2236.87 667.394   1
   3   2  13 1085.23 384.577  15
   3  -2  13 1628.47 458.285  14
  -3   2 -13 2666.09 633.842   2
   3  -2  13 2104.54 558.359  18
   3  -2  13 1040.59 450.774   1
  -3  -2 -13 1569.57 500.582   2
  -3   2 -14 2023.68 592.944   2
   3  -2  14 1726.69 514.223  18
  -3  -2 -14 1628.37 535.887   2
   3   2  14 1836.61 488.328  15
   3  -2  14 1533.37 477.774  14
   3  -2  14 1527.47 528.508   1
   3   2  14 2767.18 669.956   1
  -3   2 -15 11897.6 1355.17   2
  -3  -2 -15 12346.3 1369.44   2
   3  -2  15 12621.0 1382.12  18
   3  -2  15 11027.0 1309.63   1
   3  -2  15 11601.5 1271.51  14
   3   2  15 13866.2 1437.18   1
  -3   3  18 3903.42 814.523  15
   3  -3 -18 3782.01 744.269  10
  -3   3  18 2525.41 646.953   1
  -3   3  18 3758.50 721.487   6
   3  -3 -18 3065.58 680.729  11
  -3  -3  18 3382.56 798.363  13
   3   3 -18 3689.24 763.312   2
  -3   3  17-28.1895 339.321   1
   3   3 -17-179.074 244.595   2
  -3   3  17 575.312 453.256  15
   3  -3 -17-30.4155 271.332  10
  -3  -3  17-94.2636 285.317  13
  -3   3  17 259.172 303.177   6
   3  -3 -17 78.9483 251.092  11
   3  -3 -16-151.329 305.045  10
   3   3 -16 472.529 316.836   9
  -3   3  16 824.022 490.309   1
  -3   3  16 996.396 468.014  15
   3   3 -16 184.804 256.854   2
  -3  -3  16 1470.79 524.819  13
   3  -3 -15 214.350 277.669  10
   3   3 -15 285.011 252.768   9
  -3   3  15 413.193 333.501   1
   3   3 -15-281.753 360.253   2
  -3  -3  15-40.4641 197.462  18
  -3  -3  15 265.788 267.229   6
  -3   3  15-221.559 322.453  15
  -3  -3  15 354.765 247.783  13
   3   3 -14 7867.81 935.261   2
  -3  -3  14 8096.32 862.104  18
  -3   3  14 9084.91 1051.27   1
   3  -3 -14 9804.89 930.974   2
  -3   3  14 9622.35 1105.28  15
   3   3 -14 9912.88 975.750   9
  -3  -3  14 8024.64 977.089  13
  -3  -3  14 8819.59 895.756   6
   3  -3 -14 8271.03 943.457  10
  -3  -3  14 7988.35 894.313   1
  -3  -3  13 1972.33 432.840   6
   3   3 -13 4050.65 655.990   9
   3   3 -13 2594.96 575.840   2
   3  -3 -13 2827.32 549.296  10
  -3  -3  13 2213.91 523.856  13
   3  -3 -13 1825.85 398.066   2
  -3  -3  13 1925.75 419.086  18
  -3   3  13 2691.73 609.183   1
  -3  -3  13 2595.24 508.411   1
  -3   3  13 2294.35 536.499  15
   3   3 -12 80444.7 2684.42   2
   3  -3 -12 84186.1 2672.55  10
  -3  -3  12 83652.0 2462.37  18
   3  -3 -12 83003.7 2406.21   2
  -3  -3  12 79950.6 2411.21   1
  -3  -3  12 87482.8 2904.05  13
  -3  -3  12 86030.0 2551.19   6
  -3   3  12 84115.5 2886.26  15
   3   3 -12 82454.4 2586.05   9
  -3   3  12 85516.7 2751.97   1
   3  -3 -11 241.347 277.105  10
  -3  -3  11 115.686 187.636  18
   3   3 -11 151.598 236.944   2
  -3  -3  11-146.524 238.313   1
  -3  -3  11 123.747 214.579  13
   3  -3 -11 336.572 214.537   2
  -3   3  11 148.084 292.766  15
  -3  -3  11 209.657 277.135   6
  -3   3  11 334.876 347.210   1
   3  -3 -10 62435.2 2081.22  10
   3  -3 -10 61019.9 1796.11   2
  -3  -3  10 58839.2 1853.12  18
  -3   3  10 59258.8 2089.39   1
   3   3 -10 60615.9 2099.74   2
  -3  -3  10 62940.0 2019.46   6
  -3   3  10 62333.9 2232.08  15
  -3  -3  10 60141.3 1783.32   1
  -3  -3  10 60763.2 2164.93  13
   3   3 -10 62471.4 1619.16   5
  -3   3   9 3127.13 499.419  15
   3   3  -9 4030.61 535.969   2
   3  -3  -9 3645.03 502.177  10
   3  -3  -9 3740.77 422.179   2
  -3   3   9 3327.41 508.212   1
  -3  -3   9 3490.80 437.368  18
  -3  -3   9 3561.91 519.101  13
  -3  -3   9 3309.54 411.158   1
   3   3  -9 3850.79 418.045   5
  -3  -3   9 4197.12 528.767   6
   3  -3  -9 4188.28 494.977  11
   3  -3  -8 1269.45 271.739  11
   3   3  -8 1475.40 276.318   5
  -3  -3   8 1366.27 329.802  13
   3  -3  -8 1447.63 317.601  10
  -3   3   8 1687.28 231.360  13
  -3  -3   8 1246.91 254.009   1
  -3  -3   8 1462.92 307.682  17
   3   3  -8 1429.84 303.095   2
  -3   3   8 1647.84 338.393  15
  -3   3   8 1018.02 268.805   1
   3  -3  -8 1465.51 257.954   2
  -3  -3   8 1393.57 331.029   6
   3   3  -8 1750.71 237.080   7
   3  -3  -7 2080.44 314.583  11
  -3   3   7 1686.15 209.384  13
   3   3  -7 2179.32 337.795   5
   3   3  -7 1853.82 334.262   2
  -3  -3   7 1645.80 333.162  17
  -3   3   7 1461.50 336.119   1
  -3   3   7 1851.74 351.922  15
  -3  -3   7 1641.01 337.838  13
  -3  -3   7 1916.02 359.761   6
   3   3  -7 2037.71 256.696   7
   3  -3  -7 1688.59 314.034  10
  -3  -3   7 1063.64 220.281   1
  -3   3   7 1795.04 197.529   5
   3  -3  -6 5444.89 520.099  10
   3   3  -6 5901.50 504.777   5
  -3   3   6 4869.74 530.908   1
   3   3  -6 5982.47 425.642   7
   3  -3  -6 5637.55 441.849   3
  -3  -3   6 5502.15 527.572  13
  -3  -3   6 4869.55 525.228   6
  -3   3   6 5419.79 516.398  15
  -3  -3   6 6067.76 570.280  17
   3  -3  -6 5119.28 448.133  11
   3   3  -6 5093.93 542.212   2
  -3   3   6 5951.77 383.280   5
   3  -3  -5 3955.31 429.966  10
  -3  -3   5 4052.42 440.224  17
   3   3  -5 4070.13 356.437   7
   3  -3  -5 3856.49 370.572   3
  -3  -3   5 3537.19 415.264   6
  -3   3   5 3796.69 329.473   5
  -3   3   5 3547.45 391.844  15
  -3  -3   5 3728.21 418.959  13
  -3   3   5 3587.93 456.559   1
   3   3  -5 3343.32 400.269   5
   3  -3  -5 3925.96 372.618  11
   3   3  -5 3766.04 417.147   2
   3  -3  -4 395330. 3961.33  10
  -3  -3   4 415649. 4066.90  17
   3   3  -4 408318. 3957.24   2
   3  -3  -4 401050. 3705.69   3
  -3   3   4 401986. 3689.25  15
  -3  -3   4 403108. 4023.03  13
   3   3  -4 400793. 3406.22   7
   3   3  -4 406541. 3909.41   5
  -3   3   4 393458. 3469.84   5
   3  -3  -4 390348. 3447.20  11
  -3  -3   3 3950.55 346.376  11
  -3   3   3 3644.69 367.659   5
   3  -3  -3 3624.70 384.930  10
  -3   3   3 3722.09 330.121  15
   3   3  -3 4077.96 382.588   7
  -3  -3   3 3587.73 375.115  17
   3  -3  -3 3766.89 333.960  11
  -3  -3   3 4005.17 395.461  13
   3  -3  -3 3758.51 378.312   3
   3   3  -3 4263.23 425.084   5
   3  -3  -2 279341. 3233.01  10
   3  -3  -2 280872. 3180.64   3
  -3  -3   2 286522. 3201.83  17
  -3  -3   2 281775. 3124.73  13
   3   3  -2 281215. 3204.19   5
  -3   3   2 284382. 3178.17   5
   3  -3  -2 279108. 2733.01  11
  -3  -3   2 277048. 2788.23  11
   3   3  -1 2909.77 363.886   5
   3  -3  -1 2686.42 331.801  10
  -3   3   1 2482.11 323.441   5
  -3  -3   1 2165.75 292.234  17
   3  -3  -1 3097.01 356.925   3
  -3   3   1 2343.23 276.495   8
   3  -3  -1 2246.06 259.302  11
  -3   3   1 2508.45 203.680   2
   3   3  -1 3019.14 225.655   1
   3   3  -1 3305.55 360.500  16
  -3  -3   1 2486.21 289.402  13
  -3  -3   1 2251.29 308.503  12
  -3  -3   1 2971.18 306.542  11
   3  -3   0 31001.1 974.360  11
  -3   3   0 29689.7 776.434   2
  -3   3   0 30486.8 626.730  16
  -3   3   0 29040.8 1130.32   5
   3   3   0 29844.8 1047.20  16
  -3  -3   0 30718.7 1077.00  17
  -3   3   0 31265.4 1042.80   8
   3   3   0 31880.5 784.594   1
   3  -3   0 30379.4 1085.88   3
  -3  -3   0 28976.7 1034.74  12
   3   3   0 28519.7 1024.04   5
  -3  -3   0 30333.1 961.938  11
  -3  -3  -1 1549.32 250.281  11
  -3   3  -1 1903.23 231.752   2
   3   3   1 1609.59 284.795   5
  -3   3  -1 2320.42 324.168   8
   3   3   1 1936.61 261.019   1
  -3   3  -1 1592.56 277.960   5
   3   3   1 1736.82 281.447  16
  -3  -3  -1 2076.73 302.501   4
  -3  -3  -1 1982.42 299.933  17
   3  -3   1 2226.25 320.203   3
  -3  -3  -1 1703.86 290.694  12
   3  -3   2 28757.4 1123.03   3
  -3   3  -2 28387.6 1148.51   5
  -3   3  -2 27204.7 952.840   2
   3   3   2 30574.7 978.037   1
  -3  -3  -2 29227.6 1143.88  17
   3  -3   2 26283.3 761.141   7
   3  -3   2 28358.7 1087.28  18
  -3  -3  -2 29304.8 1042.15   4
  -3  -3  -2 28539.2 1111.13  12
   3   3   2 27295.8 997.467   5
   3   3   2 27413.2 1047.74  14
  -3  -3  -2 29832.5 1067.33  11
  -3   3  -3 50406.8 1612.24   5
  -3   3  -3 49500.1 1407.88   2
   3  -3   3 47851.0 926.089   7
  -3  -3  -3 47759.0 696.782  10
   3   3   3 52727.4 1411.72   1
   3  -3   3 52921.2 1576.03  18
  -3  -3  -3 49446.4 1397.05   4
   3  -3   3 50258.2 1465.51  13
  -3  -3  -3 50408.9 1574.27  17
  -3  -3  -3 49978.1 1533.84  12
   3   3   3 47835.5 1341.11   5
   3   3   3 50154.4 1463.88  14
  -3  -3  -3 49436.3 1456.65  11
   3  -3   3 53505.4 1559.22   3
  -3  -3  -4 11925.1 447.551  10
  -3   3  -4 12971.5 788.807   2
   3   3   4 12746.9 768.427  14
   3   3   4 12453.4 765.738   1
   3  -3   4 12447.9 802.309  13
   3  -3   4 12279.4 405.728   4
  -3  -3  -4 12849.0 849.402  17
   3  -3   4 12509.9 824.368  18
   3  -3   4 11674.2 761.185   3
  -3   3  -4 12284.3 807.335   5
  -3  -3  -4 12392.7 809.140  12
  -3  -3  -4 13058.2 797.821  11
  -3  -3  -5 586.885 133.017  10
  -3  -3  -5 678.055 236.994  17
   3  -3   5 934.032 275.517   3
   3  -3   5 323.452 208.829  18
   3   3   5 567.875 190.541  14
  -3   3  -5 795.836 255.556   2
   3   3   5 796.334 316.874   1
  -3   3  -5 485.790 201.973   5
   3  -3   5 688.116 249.631  13
  -3  -3  -5 231.573 231.122  12
  -3   3  -6 61471.6 1874.76   5
   3   3   6 60760.1 1899.14   1
  -3   3  -6 59377.0 1928.07   2
   3  -3   6 63624.5 2035.89  18
  -3  -3  -6 58288.7 1858.67  12
   3   3   6 58222.4 1772.63  14
   3  -3   6 61046.1 1823.28   3
   3  -3   6 58816.8 1970.46  13
  -3  -3  -6 60944.7 2046.64  17
   3  -3   7 34567.1 1611.16  13
  -3   3  -7 30948.4 1489.54   2
  -3   3  -7 33860.9 1416.69   5
   3  -3   7 34135.1 1590.78  18
   3  -3   7 32417.9 1361.03   3
  -3  -3  -7 31550.7 1421.27  12
   3   3   7 31994.3 1476.36   1
   3   3   7 32339.6 1377.01  14
  -3   3  -8 73924.1 2139.32   5
   3   3   8 71081.1 2364.12   1
  -3   3  -8 72987.9 2409.74   2
   3  -3   8 79283.0 2513.07  18
   3   3   8 76243.4 2211.99  14
   3  -3   8 71728.2 2445.30  14
   3  -3   8 76700.4 2160.12   3
  -3   3  -8 73082.6 2283.93  12
  -3  -3  -8 75305.6 2265.98  12
  -3   3  -9 2132.88 406.120   5
  -3   3  -9 1847.71 449.987   2
   3   3   9 1721.32 455.906   1
   3  -3   9 1515.37 425.796  18
   3  -3   9 2126.48 487.177  14
   3   3   9 1936.00 387.941  14
  -3  -3  -9 2651.07 486.915  12
  -3   3  -9 2461.55 447.391  12
   3  -3   9 1115.48 289.769   3
   3   3  10 17753.4 1340.92   1
  -3   3 -10 16063.4 1250.79   2
   3  -3  10 16355.8 1279.75  14
   3   3  10 17389.1 1147.78  14
   3  -3  10 16928.8 1340.04   1
  -3   3 -10 17765.9 1215.26  12
  -3  -3 -10 20372.1 1279.60  12
   3  -3  10 16343.5 1260.61  18
   3   3  11 4861.57 782.021   1
  -3   3 -11 4164.31 710.457   2
  -3  -3 -11 4298.43 623.674  12
  -3   3 -11 5361.82 703.566  12
   3  -3  11 5315.82 782.123  14
   3  -3  11 4986.78 759.405  18
   3  -3  11 3287.29 671.614   1
   3   3  11 4876.84 644.193  14
  -3  -3 -12 2278.87 570.902   2
  -3  -3 -12 2419.13 490.007  12
   3   3  12 607.419 370.167   1
   3  -3  12 1944.20 494.283  18
   3  -3  12 2105.66 514.306  14
  -3   3 -12 2172.92 551.406   2
  -3   3 -12 2508.51 512.129  12
   3  -3  13-37.5276 260.974  18
   3   3  13-445.702 437.094   1
  -3   3 -13-232.322 309.128   2
   3  -3  13-49.1001 275.512  14
  -3  -3 -13 153.792 280.112   2
   3   3  14 4809.59 868.933   1
  -3  -3 -14 5144.37 859.574   2
   3  -3  14 4586.64 801.937  14
  -3   3 -14 4132.69 800.445   2
   3  -3  14 4077.37 786.753  18
   3   3  15 1106.55 532.477   1
  -3   3 -15 586.000 397.708   2
   3  -3  15-300.399 369.659  14
  -3  -3 -15 482.274 299.439   2
   3  -3  15 339.724 312.909  18
   3  -3  16 3196.29 713.799  14
   3  -4 -18 686.712 378.508  10
  -3   4  18 983.266 412.187   6
   3  -4 -18 1469.31 507.629  11
   3   4 -17 15496.8 1494.45   2
  -3   4  17 13920.5 1472.07   1
   3  -4 -17 13532.9 1330.16  10
   3  -4 -17 15642.1 1450.48  11
  -3  -4  17 12270.3 1348.15  17
  -3   4  17 13845.1 1471.22  15
  -3  -4  17 14377.1 1513.84  13
   3  -4 -16 126.841 244.738  11
  -3   4  16 1038.38 489.188   1
  -3  -4  16-30.7518 289.573  17
  -3   4  16 764.291 423.307  15
   3   4 -16 847.304 427.811   9
   3   4 -16 151.608 308.981   2
   3  -4 -16 452.173 291.130  10
  -3  -4  16 534.371 421.845  13
   3  -4 -15 5541.59 820.890  10
  -3  -4  15 5222.18 844.549  17
  -3   4  15 4456.67 811.744   1
   3   4 -15 4382.03 755.484   2
  -3   4  15 5027.56 873.592  15
   3   4 -15 4833.73 745.584   9
  -3  -4  15 5824.62 911.955  13
   3  -4 -15 5426.97 809.156  11
   3  -4 -14 1216.27 360.523  11
   3  -4 -14 593.401 240.710  10
   3   4 -14 1215.49 443.997   9
   3   4 -14 1055.70 368.284   2
  -3   4  14 1096.19 479.511  15
  -3   4  14 1722.96 609.499   1
  -3  -4  14 710.839 319.981   6
  -3  -4  14 809.691 412.765  13
   3  -4 -13 441.120 321.172  11
  -3  -4  13 553.674 370.909  13
   3   4 -13 221.192 284.851   2
  -3   4  13 315.190 288.944  15
  -3  -4  13 155.418 226.823  17
  -3   4  13 800.743 409.525   1
  -3  -4  13 94.1594 211.161   6
   3  -4 -13 142.112 258.687  10
   3  -4 -12 315.009 236.983  11
   3  -4 -12 816.495 349.665  10
  -3  -4  12 575.866 248.286   6
  -3   4  12 480.687 362.239  15
   3  -4 -12 869.606 278.650   2
  -3  -4  12 745.353 362.788  13
   3   4 -12 661.465 310.322   2
  -3  -4  12 525.023 294.549  17
  -3   4  12 788.491 388.476   1
   3  -4 -11 6069.06 706.288  10
   3  -4 -11 7926.55 705.421   2
   3   4 -11 7301.53 825.531   2
  -3  -4  11 7628.22 762.287   6
  -3   4  11 7899.41 887.366  15
  -3   4  11 7579.93 860.365   1
  -3  -4  11 7362.80 855.248  13
  -3  -4  11 7672.01 834.459  17
   3  -4 -11 8219.89 828.018  11
  -3  -4  10-487.533 336.330  13
   3  -4 -10 248.131 241.918  11
   3  -4 -10-284.749 270.961  10
  -3   4  10-2.27751 333.174   1
  -3  -4  10-138.096 263.287  17
   3   4 -10-163.172 223.800   5
   3   4 -10-68.7076 221.297   2
  -3  -4  10 109.620 217.431   6
   3  -4 -10 123.324 134.455   2
  -3   4  10 273.027 267.372  15
   3  -4  -9 53727.8 1891.48  10
  -3  -4   9 50304.8 1922.09  17
  -3   4   9 51490.4 1984.63  15
  -3   4   9 53975.6 1987.69   1
  -3  -4   9 51062.0 1841.58   6
  -3  -4   9 53253.3 2037.78  13
   3   4  -9 51506.7 1656.06   5
   3  -4  -9 50902.6 1793.49  11
   3   4  -9 52457.8 1955.08   2
   3  -4  -8 3189.09 456.244  11
   3  -4  -8 2914.51 449.851  10
  -3  -4   8 3491.20 504.080  17
  -3   4   8 3318.69 494.862  15
   3   4  -8 3136.83 447.846   5
  -3  -4   8 3720.12 545.123  13
  -3  -4   8 3967.43 519.527   6
   3   4  -8 3655.61 509.607   2
  -3   4   8 4457.64 597.724   1
   3  -4  -7 155832. 2813.02  11
   3  -4  -7 154645. 2930.57  10
  -3   4   7 148892. 2090.50   5
  -3   4   7 153922. 3081.68   1
  -3   4   7 154373. 3041.74  15
   3   4  -7 153906. 2133.13   7
   3  -4  -7 147537. 2391.72   3
  -3  -4   7 156224. 3105.78  13
   3   4  -7 157510. 2830.40   5
  -3  -4   7 164416. 3109.74  17
   3   4  -7 158453. 3120.54   2
  -3   4   6 3437.33 488.604   1
   3  -4  -6 2818.02 421.849  10
   3   4  -6 3095.40 442.465   2
  -3  -4   6 3156.12 439.634  17
  -3  -4   6 2432.96 405.438  13
   3   4  -6 3764.29 469.279   5
  -3   4   6 3806.69 467.962  15
   3   4  -6 3175.35 327.518   7
   3  -4  -6 3160.29 368.895   3
   3  -4  -6 3197.40 396.276  11
  -3   4   6 2909.89 325.182   5
   3  -4  -5 120271. 2429.65  10
  -3  -4   5 125701. 2520.61  13
  -3   4   5 118993. 2355.72  15
   3  -4  -5 117622. 2169.30   3
   3   4  -5 124200. 1982.87   7
  -3  -4   5 123230. 2477.08  17
   3   4  -5 120855. 2493.79   2
   3  -4  -5 120974. 2266.94  11
   3   4  -5 124505. 2441.60   5
  -3   4   5 118076. 2063.47   5
  -3  -4   4 27414.2 1083.30  11
   3  -4  -4 29410.0 1178.45  10
  -3   4   4 30933.0 1088.75   5
   3   4  -4 30390.9 1020.51   7
  -3   4   4 29083.4 1083.08  15
   3  -4  -4 28224.0 1070.85   3
  -3  -4   4 28886.5 1170.46  13
  -3  -4   4 29595.3 1178.67  17
   3   4  -4 28257.5 1169.52   2
   3  -4  -4 29364.6 1072.96  11
   3   4  -4 30820.5 1211.97   5
  -3   4   3 3355.33 385.587   5
   3   4  -3 2726.26 387.647   5
   3  -4  -3 3628.71 415.043  10
   3  -4  -3 2994.77 368.144   3
  -3  -4   3 3589.43 422.155  17
  -3  -4   3 3307.28 398.983  13
   3  -4  -3 3090.73 345.491  11
  -3  -4   3 2524.94 332.387  11
  -3   4   2 12548.7 751.817   5
   3  -4  -2 13279.0 783.980  10
   3  -4  -2 12289.3 741.856   3
  -3  -4   2 12068.6 712.988  13
  -3  -4   2 13526.7 773.479  17
   3   4  -2 12705.6 783.157   5
   3  -4  -2 12927.3 694.424  11
  -3  -4   2 12420.9 691.006  11
  -3   4   1 7022.56 574.636   5
  -3  -4   1 6364.78 498.303  11
   3  -4  -1 6151.99 552.003  10
   3   4  -1 6123.14 407.313   1
  -3   4   1 5314.87 355.356   2
   3  -4  -1 6042.50 490.281  11
  -3  -4   1 5941.73 530.868  17
   3  -4  -1 5966.62 536.084   3
   3   4  -1 6602.26 562.057  16
  -3  -4   1 6956.31 537.770  13
  -3   4   1 7154.20 523.876   8
   3   4  -1 6975.40 587.136   5
   3  -4   0 85970.8 1846.17  11
  -3  -4   0 89378.1 2005.72  17
  -3   4   0 86672.4 2077.19   5
   3   4   0 85582.4 1967.94   5
  -3  -4   0 88581.2 1988.53   4
   3  -4   0 85591.4 2024.42   3
   3   4   0 95408.5 1595.07   1
   3   4   0 86965.3 2019.28  16
  -3   4   0 89702.4 1384.48  16
  -3  -4   0 83655.8 1814.97  13
  -3   4   0 88929.4 1879.29   8
  -3   4   0 84843.5 1507.51   2
  -3  -4   0 89192.7 1890.88  11
  -3   4  -1 125903. 2560.30   5
  -3  -4  -1 133681. 2507.38  17
   3   4   1 137484. 2066.14   1
  -3  -4  -1 124115. 2377.98   4
  -3  -4  -1 129644. 2353.37  11
   3   4   1 132396. 2549.77  16
  -3   4  -1 129928. 2039.71   2
   3  -4   1 136797. 2599.15   3
   3   4   1 128161. 2384.13   5
   3  -4   1 131617. 2000.15  13
  -3  -4  -1 132859. 2500.70  12
   3   4   2 763.791 226.543   5
  -3  -4  -2 1632.35 316.937   4
  -3   4  -2 1646.64 357.270   5
  -3  -4  -2 1762.47 344.746  17
  -3  -4  -2 1221.31 274.446  11
   3  -4   2 1210.13 310.487   3
   3  -4   2 1260.71 243.757  13
  -3   4  -2 894.144 221.063   2
   3  -4   2 1363.75 141.623  17
  -3  -4  -2 1267.15 310.789  12
   3   4   2 1314.20 277.376   1
  -3   4  -3 154297. 2985.47   5
  -3  -4  -3 142145. 2673.60   4
   3  -4   3 148750. 1750.20  17
   3   4   3 152866. 2560.68   1
  -3   4  -3 143669. 2538.23   2
  -3  -4  -3 152439. 2912.67  17
   3  -4   3 149017. 2871.50   3
   3  -4   3 143616. 2551.90  13
  -3  -4  -3 142625. 2776.44  12
   3   4   3 145451. 2521.29   5
  -3  -4  -3 147906. 2719.16  11
   3  -4   4 32987.1 1328.58  13
   3  -4   4 32954.1 1397.62   3
   3   4   4 34984.3 1338.04   1
   3  -4   4 34082.6 898.363   4
  -3  -4  -4 36076.6 1499.14  17
  -3   4  -4 35550.6 1466.41   5
  -3   4  -4 33517.5 1312.56   2
  -3  -4  -4 33132.8 1393.88  12
   3   4   4 34053.7 1234.38   5
  -3  -4  -4 33652.5 1369.61  11
  -3   4  -5 29186.3 1356.70   5
   3  -4   5 27899.5 1356.40  18
   3   4   5 30409.7 1312.47   1
  -3  -4  -5 29312.8 1424.93  17
   3   4   5 28885.2 1248.46  14
   3  -4   5 27325.4 1306.63  13
   3  -4   5 28303.2 1313.79   3
  -3   4  -5 25500.2 1244.22   2
  -3  -4  -5 26825.1 1292.99  12
  -3  -4  -5 28362.7 1331.08  11
  -3  -4  -6 2607.50 443.176  11
  -3   4  -6 2161.61 426.689   5
  -3  -4  -6 2472.25 461.451  12
   3  -4   6 1761.81 380.604  18
   3   4   6 1970.26 352.202  14
  -3   4  -6 2183.38 410.905   2
   3   4   6 2267.12 468.697   1
   3  -4   6 2067.05 396.511  13
   3  -4   6 2189.15 390.627   3
  -3  -4  -6 1835.47 390.820  17
  -3   4  -7 10859.9 888.646   5
   3   4   7 10389.4 884.590   1
  -3   4  -7 10217.1 883.913   2
   3   4   7 10862.0 818.818  14
   3  -4   7 11127.8 950.733  13
   3  -4   7 11632.0 894.393   3
  -3  -4  -7 10413.7 849.577  12
  -3  -4  -7 11337.8 938.182  11
   3  -4   7 10222.7 922.142  18
  -3   4  -8 7907.48 840.584   2
   3   4   8 9256.22 895.303   1
  -3  -4  -8 9038.38 832.480  12
   3  -4   8 9772.11 948.984  18
   3   4   8 8786.91 779.849  14
   3  -4   8 8797.42 805.097   3
   3  -4   8 7891.37 851.347  13
  -3  -4  -8 7953.82 856.520  11
  -3   4  -8 8906.01 825.874   5
   3   4   9 14668.2 1203.61   1
  -3   4  -9 13262.1 1122.92   2
   3  -4   9 12320.4 990.308   3
  -3  -4  -9 16325.0 1150.14  12
   3   4   9 14628.4 1019.75  14
   3  -4   9 13994.3 1186.85  14
   3  -4   9 12879.4 1124.22  18
   3  -4   9 16333.5 1281.11  13
  -3   4  -9 14788.1 1115.24  12
  -3  -4  -9 15001.2 1202.94  11
  -3   4  -9 13423.1 1011.61   5
  -3  -4 -10 177.935 319.574  11
  -3   4 -10 466.060 257.966  12
   3  -4  10 537.621 304.932  18
   3   4  10 382.764 228.296  14
   3  -4  10 345.851 229.365   3
  -3   4 -10 1222.62 455.501   2
   3  -4  10 351.498 341.233  14
   3   4  10 719.967 451.713   1
  -3  -4 -10-204.975 269.046  12
  -3  -4 -11 3845.13 683.776  11
   3  -4  11 4884.77 783.256  18
   3  -4  11 4538.48 756.711  14
  -3   4 -11 5428.66 796.120   2
  -3   4 -11 4869.38 705.080  12
  -3  -4 -11 5076.33 698.323  12
   3   4  11 4425.44 758.666   1
  -3  -4 -12 1407.73 482.934  11
   3   4  12 1095.35 447.684   1
   3  -4  12 2085.99 574.966  14
   3  -4  12 1816.54 516.413  18
  -3   4 -12 1336.93 511.462   2
  -3   4 -12 1306.64 422.350  12
  -3   4 -13 8573.12 1090.86   2
   3   4  13 8108.37 1081.21   1
  -3  -4 -13 9065.23 1123.83   2
   3  -4  13 7840.00 1033.03  14
   3  -4  13 8306.97 1060.14  18
  -3  -4 -13 8359.18 1069.86  11
  -3  -4 -14 423.104 377.472  11
   3   4  14 486.991 385.427   1
   3  -4  14 67.0281 290.127  18
   3  -4  14 498.590 391.882  14
  -3   4 -14 44.3286 240.290   2
  -3  -4 -14-247.038 307.865   2
  -3  -4 -15 9850.47 1228.48   2
   3  -4  15 9708.44 1219.68  18
  -3   4 -15 9527.73 1222.82   2
   3   4  15 7903.11 1147.19   1
   3  -4  15 8002.84 1101.19  14
  -3  -4 -15 9079.42 1212.72  11
   3  -5 -17 1161.26 467.141  11
   3  -5 -17 694.888 373.767  10
   3   5 -17 1005.10 461.242   2
   3   5 -17 1529.05 474.658   9
  -3   5  17 1450.80 590.320   1
  -3   5  17 852.908 457.630  15
  -3  -5  17 885.995 447.566  13
  -3  -5  17 280.068 236.208  17
   3  -5 -16 7588.61 992.058  10
  -3   5  16 7230.34 1080.37   1
  -3  -5  16 8363.62 1093.53  17
  -3   5  16 7841.33 1114.75  15
   3   5 -16 7896.73 1085.82   2
   3  -5 -16 7851.90 1038.81  11
  -3  -5  16 6942.82 1055.14  13
   3   5 -16 7734.79 988.231   9
   3  -5 -15 3794.57 700.271  11
  -3   5  15 3655.45 770.140  15
   3  -5 -15 4350.54 735.859  10
   3   5 -15 3825.81 728.115   2
   3   5 -15 3876.77 726.497   9
  -3  -5  15 2891.10 654.765  17
  -3  -5  15 3042.68 680.564  13
  -3   5  15 3283.81 805.070   1
  -3   5  14 12983.3 1326.07   1
  -3   5  14 12684.2 1310.95  15
  -3  -5  14 12390.3 1207.55  17
  -3  -5  14 13919.6 1377.13  13
   3  -5 -14 12059.6 1169.77  11
   3  -5 -14 10762.4 1084.52  10
   3   5 -14 10130.4 1128.48   2
  -3   5  13 1258.75 413.500  15
   3  -5 -13 1087.40 381.444  10
  -3  -5  13 1598.29 471.678  17
   3   5 -13 695.929 321.529   2
  -3  -5  13 2095.21 575.986  13
   3  -5 -13 1662.32 432.694  11
  -3   5  13 1404.56 508.807   1
   3  -5 -12 15925.2 1212.16  10
  -3   5  12 17492.4 1382.80   1
  -3  -5  12 18989.4 1391.44  17
  -3   5  12 18515.4 1434.98  15
  -3  -5  12 19646.4 1495.20  13
   3  -5 -12 21228.5 1407.65  11
   3   5 -12 18417.5 1397.84   2
   3  -5 -11 2491.80 470.714  11
   3   5 -11 1523.30 369.596   5
  -3   5  11 1974.28 523.727   1
   3  -5 -11 1546.11 407.995  10
  -3  -5  11 1752.50 434.914  17
   3   5 -11 1520.68 402.853   2
  -3   5  11 1237.85 375.602  15
  -3  -5  11 1684.28 472.779  13
   3  -5 -10 19378.7 1223.89  10
  -3   5  10 19253.4 1352.53  15
   3   5 -10 20182.3 1355.36   2
  -3  -5  10 17469.7 1283.95  13
  -3  -5  10 18545.5 1261.14  17
  -3   5  10 17172.4 1239.85   1
   3   5 -10 19188.3 1149.27   5
   3  -5 -10 18574.2 1208.55  11
  -3   5   9 169.728 337.195   1
   3   5  -9 83.3959 218.614   5
   3  -5  -9-346.998 254.051  10
  -3  -5   9 269.406 215.010  13
  -3  -5   9 328.311 251.269  17
   3  -5  -9-264.339 247.758  11
  -3   5   9-1.85347 288.222  15
   3   5  -9-133.807 192.743   2
   3  -5  -8 15339.8 1020.77  10
  -3   5   8 15233.9 1074.85  15
   3  -5  -8 14619.6 802.982   3
  -3  -5   8 15297.0 1087.18  13
  -3  -5   8 14735.4 1039.43  17
  -3   5   8 18076.4 1196.76   1
   3   5  -8 16351.7 1032.15   5
   3  -5  -8 14800.0 998.265  11
   3   5  -8 15151.8 1093.87   2
   3  -5  -7 7102.60 696.432  10
  -3   5   7 7884.73 792.684   1
   3  -5  -7 7342.75 580.046   3
  -3   5   7 6611.93 691.513  15
   3  -5  -7 6773.19 642.815  11
  -3  -5   7 8642.95 762.091  17
  -3  -5   7 7438.67 734.939  13
   3   5  -7 8155.43 771.084   2
   3   5  -7 7008.81 704.290   5
  -3   5   7 7750.26 562.799   5
   3   5  -6 33003.3 1083.50   7
  -3  -5   6 33629.2 1433.39  17
  -3   5   6 32143.9 1472.53   1
  -3   5   6 34890.9 1458.16  15
   3  -5  -6 34252.7 1259.24   3
  -3  -5   6 32056.4 1425.80  13
   3  -5  -6 31682.3 1366.82  10
   3   5  -6 31328.1 1403.26   5
   3   5  -6 35536.9 1516.87   2
   3  -5  -6 32274.7 1345.83  11
  -3   5   6 32683.9 1193.00   5
   3   5  -5 3101.23 498.621   5
  -3   5   5 3069.35 380.140   5
   3  -5  -5 2664.99 414.802  10
  -3  -5   5 2965.55 424.165  17
  -3   5   5 1750.98 425.000   1
   3  -5  -5 2823.67 371.894   3
   3   5  -5 3344.12 480.337   2
   3   5  -5 2972.00 353.134   7
   3  -5  -5 2780.70 408.584  11
  -3  -5   5 2637.82 420.853  13
  -3  -5   4 29326.3 1247.53  11
   3   5  -4 31814.8 1135.35   7
   3  -5  -4 31166.7 1314.49  10
   3  -5  -4 32952.4 1261.03   3
  -3  -5   4 32255.1 1318.72  13
  -3   5   4 32752.7 1248.88   5
  -3  -5   4 31733.2 1314.78  17
   3   5  -4 33792.0 1420.19   5
   3  -5  -4 31095.3 1241.13  11
   3  -5  -3 31683.9 1315.12  10
  -3   5   3 31472.8 1270.82   5
   3   5  -3 32152.1 1364.32   5
  -3  -5   3 33211.6 1313.81  17
   3  -5  -3 31370.8 1223.84  11
  -3  -5   3 31901.4 1269.29  11
  -3  -5   3 32206.3 1269.29  13
   3  -5  -3 31185.8 1244.92   3
   3   5  -2 31444.9 1330.43   5
   3  -5  -2 31235.6 1298.99  10
  -3  -5   2 31951.3 1282.29  17
  -3   5   2 28894.9 1091.65   8
  -3  -5   2 32297.1 1243.05  13
   3  -5  -2 30389.1 1253.00   3
   3  -5  -2 31152.3 1214.76  11
  -3  -5   2 31565.2 1237.27  11
  -3   5   2 31797.1 1310.37   5
  -3  -5   1 704.932 196.451  11
   3  -5  -1 634.410 232.868  11
   3   5  -1 1028.15 285.098   5
  -3  -5   1 878.309 282.810   4
  -3   5   1 765.159 297.345   5
   3   5  -1 374.593 117.302   1
   3   5  -1 599.729 198.472  16
  -3  -5   1 631.250 199.326  13
  -3   5   1 923.533 187.092  16
   3  -5  -1 792.293 246.601  10
   3  -5  -1 813.790 261.015   3
  -3   5   1 777.085 211.896   8
  -3  -5   1 785.678 221.629  17
  -3   5   0 74871.1 2119.86   5
   3   5   0 80231.1 1679.78   1
   3  -5   0 73496.9 1921.31  11
  -3  -5   0 75427.0 2049.95   4
  -3  -5   0 78888.9 2026.96  17
  -3   5   0 76234.1 1525.42  16
  -3   5   0 78352.6 1870.28   8
  -3  -5   0 75787.6 1843.46  13
   3  -5   0 75861.5 1381.26  13
   3  -5   0 78167.8 2110.51   3
   3   5   0 74711.2 2016.37   5
   3   5   0 73498.6 2071.31  16
  -3   5   0 70754.4 1541.91   2
  -3  -5   0 76706.5 1957.73  11
  -3   5  -1 18079.7 1077.63   5
  -3  -5  -1 20095.2 1065.62  17
   3   5   1 19836.8 1101.06  16
   3  -5   1 20578.8 1115.17   3
   3   5   1 21002.1 939.202   1
  -3  -5  -1 19940.3 956.669  13
  -3  -5  -1 18447.2 1040.63   4
   3  -5   1 19450.8 811.461  13
   3   5   1 20376.0 1071.08   5
  -3   5  -1 19261.9 871.080   2
  -3  -5  -1 19347.0 1021.66  11
  -3  -5  -2 90700.5 2309.50  17
   3   5   2 92765.6 1998.08   1
   3  -5   2 90770.9 2365.48   3
  -3   5  -2 93358.5 2452.89   5
   3  -5   2 85623.8 1881.58  13
  -3  -5  -2 87432.9 2267.79   4
   3   5   2 83494.4 2113.86   5
   3   5   2 87620.2 2362.87  16
  -3   5  -2 88446.6 1975.64   2
  -3  -5  -2 88427.5 2222.26  11
   3   5   3 599.076 267.540   5
  -3   5  -3 851.875 324.583   5
  -3  -5  -3 1213.91 312.680   4
  -3  -5  -3 619.564 275.059  17
  -3   5  -3 793.652 252.905   2
   3  -5   3 403.473 177.945  13
  -3  -5  -3 278.971 192.406  11
   3  -5   3 845.937 326.796   3
   3   5   3 899.581 294.404   1
  -3   5  -4 35318.2 1593.20   5
  -3   5  -4 32715.1 1370.40   2
  -3  -5  -4 34342.0 1489.82  11
   3  -5   4 34502.4 1542.47   3
   3   5   4 34986.0 1388.19   1
   3  -5   4 33083.9 1367.90  13
  -3  -5  -4 34766.2 1529.07  12
   3   5   4 32358.5 1310.96   5
  -3  -5  -4 34521.1 1566.20  17
  -3   5  -5 5399.12 608.353   2
   3   5   5 5267.82 612.697   1
   3  -5   5 6133.54 643.803  13
   3   5   5 5767.91 561.425   5
  -3  -5  -5 6385.83 690.859  17
   3  -5   5 6117.40 684.229   3
  -3  -5  -5 5568.71 633.708  12
  -3  -5  -5 5837.22 652.650  11
  -3   5  -5 6477.62 734.512   5
   3   5   6 6889.97 723.775   1
  -3  -5  -6 5671.04 724.718  17
  -3   5  -6 5918.82 652.253   2
   3  -5   6 6560.14 707.600   3
   3  -5   6 6859.03 723.461  13
  -3  -5  -6 5921.44 660.303  12
  -3  -5  -6 5802.27 697.728  11
  -3   5  -6 6388.64 724.377   5
  -3  -5  -7 1816.13 432.640  11
  -3   5  -7 1015.49 336.360   5
   3   5   7 2524.56 532.943   1
   3  -5   7 1127.92 342.563   3
  -3   5  -7 1283.07 352.822   2
   3  -5   7 1807.68 400.374  13
  -3  -5  -7 1438.32 390.148  12
  -3   5  -8 20609.1 1362.63   2
   3   5   8 22240.3 1412.85   1
   3  -5   8 22169.9 1432.32  13
   3  -5   8 21124.3 1423.50  18
   3  -5   8 21574.3 1347.18   3
  -3  -5  -8 22438.0 1365.26  12
  -3   5  -8 20472.7 1305.36   5
  -3  -5  -8 21113.1 1391.30  11
  -3  -5  -9 439.223 322.465  11
  -3   5  -9 481.734 274.561   5
   3  -5   9 415.866 298.169  18
  -3   5  -9 766.817 368.564   2
   3   5   9 173.055 298.633   1
   3  -5   9 239.355 286.375  13
   3  -5   9 718.029 356.404   3
  -3  -5  -9 1029.31 362.085  12
  -3   5 -10 26274.6 1690.11   2
   3   5  10 24869.8 1644.53   1
   3  -5  10 26378.3 1723.71  18
   3  -5  10 25618.0 1547.10   3
   3  -5  10 28830.3 1805.16  13
  -3   5 -10 27733.8 1580.56   5
  -3  -5 -10 27409.1 1590.00  12
  -3  -5 -10 28969.9 1783.49  11
  -3  -5 -11 205.712 248.000  11
   3   5  11 294.051 382.670   1
  -3   5 -11 139.508 270.927   2
   3  -5  11 216.682 327.660  18
   3  -5  11 88.7913 190.364   3
  -3   5 -11 228.854 238.162  12
   3  -5  11-38.2748 263.298  14
  -3  -5 -11-47.4814 239.254  12
  -3   5 -12 8307.70 1036.69   2
  -3   5 -12 7320.65 894.796  12
   3  -5  12 8464.45 1074.46  18
   3   5  12 9690.77 1137.24   1
   3  -5  12 9210.55 1144.69  14
  -3  -5 -12 7863.39 1035.57  11
  -3  -5 -13 3962.68 790.488  11
   3   5  13 4478.58 862.515   1
   3  -5  13 3344.48 753.184  18
  -3   5 -13 3311.94 724.423   2
   3  -5  13 3222.39 717.614  14
  -3  -5 -13 4694.66 828.093   2
  -3  -5 -14 1048.09 438.743  11
   3  -5  14 2753.61 669.389  18
   3   5  14 965.193 494.455   1
   3  -5  14 1328.69 457.867  14
  -3   5 -14 893.460 446.487   2
  -3  -5 -14 1253.90 471.586   2
   3   6 -17 2101.93 590.595   9
   3  -6 -16 196.153 254.530  11
   3   6 -16-182.501 397.109   2
  -3  -6  16 672.348 457.693  13
   3   6 -16 619.012 386.890   9
  -3   6  16 399.412 462.784  15
  -3   6  16-68.4429 308.926   1
  -3  -6  16 592.621 387.513  17
   3  -6 -15 8621.20 1009.39  10
  -3  -6  15 7737.29 1029.72  17
   3   6 -15 9401.77 1165.48   2
  -3   6  15 7200.81 1049.05  15
  -3   6  15 8316.69 1147.32   1
  -3  -6  15 8042.30 1121.00  13
   3  -6 -15 9022.70 1088.84  11
   3  -6 -14 3631.66 659.657  10
  -3   6  14 4420.54 868.774   1
  -3  -6  14 4377.61 767.351  17
   3   6 -14 4568.26 785.916   2
  -3   6  14 6068.11 960.018  15
  -3  -6  14 5222.87 866.631  13
   3  -6 -14 5765.19 856.567  11
   3  -6 -13 11702.4 1109.78  10
   3  -6 -13 11487.1 1154.15  11
  -3  -6  13 12860.6 1304.30  13
  -3   6  13 13065.1 1313.03  15
  -3  -6  13 11044.9 1138.92  17
  -3   6  13 11897.9 1284.89   1
   3   6 -13 14480.5 1368.16   2
   3  -6 -12-67.6163 219.455  11
  -3   6  12-151.642 411.910   1
   3  -6 -12 62.1434 240.446  10
  -3  -6  12-57.7064 257.734  17
  -3   6  12 665.940 343.095  15
  -3  -6  12-512.727 369.766  13
   3   6 -12-72.3639 304.296   2
   3   6 -11 6491.22 741.498   5
   3  -6 -11 5432.69 700.862  10
  -3   6  11 6533.16 876.359   1
  -3   6  11 5994.81 815.335  15
  -3  -6  11 6721.84 826.755  17
  -3  -6  11 6740.07 874.553  13
   3  -6 -11 7197.24 834.091  11
   3   6 -11 6797.19 875.152   2
   3  -6 -10 35247.9 1706.03  10
   3  -6 -10 31844.4 1675.25  11
  -3  -6  10 30846.2 1654.07  17
  -3   6  10 34323.9 1869.85  15
  -3  -6  10 33847.8 1861.51  13
  -3   6  10 30199.5 1743.22   1
   3   6 -10 32125.0 1599.00   5
   3   6 -10 32133.0 1804.80   2
   3  -6  -9 18820.4 1214.45  10
  -3  -6   9 18438.2 1247.18  17
  -3   6   9 19020.5 1366.77   1
  -3  -6   9 18009.6 1335.99  13
   3   6  -9 17560.0 1179.55   5
   3   6  -9 17172.7 1270.31   2
   3  -6  -9 17972.9 1218.48  11
   3  -6  -8 6585.88 718.845  10
  -3  -6   8 7556.22 828.172  13
  -3   6   8 6524.17 786.787   1
  -3  -6   8 7023.81 759.193  17
   3   6  -8 4608.65 628.997   2
   3   6  -8 6936.76 747.171   5
   3  -6  -8 7902.72 788.550  11
   3  -6  -7 40806.6 1695.66  10
  -3   6   7 39295.3 1795.88   1
  -3  -6   7 40676.8 1793.82  13
   3  -6  -7 39615.0 1686.45  11
   3   6  -7 38105.4 1705.81   5
   3  -6  -7 37539.4 1384.52   3
   3   6  -7 38909.0 1776.78   2
  -3  -6   7 40477.3 1700.44  17
   3  -6  -6 38839.0 1443.07   3
   3  -6  -6 38340.5 1609.29  10
  -3  -6   6 39214.4 1624.81  17
  -3   6   6 35985.6 1726.96   1
  -3  -6   6 38262.2 1650.63  13
   3   6  -6 38971.5 1710.69   2
   3   6  -6 36248.7 1643.55   5
  -3   6   6 39099.8 1454.90   5
   3  -6  -6 38443.7 1613.67  11
   3  -6  -5 36904.4 1549.32  10
   3   6  -5 35022.6 1585.76   2
   3  -6  -5 36297.4 1411.88   3
  -3  -6   5 39086.7 1611.92  13
  -3   6   5 34618.7 1709.36   1
  -3   6   5 37143.5 1448.28   5
   3   6  -5 38464.0 1306.66   7
   3  -6  -5 37792.9 1541.97  11
   3   6  -5 38445.5 1684.74   5
  -3  -6   5 39940.3 1603.90  17
  -3  -6   4 13587.9 942.443  11
   3  -6  -4 11764.1 880.248  10
  -3  -6   4 12024.6 870.520  17
   3  -6  -4 11546.9 817.176   3
  -3  -6   4 12687.8 888.776  13
  -3   6   4 12955.8 880.011   5
   3   6  -4 12685.3 996.845   5
   3  -6  -4 11710.9 861.075  11
   3  -6  -3 29357.9 1358.07  10
   3  -6  -3 29006.4 1314.80  11
  -3  -6   3 26891.3 1250.03  13
  -3  -6   3 31396.9 1363.62  17
  -3   6   3 27051.4 1105.79   8
   3  -6  -3 28789.5 1308.26   3
   3   6  -3 27948.1 1416.78   5
  -3   6   3 27053.7 1306.57   5
  -3  -6   3 29578.2 1360.18  11
  -3   6   2 8197.38 612.446   8
   3  -6  -2 8787.02 760.765  10
  -3  -6   2 8272.11 765.305   4
  -3  -6   2 7514.37 643.479  13
   3   6  -2 8697.59 818.003   5
  -3   6   2 9005.15 770.866   5
  -3  -6   2 8214.99 717.334  17
   3  -6  -2 7725.56 694.963   3
   3  -6  -2 7231.96 669.352  11
  -3  -6   2 7112.84 667.640  11
   3   6  -1 32836.7 1484.50  16
   3   6  -1 29715.3 1142.57   1
  -3  -6   1 31009.8 1273.66  13
  -3  -6   1 30222.1 1417.54   4
  -3   6   1 31818.6 1236.37   8
   3  -6  -1 29187.9 1365.86   3
  -3  -6   1 31216.9 1359.52  17
  -3   6   1 29204.2 1423.60   5
  -3   6   1 30025.0 1142.21  16
   3   6  -1 29084.0 1392.93   5
  -3  -6   1 30918.5 1378.82  11
   3  -6  -1 31096.5 1370.50  11
   3  -6   0 6001.70 631.998  11
   3   6   0 5333.61 635.504  16
   3   6   0 6733.51 709.959   5
  -3   6   0 5949.96 496.646  16
  -3  -6   0 5636.14 554.331  13
   3   6   0 6177.15 536.633   1
   3  -6   0 6217.18 680.203   3
  -3  -6   0 5838.50 647.515   4
  -3   6   0 5961.58 666.530   5
  -3  -6   0 5073.78 576.958  17
  -3  -6   0 6371.16 644.430  11
   3  -6   1 70275.0 2102.60  11
   3  -6   1 68752.7 2185.97   3
   3   6   1 69328.3 2234.48  16
  -3  -6  -1 69184.8 1883.72  13
   3  -6   1 68321.1 1586.15  13
  -3  -6  -1 69008.1 2090.77  17
  -3  -6  -1 69334.4 2182.11   4
   3   6   1 75912.3 1912.86   1
   3   6   1 67277.4 2085.88   5
  -3   6  -1 65509.0 1739.63   2
  -3  -6  -1 72539.0 2142.73  11
  -3   6  -1 67646.6 2249.99   5
  -3  -6  -2 3333.82 499.829  11
  -3   6  -2 2999.23 478.939   5
   3   6   2 3559.25 507.051   1
  -3  -6  -2 3313.59 433.206  13
  -3   6  -2 3217.20 421.520   2
   3   6   2 3282.54 534.775  16
  -3  -6  -2 3845.11 546.028   4
   3  -6   2 3159.06 514.658   3
   3   6   2 3342.63 506.611   5
   3  -6   2 3353.09 388.086  13
  -3  -6  -2 3553.97 510.391  17
   3   6   3 35701.5 1685.00  16
   3   6   3 34267.2 1407.26   1
   3  -6   3 31900.3 1574.84   3
   3  -6   3 31695.3 1288.89  13
  -3  -6  -3 32805.4 1532.06  17
   3   6   3 28760.1 1346.56   5
  -3  -6  -3 32133.9 1513.07  11
  -3   6  -3 31392.5 1352.78   2
  -3   6  -3 30844.4 1587.74   5
   3   6   4 311.654 256.433   1
  -3   6  -4-141.498 349.101   5
   3  -6   4 106.416 166.113  13
  -3  -6  -4-84.7404 237.466  11
  -3   6  -4-8.01901 196.896   2
   3   6   4 156.932 209.903   5
   3  -6   4-244.638 255.028   3
  -3  -6  -4 162.397 244.827  17
  -3   6  -5 9502.01 835.632   2
   3  -6   5 11352.3 985.157   3
   3   6   5 10310.2 893.501   1
   3  -6   5 10452.0 858.791  13
   3   6   5 10669.6 812.788   5
  -3  -6  -5 9453.37 912.414  17
  -3  -6  -5 10785.4 947.911  11
  -3   6  -5 9897.45 957.596   5
  -3   6  -6 16659.7 1150.64   2
  -3   6  -6 16261.5 1203.02   5
   3   6   6 16670.4 1167.62   1
   3  -6   6 17610.3 1251.19   3
   3  -6   6 18712.8 1213.95  13
   3   6   6 17064.3 1025.46   5
  -3  -6  -6 17285.7 1227.08  11
  -3  -6  -6 16297.2 1222.65  17
  -3   6  -7 12919.4 1074.42   2
   3   6   7 14013.0 1143.23   1
   3  -6   7 11955.6 1069.92   3
  -3  -6  -7 13740.8 1145.61  11
   3  -6   7 13589.5 1094.91  13
  -3  -6  -7 10426.8 1026.06  17
  -3   6  -7 12667.1 1102.18   5
  -3  -6  -8 1491.56 446.072  11
  -3   6  -8 1426.54 406.313   5
   3  -6   8 1276.94 357.860  13
  -3   6  -8 1064.63 353.583   2
   3   6   8 1940.38 508.141   1
   3  -6   8 1456.76 417.952   3
   3   6   9 10651.6 1111.38   1
   3  -6   9 10320.9 1032.95   3
   3  -6   9 10507.4 1069.46  13
  -3   6  -9 9068.97 997.924   2
  -3  -6  -9 10220.8 1068.49  11
  -3   6  -9 9546.27 989.922   5
  -3   6 -10 6363.36 865.499   2
   3   6  10 7864.76 990.170   1
   3  -6  10 8460.04 960.851   3
  -3   6 -10 6709.86 843.340   5
   3  -6  10 7201.53 944.856  13
  -3  -6 -10 7362.42 939.835  11
  -3   6 -11 9865.56 1127.15   2
   3  -6  11 8231.42 966.832   3
   3   6  11 9750.22 1114.91   1
  -3   6 -11 8821.59 1002.56  12
  -3  -6 -11 7837.37 1009.49  11
  -3   6 -12-245.575 299.594   2
   3   6  12 538.803 479.315   1
  -3   6 -12-164.196 334.439  12
   3  -6  12 390.267 386.192  14
  -3  -6 -12 416.655 324.524  11
  -3  -6 -13 3779.86 795.076  11
  -3   6 -13 3123.77 703.258   2
   3  -6  13 3011.09 691.796  14
   3   6  13 3126.84 772.913   1
  -3  -6 -14 1453.57 509.059   2
   3  -7 -16 2687.57 642.855  11
  -3  -7  16 1809.06 514.201  17
   3  -7 -15 232.484 319.348  11
   3   7 -15 409.774 333.111   2
  -3  -7  15 1284.97 489.704  17
  -3  -7  15 571.056 357.937  13
  -3   7  15 1029.84 565.200   1
  -3  -7  14 4309.05 775.563  17
   3  -7 -14 2392.02 558.019  11
   3   7 -14 4560.61 818.688   2
  -3  -7  14 2621.26 674.007  13
  -3   7  14 3834.52 789.948   1
  -3   7  13 1903.09 556.524   1
   3   7 -13 1914.69 585.283   2
   3  -7 -13 1497.84 421.508  10
  -3  -7  13 1972.83 533.559  17
  -3  -7  13 967.813 407.713  13
   3  -7 -13 2216.06 577.139  11
  -3  -7  12 9932.70 1048.73  17
  -3   7  12 9774.47 1144.39   1
   3  -7 -12 7390.76 893.039  10
  -3  -7  12 10102.1 1164.50  13
   3   7 -12 8642.06 1055.40   2
   3  -7 -12 10289.8 1079.84  11
   3  -7 -11 78.4621 245.909  11
   3   7 -11-257.278 304.912   5
  -3  -7  11 24.4922 255.936  13
  -3  -7  11 184.814 249.306  17
  -3   7  11 46.8158 372.408   1
   3  -7 -11 328.558 301.914  10
   3   7 -11 317.426 289.693   2
   3  -7 -10 15320.7 1187.44  10
  -3   7  10 14945.1 1336.52   1
   3   7 -10 16536.6 1359.69   2
  -3  -7  10 15079.6 1221.16  17
  -3  -7  10 17572.7 1431.10  13
   3   7 -10 16715.3 1285.31   5
   3  -7 -10 16133.8 1275.63  11
   3   7  -9 5069.13 723.221   5
   3  -7  -9 4292.62 635.487  10
   3  -7  -9 5666.46 755.691  11
  -3  -7   9 4761.96 670.289  17
  -3  -7   9 5369.80 743.055  13
  -3   7   9 5449.36 794.925   1
   3   7  -9 5646.75 792.326   2
   3  -7  -8 16723.2 1224.86  10
  -3  -7   8 18973.4 1269.78  17
  -3   7   8 17040.9 1370.00   1
  -3  -7   8 18702.8 1326.74  13
   3  -7  -8 18079.4 1262.75  11
   3   7  -8 19176.5 1336.15   5
   3   7  -8 18231.3 1338.71   2
   3  -7  -7 213.053 252.112  11
   3   7  -7 57.0754 255.395   5
   3  -7  -7 26.4987 186.443  10
  -3  -7   7-86.9633 255.554  17
   3   7  -7-86.7008 237.719   2
  -3   7   7 244.281 376.700   1
  -3  -7   7 417.952 261.127  13
  -3   7   6 18367.8 1099.81   5
   3  -7  -6 17322.9 1145.93  10
   3  -7  -6 17249.7 1033.19   3
  -3   7   6 13119.1 1209.01   1
  -3  -7   6 15297.2 1081.94  17
  -3  -7   6 18566.8 1212.28  13
   3   7  -6 16023.0 1223.77   5
   3  -7  -6 17317.2 1177.79  11
   3   7  -5 1231.41 452.407   5
  -3   7   5 1555.00 427.603   1
  -3   7   5 2552.91 456.705   5
   3  -7  -5 2034.89 409.768  10
  -3  -7   5 1917.13 395.522  17
   3   7  -5 2292.67 374.315   7
  -3  -7   5 2169.96 422.979  13
   3  -7  -5 2041.80 390.596   3
   3  -7  -5 1611.32 377.234  11
  -3  -7   4 19729.3 1229.49  11
  -3  -7   4 17943.3 1139.34  13
   3  -7  -4 19581.4 1199.00  10
  -3   7   4 18550.4 1153.48   5
  -3  -7   4 20244.9 1197.15  17
   3  -7  -4 18832.3 1118.34   3
   3   7  -4 18308.7 1272.81   5
   3  -7  -4 21039.3 1239.49  11
   3  -7  -3 3288.88 531.568  11
   3   7  -3 3307.36 588.691   5
  -3   7   3 3306.34 519.364   5
  -3  -7   3 3283.19 489.861  17
   3  -7  -3 3836.78 550.993  10
  -3  -7   3 4340.94 613.984   4
  -3  -7   3 3079.64 458.354  13
   3  -7  -3 3253.57 481.966   3
  -3  -7   3 3229.70 522.983  11
  -3   7   3 3613.11 427.007   8
  -3  -7   2 31882.9 1600.72   4
  -3   7   2 33212.0 1384.50  16
  -3  -7   2 31457.9 1403.19  13
   3  -7  -2 29780.6 1461.17   3
  -3  -7   2 33530.0 1502.49  17
  -3  -7   2 31288.2 1527.42  11
  -3   7   2 31119.5 1248.95   8
   3   7  -2 31783.2 1603.33   5
  -3   7   2 29685.9 1516.26   5
   3  -7  -2 34130.1 1559.57  11
  -3  -7   1 321.674 204.410  13
  -3  -7   1 224.324 296.151  11
   3  -7  -1 307.470 212.111  11
   3   7  -1 192.484 287.653   5
  -3   7   1 483.921 323.993   5
   3   7  -1 643.645 325.056  16
  -3   7   1 771.729 240.538   8
  -3  -7   1 8.82515 191.287  17
   3   7  -1 216.950 157.525   1
  -3  -7   1 660.511 313.452   4
  -3   7   1 330.512 177.709  16
   3  -7  -1 448.257 275.042   3
   3  -7   0 17434.9 1133.30  11
  -3  -7   0 15010.7 1024.57  17
  -3  -7   0 15711.8 1143.98   4
   3   7   0 15824.0 1138.57  16
  -3   7   0 14678.8 850.519  16
   3   7   0 11685.8 874.212   1
   3  -7   0 14266.8 1055.76   3
  -3  -7   0 13924.9 918.289  13
   3   7   0 13974.2 1062.33   5
  -3   7   0 15659.3 1167.36   5
  -3  -7   0 15086.3 1076.25  11
  -3   7  -1 9496.87 919.754   5
  -3  -7  -1 9892.47 869.638  17
   3  -7   1 9405.80 849.272  11
  -3  -7  -1 9989.25 908.748   4
   3   7   1 8988.65 875.040  16
   3  -7   1 10292.6 937.963   3
  -3  -7  -1 9858.14 764.807  13
   3   7   1 9593.22 785.971   1
   3   7   1 8398.76 859.007   5
  -3  -7  -1 9202.16 864.216  11
  -3  -7  -2 10628.8 805.217  13
  -3  -7  -2 11167.4 940.413  17
   3   7   2 11001.6 833.082   1
   3  -7   2 11352.7 997.651   3
  -3  -7  -2 10151.0 936.585   4
   3   7   2 10656.6 952.184  16
   3   7   2 11112.9 939.064   5
  -3   7  -2 12132.0 853.695   2
  -3  -7  -2 10937.1 943.565  11
  -3   7  -2 11866.7 1035.31   5
  -3  -7  -3-27.2531 199.137  11
   3   7   3 417.973 298.955   5
  -3   7  -3 156.621 333.704   5
  -3   7  -3 291.417 207.771   2
   3   7   3 105.151 238.653   1
   3   7   3-14.5965 223.229  16
  -3  -7  -3 196.905 183.628  13
   3  -7   3 539.174 336.205   3
  -3  -7  -3-20.2903 203.837  17
  -3  -7  -4 49602.2 1735.43  13
  -3  -7  -4 45217.4 2000.58  11
   3   7   4 42864.9 1802.95   1
  -3   7  -4 44108.2 1808.03   2
   3  -7   4 44489.1 2020.76   3
  -3  -7  -4 46518.0 1995.24  17
   3  -7   4 48830.7 1779.94  13
   3   7   4 48233.2 2155.25  16
   3   7   4 46662.5 1852.98   5
  -3   7  -4 44442.7 2082.34   5
  -3  -7  -5 354.919 299.864  11
   3   7   5 306.112 300.858   1
  -3  -7  -5-47.0337 218.177  17
  -3   7  -5 180.439 317.994   5
   3   7   5-16.2556 216.144   5
   3  -7   5 39.4025 154.164  13
  -3   7  -5-77.5797 176.654   2
   3  -7   5-276.257 291.298   3
  -3  -7  -6 39429.5 1987.44  17
   3   7   6 34370.3 1759.43   1
   3  -7   6 41162.4 1846.67  13
   3  -7   6 36372.6 1906.15   3
  -3  -7  -6 40826.8 2002.01  11
  -3   7  -6 37270.3 1964.83   5
  -3   7  -6 38656.4 1834.02   2
   3  -7   7-29.8334 229.838  13
  -3  -7  -7 201.292 318.581  11
  -3   7  -7 168.292 266.425   5
  -3   7  -7 182.175 277.271   2
  -3  -7  -7 81.8508 266.475  17
   3   7   7 572.233 383.705   1
   3  -7   7-11.7108 249.881   3
  -3  -7  -8 5549.02 811.692  11
  -3   7  -8 5494.43 771.411   5
   3  -7   8 4509.00 729.973   3
   3  -7   8 7757.93 911.999  13
   3   7   8 5160.47 772.258   1
  -3   7  -8 5205.76 752.456   2
  -3  -7  -9 1333.84 427.912  11
  -3   7  -9 1216.73 431.192   5
  -3   7  -9 2313.15 536.707   2
   3   7   9 2453.16 637.156   1
   3  -7   9 1811.66 507.613  13
   3  -7   9 723.831 332.245   3
   3   7  10 712.006 447.572   1
  -3   7 -10 1030.76 416.257   5
  -3   7 -10 557.720 380.927   2
   3  -7  10 769.661 331.531  13
  -3  -7 -10 763.621 355.021  11
   3  -7  10 368.469 273.928   3
  -3   7 -11 290.556 271.239   2
  -3  -7 -11-247.278 311.103  11
   3  -7  11-54.2218 212.921   3
  -3  -7 -12 4977.02 881.059  11
  -3   7 -12 4386.77 813.295   2
   3  -7  12 4345.95 838.872  14
   3   7  12 3680.67 787.490   1
  -3   7 -12 2926.51 645.177  12
   3  -7  12 5006.18 829.069   3
  -3   7 -13 2316.48 637.543   2
   3   7  13 3086.30 779.048   1
   3  -8 -14 796.025 448.145  11
   3   8 -14-452.964 381.474   2
  -3  -8  14 306.571 262.914  17
  -3  -8  14 61.5662 259.693  13
  -3   8  14-238.810 339.369   1
  -3  -8  13 11708.1 1320.00  13
  -3  -8  13 8898.59 1052.22  17
  -3   8  13 10379.9 1264.65   1
   3   8 -13 11558.8 1302.19   2
   3  -8 -13 13524.8 1356.54  11
   3  -8 -12 561.771 378.209  11
   3   8 -12 298.584 325.206   2
  -3  -8  12 540.927 346.031  13
  -3  -8  12 176.936 243.865  17
  -3   8  12-75.6854 336.393   1
  -3  -8  11 11039.6 1113.71  17
  -3  -8  11 12935.0 1303.95  13
  -3   8  11 8767.00 1081.60   1
   3  -8 -11 13357.2 1256.71  11
   3   8 -11 9722.19 1068.41   5
   3   8 -11 12074.9 1261.54   2
   3  -8 -10-187.914 232.678  11
  -3  -8  10 204.592 177.270  17
   3   8 -10 155.064 293.924   5
   3  -8 -10 18.9779 209.569  10
   3   8 -10 289.986 279.548   2
  -3   8  10-263.839 411.510   1
  -3  -8  10 60.6159 246.165  13
   3   8  -9 6215.26 843.196   5
   3  -8  -9 4631.12 681.837  10
  -3  -8   9 5130.81 716.133  17
  -3  -8   9 6335.75 914.873  13
  -3   8   9 6052.52 890.746   1
   3   8  -9 5622.18 818.096   2
   3  -8  -9 5895.55 797.081  11
   3  -8  -8 211.218 255.798  11
   3   8  -8 889.590 483.025   5
  -3   8   8-72.6686 320.451   1
   3  -8  -8 142.371 220.015  10
  -3  -8   8 259.387 230.710  17
   3   8  -8 443.987 297.250   2
  -3  -8   8 186.409 325.974  13
  -3   8   7 2940.79 622.062   1
   3  -8  -7 2847.87 535.374  11
   3   8  -7 3117.04 630.665   5
   3  -8  -7 3290.22 568.402  10
  -3  -8   7 4226.19 632.659  17
  -3  -8   7 2922.65 561.473  13
   3  -8  -6 248.375 214.394  11
   3   8  -6 660.768 415.722   5
  -3   8   6 218.634 198.877   5
  -3  -8   6 561.731 273.997  17
   3  -8  -6 393.692 225.730  10
  -3  -8   6 211.659 286.242  13
  -3   8   6 214.498 293.177   1
   3  -8  -5 8814.25 878.699  10
  -3  -8   5 9623.89 898.169  17
   3  -8  -5 9781.90 858.409   3
  -3  -8   5 10607.8 1012.97   4
  -3   8   5 7809.68 978.220   1
  -3  -8   5 9151.00 871.294  13
   3   8  -5 10277.2 1051.59   5
  -3   8   5 10614.0 942.562   5
   3  -8  -5 9777.02 953.881  11
   3  -8  -4 7040.78 787.513  10
  -3  -8   4 7154.82 847.983   4
  -3  -8   4 7362.43 757.127  17
  -3  -8   4 7347.98 839.097  11
   3  -8  -4 6988.09 728.863   3
  -3  -8   4 6648.61 719.231  13
   3   8  -4 6121.96 838.705   5
  -3   8   4 8456.62 864.451   5
   3  -8  -4 8642.73 887.427  11
  -3  -8   3 54162.1 2203.67  11
  -3   8   3 50261.4 1926.28  16
  -3  -8   3 53701.8 1985.54  13
   3  -8  -3 54941.1 2167.09  11
   3  -8  -3 49720.6 1988.16   3
  -3  -8   3 52220.3 1995.46  17
   3   8  -3 53301.2 2285.00   5
  -3  -8   3 52015.1 2185.17   4
  -3   8   3 55885.4 2195.54   5
   3  -8  -2-168.887 297.833  11
  -3  -8   2-275.942 337.406  11
   3   8  -2-16.2762 314.241   5
  -3   8   2-45.2930 265.986   5
   3  -8  -2 135.923 209.598   3
  -3  -8   2 258.802 197.809  17
  -3   8   2 176.798 199.449  16
  -3  -8   2 93.5261 249.027   4
  -3  -8   2 218.966 187.739  13
   3   8  -1 74010.6 2617.85  16
  -3  -8   1 67616.0 2504.51   4
   3  -8  -1 69815.2 2446.30   3
  -3   8   1 68199.0 2066.38  16
  -3  -8   1 68913.0 2155.18  13
  -3   8   1 67978.6 2542.20   5
   3  -8  -1 71478.2 2487.60  11
   3   8  -1 67605.7 2516.96   5
  -3  -8   1 66813.3 2269.45  17
  -3  -8   1 72929.6 2520.07  11
   3  -8   0 8756.39 890.089  11
   3   8   0 7010.05 704.635   1
  -3   8   0 8623.18 966.184   5
  -3  -8   0 9116.21 945.385   4
   3   8   0 9380.66 946.383  16
   3  -8   0 8825.16 900.211   3
  -3  -8   0 8614.00 751.364  13
  -3  -8   0 9975.46 956.002  11
   3   8   0 8549.87 924.609   5
  -3  -8   0 9392.63 871.837  17
   3  -8   1 6183.13 749.699  11
   3   8   1 6014.73 779.337  16
  -3  -8  -1 5968.70 769.778   4
   3   8   1 6108.03 664.617   1
  -3  -8  -1 5056.08 701.476  11
  -3  -8  -1 5628.31 627.457  13
   3   8   1 5725.70 775.303   5
  -3  -8  -1 6077.70 740.555  17
   3  -8   1 6814.20 831.876   3
  -3   8  -1 6953.23 898.261   5
  -3  -8  -2 103.264 252.968  11
  -3   8  -2-96.4311 293.453   5
  -3  -8  -2-65.1714 209.129  17
   3   8   2-30.9628 270.637  16
   3   8   2 432.777 321.726   5
   3  -8   2 297.862 298.730   3
   3   8   2 144.596 224.438   1
  -3  -8  -3-191.103 273.638  11
  -3   8  -3-50.1477 326.235   5
   3   8   3 246.122 277.517  16
   3   8   3 264.836 237.982   1
   3   8   3 917.075 397.059   5
   3  -8   3 10.0661 278.462   3
  -3  -8  -3 179.488 220.574  17
  -3   8  -3-53.7105 153.890   2
   3   8   4 6656.73 769.446   1
   3   8   4 10334.3 965.120   5
   3  -8   4 8912.16 991.826   3
  -3   8  -4 8523.69 846.409   2
   3   8   4 9024.50 1021.47  16
  -3  -8  -4 9704.79 976.639  17
  -3   8  -4 8424.22 988.832   5
  -3  -8  -4 8346.79 946.774  11
   3   8   5 10751.5 1012.74   1
  -3  -8  -5 11542.0 1083.61  17
   3   8   5 11478.3 1164.89  16
   3  -8   5 9775.50 1059.95   3
   3   8   5 10889.6 976.363   5
  -3   8  -5 10109.1 962.763   2
  -3   8  -5 10547.0 1119.18   5
  -3  -8  -5 10525.6 1068.81  11
   3   8   6-52.8635 283.576   1
  -3  -8  -6 4.96245 291.021  11
  -3   8  -6 209.327 331.338   5
  -3  -8  -6 265.951 293.802  17
   3   8   6 142.571 318.567  16
  -3   8  -6-350.637 292.713   2
   3  -8   6-369.009 286.835   3
   3   8   7 17068.8 1351.65   1
  -3  -8  -7 18094.6 1448.92  17
   3  -8   7 18975.0 1499.23   3
  -3  -8  -7 18890.4 1492.47  11
   3  -8   7 19977.1 1398.78  13
  -3   8  -7 18849.4 1405.53   2
  -3   8  -7 17920.8 1486.79   5
  -3  -8  -8 2333.70 567.553  11
  -3   8  -8 2473.52 619.053   5
  -3   8  -8 2240.09 515.848   2
   3  -8   8 1691.08 518.402   3
   3   8   8 1612.44 513.378   1
   3  -8   8 2205.58 492.461  13
   3   8   9 9300.95 1091.61   1
   3  -8   9 8345.72 1070.75   3
   3  -8   9 10676.9 1121.73  13
  -3   8  -9 9709.76 1133.60   5
  -3  -8  -9 8802.34 1087.72  11
  -3   8  -9 10337.0 1139.69   2
  -3  -8 -10-433.483 450.424  11
  -3   8 -10-363.522 336.843   5
   3   8  10 333.209 412.030   1
  -3   8 -10 35.7959 241.887   2
   3  -8  10 115.249 239.450  13
   3  -8  10 29.4283 259.163   3
  -3  -8 -11 3776.14 771.444  11
  -3   8 -11 3683.82 752.862   2
   3   8  11 5363.36 934.876   1
   3  -8  11 3747.82 749.257   3
  -3   8 -12 322.219 329.531   2
   3   8  12 433.126 493.904   1
   3  -8  12 112.494 235.421   3
   3  -9 -13 517.615 331.199  11
  -3  -9  13 75.2732 220.768  13
   3  -9 -12 715.641 372.298  11
   3   9 -12 360.605 333.889   2
  -3   9  12 824.507 450.537   1
  -3  -9  12 845.802 347.700  13
   3   9 -11 259.181 281.651   5
   3   9 -11 547.960 341.770   2
   3  -9 -11 1414.84 500.812  11
  -3  -9  11 1156.27 475.302  13
  -3   9  11-146.756 449.742   1
  -3   9  10 5252.59 878.153   1
  -3  -9  10 8474.98 1053.63  13
  -3  -9  10 7734.79 944.001  17
   3   9 -10 5984.59 927.769   2
   3   9 -10 5470.29 868.367   5
   3  -9 -10 7209.84 978.962  11
   3  -9  -9 1146.43 447.255  11
   3   9  -9 1001.77 448.159   5
  -3  -9   9 1074.11 341.397  17
  -3  -9   9 1709.14 492.330   4
  -3   9   9 1392.82 520.491   1
  -3  -9   9 747.163 379.846  13
   3  -9  -8 25885.3 1603.50  10
  -3  -9   8 26656.7 1742.83   4
  -3   9   8 22879.5 1714.19   1
  -3  -9   8 25380.4 1608.19  17
   3  -9  -8 25895.2 1714.50  11
  -3  -9   8 26984.5 1750.30  13
   3   9  -8 26357.4 1816.67   5
   3   9  -7 418.363 331.229   5
   3  -9  -7 311.373 254.766  11
   3  -9  -7 625.044 340.067  10
  -3  -9   7 192.796 210.523  17
  -3  -9   7 662.026 405.928   4
  -3  -9   7 194.755 255.922  13
  -3   9   7 247.644 366.301   1
   3  -9  -6 12797.6 1110.99  10
  -3  -9   6 12980.4 1108.23  17
  -3   9   6 10225.3 1169.35   1
   3   9  -6 13284.4 1286.88   5
  -3  -9   6 10014.5 1062.14   4
  -3  -9   6 12683.1 1117.47  13
   3  -9  -6 12100.0 1131.28  11
   3  -9  -5 358.466 254.155  11
  -3  -9   5 309.438 331.157   4
  -3   9   5-179.598 310.134   5
  -3   9   5 541.647 294.873  16
  -3   9   5-399.819 424.904   1
  -3  -9   5 200.509 191.541  13
  -3  -9   5 592.452 242.589  17
   3  -9  -5 147.121 163.905   3
   3   9  -5 354.695 433.022   5
   3   9  -4 4171.18 753.305   5
  -3  -9   4 3865.58 588.787  17
  -3  -9   4 4846.09 747.400  11
  -3  -9   4 5454.63 795.122   4
  -3   9   4 6065.51 754.137  16
   3  -9  -4 5280.06 697.366   3
  -3  -9   4 5950.99 727.098  13
  -3   9   4 6025.09 818.447   5
   3  -9  -4 5177.29 735.391  11
   3  -9  -3 128.324 211.595  11
  -3  -9   3 122.662 238.903  11
   3   9  -3 413.276 415.768   5
  -3   9   3 408.569 359.154   5
  -3   9   3 156.906 170.644  16
  -3  -9   3 533.350 332.100   4
  -3  -9   3-72.7572 228.102  17
   3  -9  -3 459.203 301.451   3
  -3  -9   3-98.5998 213.457  13
  -3  -9   2 11902.5 1121.68  11
  -3  -9   2 10457.9 1065.15   4
  -3  -9   2 9826.74 936.421  17
   3  -9  -2 9837.81 1019.18  11
   3  -9  -2 10783.1 1013.50   3
  -3  -9   2 11287.5 946.805  13
  -3   9   2 12677.8 1180.52   5
   3   9  -2 12028.7 1192.87   5
  -3  -9   1 364.570 276.775  11
   3  -9  -1 476.909 293.980  11
  -3  -9   1 347.225 233.894  17
   3   9  -1 436.318 340.984   5
  -3   9   1 774.142 407.690   5
  -3  -9   1 128.825 277.193   4
   3  -9  -1 388.120 264.759   3
   3  -9   0 13202.5 1172.09  11
   3   9   0 14417.2 1257.41  16
  -3  -9   0 11621.8 1132.22   4
  -3  -9   0 13239.0 1091.32  17
   3   9   0 12134.9 1166.89   5
   3  -9   0 12978.1 1161.15   3
  -3   9   0 14512.9 1287.46   5
  -3  -9   0 13329.9 1188.89  11
  -3  -9  -1-53.8728 262.612  11
   3   9   1 127.261 307.045  16
  -3   9  -1 158.001 350.540   5
  -3  -9  -1-154.818 235.201  17
   3  -9   1 215.202 281.997   3
  -3  -9  -1-168.203 316.938   4
   3   9   1 333.762 376.716   5
   3   9   2 9356.83 1046.93  16
   3  -9   2 10024.1 1067.01   3
  -3  -9  -2 9304.52 949.024  17
   3   9   2 9265.79 996.756   5
  -3   9  -2 8789.19 1088.34   5
  -3  -9  -2 9460.06 1023.21  11
  -3  -9  -3 2026.48 544.857  11
   3   9   3 2179.68 539.870   5
  -3   9  -3 2051.90 597.999   5
   3   9   3 1994.68 443.466   1
  -3  -9  -3 1896.32 479.592  17
   3   9   3 2560.89 572.656  16
   3  -9   3 2538.32 567.776   3
   3   9   4 14647.2 1358.76  16
   3   9   4 9190.28 941.040   1
   3  -9   4 11641.9 1183.17   3
  -3   9  -4 12314.3 1077.12   2
  -3  -9  -4 10719.1 1077.48  17
   3   9   4 13088.1 1150.47   5
  -3   9  -4 11488.1 1267.20   5
  -3  -9  -4 11974.9 1206.66  11
  -3  -9  -5 171.999 351.256  11
   3   9   5 126.477 258.525   1
   3   9   5 185.700 263.965  16
  -3  -9  -5 72.4800 209.206  17
  -3   9  -5 402.258 405.845   5
  -3   9  -5 494.753 333.032   2
   3  -9   5-2.75180 253.139   3
   3  -9   6 12585.5 1272.13   3
  -3  -9  -6 13832.7 1292.80  17
   3   9   6 11718.7 1147.41   1
   3   9   6 13223.3 1335.46  16
  -3   9  -6 12633.8 1183.37   2
  -3   9  -6 12858.2 1345.90   5
  -3  -9  -6 14349.0 1344.05  11
  -3  -9  -7 2587.76 556.427  11
   3   9   7 3373.53 690.256  16
  -3   9  -7 3599.87 758.192   5
  -3   9  -7 3527.71 662.718   2
   3  -9   7 2974.82 662.691   3
   3   9   7 3505.11 682.843   1
  -3  -9  -8 3009.00 670.372  11
  -3   9  -8 2853.15 700.757   5
   3   9   8 1308.73 489.609  16
   3   9   8 1603.98 499.969   1
   3  -9   8 1892.68 525.938   3
  -3   9  -8 1929.25 527.945   2
   3   9   9 97.8131 333.606  16
  -3   9  -9 1073.87 482.418   5
  -3   9  -9 6.70016 178.307   2
  -3  -9  -9 76.6693 287.662  11
   3   9   9 97.5110 369.273   1
   3  -9   9 912.309 468.675   3
  -3  -9 -10 2655.01 627.912  11
  -3   9 -10 2741.07 717.411   5
  -3   9 -10 2798.09 645.806   2
   3   9  10 2037.14 576.897   1
   3  -9  10 2268.34 612.899   3
  -3   9 -11 1013.78 453.030   2
   3 -10 -11-10.5624 303.026  11
   3  10 -11-125.901 382.151   5
  -3 -10  11-61.2033 322.692  13
   3 -10 -10 881.753 391.223  11
   3  10 -10 307.945 400.384   5
  -3  10  10 789.250 391.166   1
  -3 -10  10 382.762 319.489   4
  -3 -10  10 959.746 423.813  13
   3 -10  -9 6375.60 943.246  11
   3  10  -9 6353.22 970.818   5
  -3 -10   9 5685.66 864.108   4
  -3 -10   9 6227.59 921.496  13
  -3  10   9 5755.78 944.319   1
   3 -10  -8 850.015 385.626  11
  -3  10   8 1247.88 524.056   1
   3  10  -8 1209.90 512.381   5
  -3 -10   8 437.084 290.807  13
  -3 -10   8 1224.82 438.148   4
  -3 -10   7 20963.0 1617.66   4
  -3  10   7 21829.0 1619.44  16
  -3 -10   7 22495.3 1607.31  13
  -3  10   7 15355.0 1466.43   1
   3  10  -7 19963.5 1669.66   5
   3 -10  -7 20821.0 1612.59  11
   3 -10  -6 521.418 375.090  11
   3  10  -6 431.108 360.700   5
  -3 -10   6 248.608 325.491   4
  -3  10   6 448.454 309.421  16
  -3 -10   6 2.41730 215.425  13
  -3  10   6 294.380 357.798   1
   3  10  -5 5640.77 936.026   5
  -3  10   5 6618.55 878.514   5
  -3  10   5 4505.93 768.441   1
  -3 -10   5 6232.70 906.509   4
  -3  10   5 6589.24 846.867  16
   3 -10  -5 7409.44 947.824  11
   3 -10  -4 3849.51 701.609  11
   3  10  -4 4286.59 779.481   5
  -3  10   4 4741.28 757.661   5
  -3 -10   4 4614.66 788.441   4
  -3 -10   4 2601.55 518.379  17
  -3  10   4 3345.06 670.901   1
   3 -10  -4 3573.05 603.548   3
   3 -10  -3 1658.22 474.159  11
  -3 -10   3 1936.34 527.571  11
   3  10  -3 1839.30 606.918   5
  -3  10   3 738.070 383.274   5
  -3 -10   3 1005.95 341.036  17
   3 -10  -3 1259.55 429.542   3
  -3 -10   3 2273.99 603.351   4
   3 -10  -2 1339.49 483.690  11
  -3 -10   2 476.340 317.513  11
   3  10  -2 1470.64 524.929   5
  -3  10   2 653.388 328.157   5
   3 -10  -2 1495.36 464.579   3
  -3 -10   2 1136.05 327.557  17
  -3 -10   2 676.198 363.740   4
   3  10  -1 6487.89 951.017   5
  -3  10   1 6221.02 907.999   5
   3 -10  -1 7362.16 945.822  11
   3 -10  -1 7036.28 889.485   3
  -3 -10   1 7079.43 841.938  17
  -3 -10   1 8419.10 1042.52   4
  -3 -10   1 6842.64 925.979  11
  -3 -10   0 2533.53 586.517  11
   3  10   0 1872.16 590.429   5
  -3  10   0 2739.22 694.210   5
  -3 -10   0 1716.79 427.287  17
  -3 -10   0 1952.41 545.780   4
   3 -10   0 2890.99 648.958  11
   3 -10   0 2677.60 572.593   3
  -3 -10  -1 9782.15 1017.26  17
   3  10   1 12205.3 1246.22  16
   3 -10   1 12004.1 1209.09   3
  -3 -10  -1 11999.4 1235.01  11
   3  10   1 10773.1 1175.38   5
  -3  10  -1 11652.7 1260.35   5
  -3 -10  -2 710.265 385.367  11
   3  10   2 702.142 466.038   5
  -3  10  -2 868.400 459.075   5
   3  10   2 284.367 319.488  16
  -3 -10  -2 96.1171 218.477  17
   3 -10   2 212.000 262.278   3
  -3 -10  -3 12486.5 1171.83  17
   3  10   3 13217.4 1346.93  16
   3 -10   3 13546.2 1326.56   3
   3  10   3 13540.0 1285.50   5
  -3  10  -3 14204.4 1420.91   5
  -3 -10  -3 12786.4 1280.19  11
   3  10   4 467.518 413.089   5
   3  10   4-132.618 347.373  16
  -3  10  -4-9.57746 326.883   5
   3 -10   4 486.853 364.069   3
  -3 -10  -4-98.7730 282.835  11
  -3 -10  -4-27.5031 197.235  17
   3  10   5 10008.2 1221.86  16
   3 -10   5 9376.09 1156.74   3
  -3 -10  -5 9529.73 1088.09  17
  -3  10  -5 10050.4 1235.08   5
  -3 -10  -5 9644.98 1171.85  11
  -3 -10  -6 760.384 405.743  11
  -3  10  -6 832.424 497.171   5
  -3 -10  -6-64.4205 243.790  17
   3  10   6-69.0201 307.492  16
   3 -10   6 50.2953 217.042   3
  -3 -10  -7 1111.45 426.437  11
   3  10   7 3338.55 755.645  16
  -3  10  -7 2691.93 727.606   5
   3 -10   7 2234.44 582.924   3
  -3 -10  -8-149.999 283.922  11
  -3  10  -8 789.535 497.292   5
   3  10   8 216.997 332.024  16
   3 -10   8-19.7332 270.405   3
   3 -11  -9 453.559 343.256  11
  -3  11   9 1586.52 535.035  16
  -3 -11   9 1569.23 505.276   4
   3 -11  -8 3913.76 777.939  11
   3  11  -8 1791.91 641.605   5
  -3  11   8 2528.76 606.558  16
  -3 -11   8 2526.09 625.973   4
  -3  11   8 4292.55 838.715   1
   3 -11  -7-26.9266 244.338  11
   3  11  -7 59.5658 310.890   5
  -3  11   7-214.095 366.199   1
  -3  11   7 60.2030 267.495  16
  -3 -11   7 131.207 237.731   4
   3 -11  -6 2153.35 584.025  11
   3  11  -6 2626.91 681.801   5
  -3 -11   6 2884.96 676.800   4
  -3  11   6 1425.40 493.189   1
  -3  11   5 403.247 316.744   1
   3  11  -5 1403.80 592.635   5
   3 -11  -5 2084.98 585.079  11
  -3 -11   5 1758.89 520.895   4
  -3  11   4 1478.57 550.720   1
   3 -11  -4 3984.59 738.854  11
   3  11  -4 4071.83 820.330   5
  -3  11   4 4029.67 759.107   5
  -3 -11   4 4918.68 844.390   4
   3 -11  -3 37.4257 290.277  11
  -3 -11   3 324.319 324.943  11
  -3  11   3-264.938 354.801   5
  -3 -11   3-376.020 290.626   4
   3  11  -3 431.332 404.907   5
  -3  11   3-520.241 512.835   1
   3 -11  -2 17333.7 1522.57  11
  -3 -11   2 15521.2 1470.05  11
  -3 -11   2 15360.5 1454.32   4
   3 -11  -2 14849.9 1349.20   3
   3  11  -2 16602.8 1557.97   5
  -3  11   2 15272.2 1463.42   5
   3  11  -1 3220.58 769.641   5
  -3  11   1 2579.89 693.995   5
   3 -11  -1 1700.78 495.798   3
   3 -11  -1 1506.07 523.453  11
  -3 -11   1 1836.74 560.512  11
   3 -11   0 8924.94 1074.76   3
  -3 -11   0 12407.4 1316.19  11
   3  11   0 11602.8 1288.52   5
  -3  11   0 9623.16 1214.41   5
  -3 -11  -1-185.284 337.788  11
   3  11   1 344.225 417.760   5
  -3  11  -1 507.312 459.514   5
   3 -11   1 102.847 224.126   3
  -3 -11  -2 1679.12 565.083  11
   3  11   2 1824.90 551.409   5
  -3  11  -2 1715.51 616.127   5
   3 -11   2 1688.14 530.530   3
   3  11   2 1792.81 562.497  16
  -3  11  -3 1527.16 572.204   5
  -3 -11  -3 1038.68 452.104  11
   3  11   3 96.4931 302.900   5
   3  11   3 450.684 371.275  16
   3 -11   3 889.299 464.950   3
  -3  11  -4 2474.98 686.625   5
   3  11   4 2900.97 734.373  16
   3 -11   4 2459.89 633.590   3
  -3 -11  -4 2656.75 649.622  11
  -3 -11  -5 615.748 326.739  11
  -3  11  -5 89.6005 362.276   5
   3  11   5 359.766 306.541  16
   3 -11   5 537.597 352.943   3
  -3 -11  -6 2956.71 701.667  11
  -3 -12   5 2189.86 574.156   3
  -3 -12   4-74.6264 251.452   3
  -3  12   4 87.5453 367.425   1
  -3 -12   4 464.447 366.658   4
   3 -12  -3 2503.89 666.794  11
   3  12  -3 2737.96 747.314   5
  -3  12   3 597.323 338.205   1
  -3  12   3 2831.28 703.739   5
   3  12  -2 1279.71 533.940   5
  -3  12   2 59.2988 390.251   5
  -3  12   2 326.873 409.482   1
   3 -12  -2 877.177 435.741  11
  -3 -12   2 127.853 306.241  11
  -3 -12   1 3679.47 794.455  11
   3  12  -1 2796.57 726.925   5
  -3  12   1 3328.18 794.198   5
   3 -12  -1 2730.79 631.913   3
   3 -12  -1 2593.15 683.324  11
  -3 -12   0 525.600 394.393  11
   3  12   0 226.201 300.639   5
  -3  12   0 1.82852 324.746   5
   3 -12   0 135.514 278.520   3
  -3 -12  -1 2908.06 702.263  11
  -3  12  -1 2909.38 738.183   5
   3 -12   1 2374.68 650.129   3
   3  12   1 3238.72 719.529   5
   3  12   2 254.366 359.633   5
   3 -12   2 303.531 277.751   3
   3  12   3 4773.70 886.353   5
   4   0 -18 6138.10 945.364  10
  -4   0  18 5471.40 834.690   6
  -4   0  18 5276.51 877.496   1
   4   0 -17-361.742 278.014   2
   4   0 -17 600.640 385.451  10
  -4   0  17-339.351 292.205  13
  -4   0  17 556.969 339.018   1
  -4   0  17-162.567 267.931   6
  -4   0  16-442.652 443.090   1
   4   0 -16 81.9945 229.934   9
   4   0 -16 334.595 263.303   2
  -4   0  16-187.260 289.485   6
  -4   0  15-478.694 365.965   1
   4   0 -15 39.5869 213.450   9
  -4   0  15-238.964 288.453   6
   4   0 -15 235.804 204.957   2
  -4   0  15 104.942 205.354  13
  -4   0  14 11741.2 1032.95   1
   4   0 -14 12429.5 1036.26   9
   4   0 -14 12734.9 1052.75   2
  -4   0  14 13178.3 1119.24  13
  -4   0  14 11612.0 1069.92   6
   4   0 -13-367.730 284.370   9
   4   0 -13 160.077 186.409   2
  -4   0  13-253.273 293.463   1
  -4   0  13-27.2617 183.647  13
  -4   0  13 350.886 296.164   6
  -4   0  12 39249.3 1685.33   1
   4   0 -12 42382.3 1708.05   2
  -4   0  12 41601.3 1766.19  13
   4   0 -12 40446.5 1710.75   9
  -4   0  12 38918.5 1776.34   6
   4   0 -11 60.0722 162.274   2
   4   0 -11-90.0140 287.002   9
  -4   0  11 479.886 269.498   1
  -4   0  11-287.220 288.080   6
  -4   0  11-124.338 210.564  13
   4   0 -10 6220.15 570.707   2
  -4   0  10 7238.29 633.832   1
  -4   0  10 6825.80 654.339  13
  -4   0  10 6729.04 695.745   6
   4   0 -10 5463.86 615.242   9
   4   0  -9-225.613 265.578   9
   4   0  -9 110.968 133.360   2
  -4   0   9 317.580 239.920   1
  -4   0   9 49.2838 138.539  13
  -4   0   9-345.991 311.955   6
   4   0  -8 77530.8 1689.63   2
  -4   0   8 70416.8 1651.67   1
  -4   0   8 76865.0 2063.43   6
   4   0  -8 74937.0 1822.36   7
   4   0  -8 74788.5 1962.78   9
  -4   0   8 75141.7 1828.10  13
   4   0  -7 433.807 166.436   7
   4   0  -7 126.086 115.586   2
   4   0  -7-87.1360 188.634   9
  -4   0   7 196.461 117.807  13
  -4   0   7-77.4681 195.261   6
  -4   0   7 141.941 146.932   1
   4   0  -6 281325. 2613.00   2
   4   0  -6 281500. 3414.45   9
   4   0  -6 259609. 3242.96  10
  -4   0   6 267322. 2623.14   1
   4   0  -6 275438. 3245.57   7
  -4   0   6 265696. 3023.31  13
  -4   0   6 264829. 3381.91   6
   4   0  -5 139.004 173.308   7
   4   0  -5 190.850 174.241  10
   4   0  -5-254.473 218.982   9
   4   0  -5 38.5515 67.2118   2
  -4   0   5-56.1139 92.7082   1
  -4   0   5-71.6667 148.582   6
  -4   0   5 45.0249 39.5130  12
   4   0  -4 65794.5 1482.62   9
  -4   0   4 66616.2 1340.74  13
   4   0  -4 67688.6 1498.32   7
  -4   0   4 68126.1 1483.32   6
   4   0  -4 66537.7 1390.96  10
  -4   0   4 68345.8 989.246  12
  -4   0   4 65336.0 1355.73  17
   4   0  -4 68667.4 1023.56   2
   4   0  -3 88.3365 97.2370  10
   4   0  -3 60.1821 82.9335  14
  -4   0   3 45.1376 81.9944  17
   4   0  -3-6.41734 133.911   7
   4   0  -3-73.0056 127.173   9
  -4   0   3-76.9399 98.6981  13
  -4   0   3 51.2421 90.5358   6
  -4   0   3 88.6306 67.9806  12
   4   0  -2 1852.06 223.541  14
   4   0  -2 1802.68 212.611  10
   4   0  -2 2211.97 292.355   7
  -4   0   2 1886.43 217.944  17
   4   0  -2 1973.04 238.468   9
  -4   0   2 1520.43 205.349   6
  -4   0   2 2261.00 252.489  12
  -4   0   1 75.5665 91.3633  17
   4   0  -1 50.8134 79.5559  10
   4   0  -1-32.4369 102.356  14
   4   0  -1 128.781 147.483   3
   4   0  -1 311.098 153.978   7
  -4   0   1 81.9991 68.6536   6
  -4   0   1 401.594 167.385  12
   4   0   0 153332. 1767.47  10
   4   0   0 155386. 2152.24   7
   4   0   0 161419. 2063.82   3
   4   0   0 160419. 2204.71  14
  -4   0   0 152460. 1512.09   6
  -4   0   0 159112. 2175.54   8
  -4   0   0 158120. 2223.65  12
  -4   0   0 156670. 1930.66  17
   4   0   1-160.777 166.463   7
   4   0   1-87.1243 138.265  14
  -4   0  -1 343.415 142.062  17
   4   0   1-200.064 129.595   1
   4   0   1 172.875 109.371   3
  -4   0  -1 312.164 178.629   8
   4   0   1 270.159 77.7470  16
  -4   0  -1 306.883 178.495  12
   4   0   2 418896. 3582.75   7
   4   0   2 442438. 3374.16   3
   4   0   2 425958. 4138.90  14
  -4   0  -2 425009. 3677.94  17
   4   0   2 451700. 3816.21   1
  -4   0  -2 429976. 4171.52  12
  -4   0  -3 31.1430 124.970  17
   4   0   3-48.5949 151.854  14
   4   0   3 202.272 156.381   7
   4   0   3 9.40515 76.8096   3
   4   0   3 15.3929 119.301   1
  -4   0  -3 42.1051 194.093  12
   4   0   4 55694.9 1607.22   1
   4   0   4 50285.6 1306.32   7
  -4   0  -4 51953.5 1612.23  12
   4   0   4 53746.7 1195.27   3
   4   0   4 50951.2 1622.67  14
   4   0   5-0.76670 79.0779  15
   4   0   5 290.855 272.556   1
   4   0   5-92.5047 198.707  14
   4   0   5 179.124 116.536   3
  -4   0  -5 44.2095 216.025  12
  -4   0  -6 15674.7 999.452   2
   4   0   6 16868.6 836.080  15
   4   0   6 14854.2 749.772   7
   4   0   6 15704.4 1011.10  14
  -4   0  -6 16148.7 1005.91  12
   4   0   6 15858.7 668.663   3
   4   0   6 17137.0 1037.98   1
   4   0   7 214.903 158.526   7
   4   0   7-120.414 229.476  14
   4   0   7-19.9669 116.909  15
  -4   0  -7-65.1599 225.576  12
   4   0   7-262.758 259.178   1
  -4   0  -7-15.7310 216.227   2
  -4   0  -8 4364.32 581.727  12
  -4   0  -8 5243.31 675.757   2
   4   0   8 5584.03 553.410  15
   4   0   8 5106.79 645.746  14
   4   0   8 5912.89 698.261   1
   4   0   9-3.29363 204.395  14
   4   0   9-275.425 205.798  15
  -4   0  -9 204.673 263.259   2
   4   0   9-157.271 231.183   1
  -4   0  -9-2.18236 237.505  12
  -4   0 -10 3893.20 614.386  12
   4   0  10 3732.45 594.825  14
  -4   0 -10 4733.08 716.139   2
   4   0  10 3358.00 686.734   1
   4   0  11-175.929 260.548  14
  -4   0 -11-195.152 256.213   2
   4   0  11 403.769 366.719   1
  -4   0 -11 144.904 240.300  12
  -4   0 -12 32347.9 1993.87   2
   4   0  12 37859.3 2017.29  14
  -4   0 -12 34895.6 1845.72  12
   4   0  12 33139.4 2003.86   1
   4   0  13-72.1552 228.723  14
  -4   0 -13 500.136 354.062   2
   4   0  13-203.136 357.265   1
  -4   0 -14 15811.1 1524.20   2
   4   0  14 14274.6 1328.29  14
   4   0  14 13042.0 1389.62   1
   4   0  15-284.351 321.172   1
  -4   0 -15 47.9208 256.952   2
   4   1 -19 1521.34 498.271   2
  -4  -1  19 2096.70 560.765  13
  -4   1  18 2295.11 631.921   1
   4  -1 -18 3599.05 749.701  10
  -4   1  18 2689.79 699.250  15
  -4  -1  18 3470.41 753.468  13
   4   1 -18 3295.79 688.728   2
  -4   1  18 1689.36 527.153   6
   4   1 -17 6936.54 931.548   2
   4  -1 -17 7493.48 1004.77  10
  -4  -1  17 8365.31 990.890   6
  -4  -1  17 7664.72 1019.81  13
  -4   1  17 8245.45 1005.98   6
  -4   1  17 8816.11 1073.08   1
   4  -1 -16 1773.99 548.527  10
  -4   1  16 1856.02 565.885   1
   4   1 -16 655.256 289.795   9
  -4  -1  16 1108.63 416.276   6
   4   1 -16 591.083 305.253   2
   4  -1 -16 1396.43 366.537   2
  -4  -1  16 1480.65 479.530  13
  -4   1  16 1605.73 500.613   6
  -4  -1  16 1593.81 492.022   1
  -4   1  15 21959.3 1507.91   1
   4   1 -15 18175.0 1348.95   2
   4  -1 -15 22252.4 1567.27  10
   4  -1 -15 18136.4 1295.61   2
  -4   1  15 19921.7 1392.93  13
   4   1 -15 18711.6 1328.48   9
  -4  -1  15 19624.6 1470.15  13
  -4  -1  15 18312.5 1346.91   6
  -4   1  15 17828.9 1368.32   6
  -4  -1  15 17433.5 1325.95   1
   4   1 -14 9946.53 950.860   2
  -4   1  14 9996.52 994.985   1
   4  -1 -14 11370.4 1099.38  10
   4  -1 -14 9237.86 883.842   2
   4   1 -14 7502.91 838.955   9
  -4  -1  14 9891.63 1014.85  13
  -4   1  14 10707.7 981.647  13
  -4  -1  14 10690.2 997.796   6
  -4   1  14 11006.6 1049.29   6
  -4  -1  14 10665.6 1001.75   1
   4   1 -13 31703.6 1609.28   2
   4  -1 -13 35831.7 1829.31  10
  -4   1  13 33990.6 1689.06   1
   4  -1 -13 33003.8 1562.58   2
  -4  -1  13 35449.2 1618.14   1
   4   1 -13 33646.0 1641.66   9
  -4  -1  13 36127.7 1803.65  13
  -4   1  13 35249.6 1662.73  13
  -4  -1  13 35802.9 1741.84   6
  -4   1  13 32685.3 1712.03   6
   4   1 -12 9670.08 834.021   2
   4  -1 -12 10557.3 978.764  10
   4  -1 -12 10483.3 840.589   2
  -4   1  12 10420.7 933.779   1
  -4  -1  12 10388.4 935.963  13
  -4  -1  12 9989.15 757.496  18
  -4   1  12 10414.4 944.397   6
  -4   1  12 11217.8 888.368  13
   4   1 -12 9211.58 855.558   9
   4  -1 -12 9958.34 853.724   9
  -4  -1  12 11089.0 950.008   6
  -4  -1  12 9099.99 804.069   1
  -4  -1  11 8769.18 757.718   1
   4   1 -11 8591.73 750.999   2
   4  -1 -11 8960.91 719.933   2
  -4   1  11 9518.78 806.417   1
   4  -1 -11 9931.13 814.302   9
   4  -1 -11 8645.09 856.175  10
  -4  -1  11 8450.45 795.691  13
   4   1 -11 11081.4 881.298   9
  -4   1  11 8792.01 750.753  13
  -4  -1  11 9386.54 676.706  18
  -4  -1  11 9059.93 823.027   6
   4  -1 -10 992.860 333.245  10
  -4  -1  10 965.961 287.275   1
   4  -1 -10 876.271 291.863   9
   4  -1 -10 772.668 221.466   2
  -4   1  10 623.112 225.220  13
  -4  -1  10 700.613 206.193  18
   4   1 -10 1024.61 306.112   9
   4   1 -10 776.574 251.033   2
  -4   1  10 1202.28 325.727   1
  -4  -1  10 1005.86 329.397   6
  -4  -1  10 1052.43 322.594  13
   4   1  -9 10587.7 729.687   2
  -4  -1   9 10129.1 665.873   1
   4  -1  -9 10372.4 812.772  10
   4  -1  -9 11812.9 695.987   2
   4  -1  -9 11401.3 805.811   9
  -4  -1   9 10758.7 789.370  13
  -4   1   9 11144.3 768.946   1
  -4  -1   9 10125.9 600.896  18
   4   1  -9 11393.5 702.430   7
  -4  -1   9 11298.0 839.396   6
  -4   1   9 11688.2 737.705  13
   4   1  -9 10933.7 814.543   9
   4   1  -8 25224.0 1043.33   2
  -4  -1   8 21755.1 892.004   1
   4  -1  -8 24785.1 1165.71  10
   4  -1  -8 25570.3 919.143   2
   4   1  -8 24782.0 1155.81   9
  -4  -1   8 23585.5 833.444  18
   4   1  -8 25189.4 1021.37   7
   4  -1  -8 23284.1 1093.72   9
  -4   1   8 23976.4 980.534  13
  -4  -1   8 24680.4 1118.37  13
  -4   1   8 23906.4 1017.05   1
  -4  -1   8 25550.7 1182.19   6
   4   1  -7 226404. 2868.96   2
  -4  -1   7 209759. 2395.40   1
   4  -1  -7 221510. 2396.90   2
   4  -1  -7 208676. 3181.17  10
   4  -1  -7 217201. 3177.96   7
   4   1  -7 223170. 3246.09   9
  -4   1   7 210319. 2813.68   1
   4   1  -7 223159. 2917.92   7
  -4  -1   7 207407. 2173.33  18
  -4  -1   7 222269. 3149.79  13
  -4   1   7 219174. 2691.32  13
  -4  -1   7 223403. 3283.55   6
   4  -1  -7 220339. 3204.79   9
   4  -1  -6 8546.68 415.566   2
   4  -1  -6 8421.86 607.686  10
  -4  -1   6 7891.26 413.842   1
   4  -1  -6 8989.26 619.643   9
   4   1  -6 8243.54 619.744   9
  -4   1   6 7765.03 518.538   1
   4  -1  -6 8379.98 614.345   7
   4   1  -6 8835.23 572.128   7
  -4  -1   6 7764.62 562.904  13
  -4   1   6 8110.00 479.134  13
  -4  -1   6 8310.17 608.925  17
  -4  -1   6 8514.69 629.293   6
   4   1  -6 8337.45 520.715   2
   4  -1  -5 217515. 1651.96   2
   4  -1  -5 219044. 2839.03  10
   4  -1  -5 214818. 2913.17   7
   4   1  -5 211199. 2689.82   7
  -4   1   5 215270. 1597.10  12
  -4  -1   5 212777. 2752.05  13
  -4   1   5 213606. 2265.80  13
  -4  -1   5 206792. 2833.74   6
   4   1  -5 207915. 2799.87   9
  -4  -1   5 209833. 2793.42  17
   4  -1  -5 216093. 1912.87  11
   4   1  -5 216621. 2423.30   2
   4   1  -4 14133.0 627.573  10
   4  -1  -4 13574.5 677.157  10
   4  -1  -4 15292.9 751.266   7
  -4  -1   4 13228.8 666.536  17
  -4  -1   4 12336.8 495.593  12
  -4  -1   4 14520.8 687.885  13
   4   1  -4 14773.6 699.204   7
  -4   1   4 13214.6 533.208  13
  -4  -1   4 14449.1 708.945   6
   4   1  -4 13486.9 686.757   9
   4   1  -4 14268.6 587.737   2
   4  -1  -4 14121.4 405.375  11
   4   1  -3 324.791 121.850  10
   4  -1  -3 278.045 109.435  10
  -4  -1   3 299.639 128.749  17
   4   1  -3 470.962 170.948   9
  -4   1   3 222.745 85.6185  17
   4  -1  -3 715.527 204.179   7
   4  -1  -3 280.724 165.575   3
   4  -1  -3 253.910 89.5577  14
  -4   1   3 132.308 78.8306  13
  -4  -1   3 566.154 169.949  13
  -4  -1   3 327.227 160.572   6
  -4  -1   3 315.246 124.143  12
   4   1  -3 432.858 162.238   7
   4   1  -2 1458.44 174.279  10
   4  -1  -2 1230.60 205.544  10
  -4   1   2 1059.72 138.501  17
   4   1  -2 1018.32 227.210   7
  -4  -1   2 1339.75 213.738  17
   4  -1  -2 1431.96 186.689  14
   4  -1  -2 1110.70 220.517   7
   4  -1  -2 1627.21 246.813   3
   4   1  -2 1225.30 193.874   9
  -4  -1   2 1232.56 206.763   6
  -4  -1   2 1436.61 221.966  12
  -4  -1   2 1096.11 99.2824  11
  -4  -1   1 95389.9 1642.27  17
   4  -1  -1 95705.2 1626.68  10
   4   1  -1 97225.7 1703.76  14
  -4   1   1 96232.5 1327.44   6
   4   1  -1 90776.9 1385.89   9
   4   1  -1 93337.4 1716.29   7
  -4   1   1 99707.9 1789.13   8
   4  -1  -1 94286.4 1677.78   7
   4  -1  -1 99021.7 1746.45   3
  -4   1   1 94770.5 1203.40  17
  -4   1   1 95476.6 1671.41  12
  -4  -1   1 92118.4 1480.09   6
   4  -1  -1 96425.7 1578.54  14
   4  -1  -1 98237.2 1273.57  18
  -4  -1   1 99734.4 1704.21  12
  -4  -1   1 99341.8 1088.98  11
   4   1  -1 94388.1 1160.44  10
  -4  -1   0 2370.44 217.807  11
   4  -1   0 2251.04 268.360  10
   4   1   0 2495.28 209.530   9
   4  -1   0 2235.88 235.514  18
  -4  -1   0 2409.29 279.096  17
  -4   1   0 2510.88 303.397   8
  -4  -1   0 2671.73 334.593  12
   4   1   0 2217.82 234.422  16
  -4   1   0 1999.15 263.520  12
   4  -1   0 2305.20 278.584  14
   4  -1   0 2385.75 301.369   3
   4   1   0 2503.13 325.221   7
  -4  -1   0 2736.34 281.827   8
  -4   1   0 1917.83 188.063  17
  -4   1   0 2312.13 175.156   6
   4   1   0 2314.92 291.931  14
   4  -1   0 2106.65 263.379   7
   4   1   0 2638.92 228.879   1
  -4   1  -1 179637. 2585.63   8
   4   1   1 168400. 2488.38  14
   4  -1   1 175533. 2512.66  14
   4  -1   1 178469. 2370.76   3
  -4   1  -1 173165. 1911.21  17
  -4  -1  -1 171654. 2394.26  17
  -4  -1  -1 178470. 2271.89   8
   4  -1   1 170202. 2183.83   7
  -4   1  -1 175621. 2568.98  12
   4   1   1 173612. 2049.61  16
   4   1   1 165875. 2350.18   7
  -4  -1  -1 177779. 2572.00  12
   4   1   1 179441. 2096.11   1
  -4   1  -2 13597.7 676.778   2
   4  -1   2 14181.9 630.414   7
   4   1   2 15178.9 685.586   1
   4   1   2 13852.4 756.364  14
   4   1   2 13271.3 702.132   7
  -4  -1  -2 13515.3 523.474   4
  -4  -1  -2 13314.2 712.463  17
  -4   1  -2 13484.0 764.189  12
  -4  -1  -2 13676.6 774.080  12
   4  -1   2 14250.3 770.939  14
  -4   1  -2 13396.7 598.136  17
   4  -1   2 14374.9 689.904   3
  -4   1  -3 5669.89 494.901   2
  -4  -1  -3 6197.83 526.249  17
   4  -1   3 5847.83 406.248   7
   4  -1   3 6335.29 558.476  14
   4   1   3 5809.75 528.088  14
   4  -1   3 5541.37 445.160   3
   4  -1   3 5439.74 486.158   1
  -4   1  -3 5326.06 518.874  12
  -4  -1  -3 5682.81 537.099  12
   4   1   3 6214.85 499.018   1
   4   1   4 2326.86 361.388   1
  -4  -1  -4 2087.23 375.822  12
  -4  -1  -4 2129.18 346.162  17
  -4   1  -4 1689.60 298.410   2
   4  -1   4 1891.86 344.979  14
   4  -1   4 1941.99 203.721  15
   4   1   4 2085.10 212.513   3
   4  -1   4 2629.91 381.780   1
   4   1   4 1632.13 308.739  14
   4  -1   4 1814.66 269.691   3
   4  -1   4 1770.10 240.531   7
  -4   1  -4 2184.43 352.796  12
   4  -1   5 24072.5 1216.01  14
   4   1   5 25249.0 1189.38  14
  -4   1  -5 23036.1 1132.85   2
   4   1   5 22837.3 641.832   3
   4  -1   5 22340.7 798.369  15
   4  -1   5 22280.2 816.745   7
   4  -1   5 22528.8 910.899   3
  -4   1  -5 23091.1 1143.08  12
   4  -1   5 23247.0 1156.51   1
  -4  -1  -5 23091.8 1148.87  12
   4   1   5 22996.7 1112.78   1
   4  -1   6 9206.06 535.933   7
  -4   1  -6 9497.16 779.537   2
  -4   1  -6 9001.64 768.899  12
   4  -1   6 9483.75 814.277  14
   4  -1   6 10842.6 620.887  15
   4  -1   6 10309.8 635.539   3
   4  -1   6 10900.5 845.285   1
   4   1   6 9322.17 776.953  14
  -4  -1  -6 10144.5 807.436  12
   4   1   6 12098.6 880.055   1
   4   1   7 113821. 2770.60  14
  -4   1  -7 108336. 2783.74   2
   4  -1   7 113930. 2890.57  14
   4  -1   7 111611. 2140.28  15
   4  -1   7 111409. 2111.35   3
  -4  -1  -7 117811. 2792.93  12
  -4   1  -7 108240. 2710.74  12
   4  -1   7 118700. 2894.59   1
   4   1   7 123748. 2905.15   1
  -4   1  -8 1942.62 463.252  12
   4   1   8 1968.62 505.299   1
   4   1   8 1358.70 314.947  15
   4  -1   8 1276.33 367.101  14
  -4   1  -8 1131.78 351.811   2
   4   1   8 1339.32 336.813  14
   4  -1   8 1625.41 438.924   1
  -4  -1  -8 1157.14 318.167  12
   4   1   9 31705.0 1469.30  15
  -4   1  -9 33017.8 1730.82   2
  -4  -1  -9 29749.1 1657.37   2
   4  -1   9 31017.5 1660.19  14
  -4   1  -9 34288.3 1656.44  12
   4   1   9 33042.4 1639.28  14
  -4  -1  -9 34159.8 1636.13  12
   4  -1   9 31403.8 1687.65   1
   4   1   9 36188.7 1793.05   1
   4   1  10 7.46319 200.576  14
   4   1  10-30.7874 169.830  15
   4  -1  10 139.479 203.662  14
  -4   1 -10-101.789 253.452   2
  -4  -1 -10-110.055 273.920   2
   4  -1  10-336.392 345.746   1
  -4   1 -10 273.255 239.120  12
  -4  -1 -10-125.077 215.823  12
   4   1  10 792.342 404.448   1
  -4   1 -11 908.549 392.991   2
   4  -1  11 1027.45 380.790  14
   4   1  11 1058.36 381.363  14
  -4   1 -11 1559.86 419.085  12
  -4  -1 -11 1765.54 516.557   2
   4  -1  11 1100.63 391.061   1
  -4  -1 -11 1102.64 383.168  12
   4   1  11 986.477 492.464   1
  -4   1 -12 997.312 386.856  12
   4  -1  12 914.139 408.316  14
   4   1  12 854.454 383.654  14
  -4   1 -12 451.133 316.127   2
  -4  -1 -12 785.867 406.409   2
   4  -1  12 360.712 378.143   1
  -4  -1 -12 601.329 319.691  12
   4   1  12 1442.74 524.209   1
  -4   1 -13 6790.44 970.296   2
  -4  -1 -13 7231.52 1041.29   2
   4   1  13 6905.12 893.570  14
   4  -1  13 8102.35 1010.05  14
   4  -1  13 6443.86 957.099   1
   4   1  13 7043.06 981.878   1
  -4   1 -14-243.376 301.072   2
   4   1  14 281.645 422.578   1
  -4  -1 -14 329.953 346.823   2
   4  -1  14 699.416 375.664   1
   4  -1  14 536.224 375.347  18
   4  -1  14-81.8814 260.007  14
   4  -1  15 5169.42 859.540  14
   4  -1  15 4113.19 812.897  18
  -4  -1 -15 4744.13 904.426   2
  -4   1 -15 5733.60 948.619   2
   4   1  15 5182.71 930.390   1
   4  -1  15 3782.10 777.306   1
   4   2 -19-81.5345 294.577   2
  -4   2  19-151.005 302.910   1
  -4  -2  19 80.6248 289.882  13
   4  -2 -18 3726.44 738.463  10
  -4   2  18 5459.11 884.239   1
  -4   2  18 4469.48 797.916   6
  -4   2  18 5351.00 935.642  15
  -4  -2  18 5189.28 906.435  13
   4   2 -18 5210.17 864.869   2
   4  -2 -17 5.82935 243.598  10
  -4   2  17-174.297 388.483  15
  -4   2  17 417.960 410.116   1
   4   2 -17-410.973 362.150   9
   4   2 -17-204.353 272.342   2
  -4  -2  17 141.007 277.988  13
  -4  -2  17 164.872 243.684   6
  -4   2  17 96.1947 257.254   6
   4  -2 -16 32.3346 240.269  10
   4   2 -16 256.795 258.487   2
  -4   2  16 58.3864 296.407  15
   4   2 -16-145.886 332.584   9
  -4   2  16-92.5921 424.531   1
  -4  -2  16 108.095 243.326  13
  -4  -2  16 42.2038 244.886   6
  -4   2  16 413.518 319.847   6
   4  -2 -15-90.9189 311.320  10
   4   2 -15-111.935 254.956   9
  -4   2  15 60.8505 331.570   1
  -4   2  15-135.863 276.819  15
  -4  -2  15 84.7258 291.410  13
   4   2 -15 328.357 350.386   2
  -4  -2  15 174.979 228.755   6
  -4   2  15-453.178 373.837   6
   4  -2 -14 13788.5 1190.41  10
  -4   2  14 13356.1 1156.30   1
   4   2 -14 14541.7 1148.95   9
  -4  -2  14 14117.4 1149.56   6
  -4  -2  14 14397.6 1260.32  13
   4   2 -14 13565.3 1139.31   2
  -4  -2  14 14669.7 1088.22   1
   4  -2 -13 539.462 325.203  10
   4   2 -13 1009.71 358.767   2
   4  -2 -13 1031.03 304.279   2
  -4   2  13 1380.84 458.239   1
   4   2 -13 727.696 295.589   9
  -4  -2  13 846.952 355.557  13
  -4  -2  13 1265.88 395.403   6
  -4  -2  13 1264.88 354.493   1
   4   2 -12 75688.3 2433.38   2
   4  -2 -12 75865.6 2508.96  10
   4  -2 -12 76132.8 2183.38   2
  -4   2  12 73038.1 2466.69   1
  -4  -2  12 80120.4 2230.68   1
  -4  -2  12 78211.9 2175.44  18
  -4  -2  12 77129.5 2599.77  13
   4   2 -12 74684.9 2433.69   9
  -4   2  12 81884.0 2276.02  13
  -4  -2  12 77353.0 2463.45   6
   4   2 -11 6555.69 690.643   2
   4  -2 -11 7205.47 780.602  10
   4  -2 -11 7512.67 643.165   2
   4   2 -11 6728.13 749.810   9
  -4   2  11 7646.89 770.490   1
  -4  -2  11 6682.78 742.211  13
  -4   2  11 8073.82 676.360  13
  -4  -2  11 6668.87 605.108  18
  -4  -2  11 6372.42 714.805   6
  -4  -2  11 7318.89 652.338   1
   4   2 -10 21838.7 1167.76   2
   4  -2 -10 20664.2 1214.88  10
  -4  -2  10 20650.6 977.166  18
   4  -2 -10 20803.8 981.170   2
  -4  -2  10 21598.3 1012.66   1
  -4   2  10 18241.8 1117.24   1
   4   2 -10 22106.9 1232.77   9
   4   2 -10 22141.6 965.634   7
  -4  -2  10 19442.9 1184.84  13
  -4   2  10 21671.6 1019.08  13
  -4  -2  10 22139.1 1239.76   6
   4   2  -9 189.157 120.640   5
   4  -2  -9 191.585 242.494  10
  -4   2   9-123.612 230.939   1
  -4  -2   9 29.5293 99.9938  18
   4   2  -9 155.178 150.445   7
  -4  -2   9 158.525 218.672   6
   4  -2  -9-56.5581 112.214   2
   4   2  -9 148.792 154.916   2
  -4  -2   9 259.151 177.316  13
  -4   2   9 288.307 154.937  13
   4   2  -9 603.041 339.400   9
  -4  -2   9 379.414 197.970   1
   4   2  -8 514.565 175.394   5
   4  -2  -8 540.134 244.321  10
   4   2  -8 1572.70 401.358   9
   4   2  -8 840.134 224.319   2
  -4   2   8 251.692 229.179   1
  -4   2   8 995.148 195.120  13
   4  -2  -8 760.431 168.131   2
   4   2  -8 848.075 211.109   7
  -4  -2   8 771.772 240.368  13
  -4  -2   8 353.195 193.584   6
  -4  -2   8 892.553 214.461   1
   4  -2  -7 35669.0 1339.36  10
   4  -2  -7 33522.1 909.384   2
  -4   2   7 35615.1 1267.54   1
  -4  -2   7 36850.9 1373.13  13
  -4   2   7 35577.7 993.839  13
  -4  -2   7 33678.4 1338.31   6
  -4  -2   7 36312.3 1386.75  17
   4   2  -7 33317.5 1117.41   7
   4   2  -7 35403.2 1108.60   5
  -4  -2   7 34003.2 922.421   1
   4  -2  -7 33995.5 1067.99  11
   4   2  -7 36526.9 1275.03   2
   4  -2  -6 73403.5 1827.97  10
   4  -2  -6 72493.1 1079.28   2
  -4  -2   6 72914.8 1856.91  17
  -4   2   6 72794.0 1710.12   1
   4   2  -6 74173.3 1603.26   7
  -4  -2   6 74833.3 1843.76  13
  -4   2   6 72493.9 1259.64  13
  -4  -2   6 74586.4 1859.15   6
   4   2  -6 71433.3 1570.42   5
  -4  -2   6 67532.1 1083.80   1
   4  -2  -6 71682.3 1417.88  11
   4   2  -6 71824.5 1666.19   2
   4   2  -5 1720.30 269.134   5
   4  -2  -5 1711.41 122.057   2
   4   2  -5 2076.23 287.175   2
  -4   2   5 1626.82 260.595   1
   4  -2  -5 2217.71 317.304  10
  -4  -2   5 1832.00 299.849  17
   4  -2  -5 2249.32 362.898   7
   4   2  -5 2045.15 279.962   7
  -4  -2   5 2607.70 347.757  13
   4  -2  -5 2129.65 320.417   3
  -4   2   5 1863.16 195.966  13
  -4  -2   5 1754.63 318.513   6
  -4  -2   5 1236.00 123.982   1
   4  -2  -5 2121.10 227.266  11
   4  -2  -4 140778. 2310.95  10
   4  -2  -4 142619. 2259.69   3
   4   2  -4 147493. 2220.76   7
  -4  -2   4 131049. 2255.61  17
  -4  -2   4 142302. 2326.87  13
   4  -2  -4 138476. 1252.92  14
  -4  -2   4 137903. 2312.45   6
   4   2  -4 145941. 2238.76   5
   4  -2  -4 142936. 2411.59   7
   4   2  -4 145942. 2144.38   2
   4  -2  -4 139240. 1650.75  11
   4   2  -3 2422.39 306.098   5
   4  -2  -3 3514.60 365.219  10
  -4   2   3 2844.21 209.899  13
  -4   2   3 2817.00 208.054  17
   4  -2  -3 3614.87 391.056   7
   4  -2  -3 2812.22 223.698  14
  -4  -2   3 2753.68 333.870  13
   4   2  -3 2908.31 328.922   7
  -4  -2   3 2799.61 338.567   6
  -4  -2   3 2925.67 337.193  17
   4  -2  -3 2614.48 335.096   3
  -4  -2   3 2653.35 233.945  11
  -4  -2   3 2913.14 293.181  12
   4  -2  -3 2997.80 232.820  11
   4  -2  -2 127802. 1507.29  11
   4   2  -2 127605. 1361.45  10
   4  -2  -2 127014. 2105.92  10
  -4   2   2 121201. 1081.10  17
   4   2  -2 129567. 2156.90   5
   4  -2  -2 128622. 1683.02  14
  -4  -2   2 125937. 2121.25  13
   4  -2  -2 125010. 2100.67   7
   4  -2  -2 128209. 2148.98   3
  -4  -2   2 126043. 2110.80  17
  -4  -2   2 126812. 1939.76  12
  -4  -2   2 125095. 1516.26  11
   4   2  -2 131259. 2126.56   7
  -4   2   1 4558.13 237.163   2
   4   2  -1 3914.24 410.331   7
   4  -2  -1 4328.86 398.884  10
   4   2  -1 4207.69 409.108   5
  -4  -2   1 4256.46 419.834  17
   4  -2  -1 4561.06 424.373   3
  -4  -2   1 4413.42 304.047   8
   4  -2  -1 4290.70 388.567   7
   4   2  -1 4962.35 232.658   1
   4  -2  -1 3906.90 354.184  14
   4   2  -1 4134.10 361.538  16
  -4  -2   1 5038.74 424.892  12
  -4   2   1 4100.18 397.014   8
  -4  -2   1 4689.17 313.958  11
   4   2   0 172708. 1734.45   1
  -4   2   0 157055. 1799.65   2
   4  -2   0 165383. 2412.64  10
  -4  -2   0 170480. 1916.51   8
   4   2   0 159905. 1714.47   9
   4   2   0 162714. 2272.41  16
   4  -2   0 164930. 2217.20   7
  -4  -2   0 161758. 2449.49  17
   4  -2   0 167987. 2363.04  14
   4  -2   0 171692. 2529.20   3
   4   2   0 164207. 2477.25  14
  -4   2   0 162903. 2492.74   8
   4  -2   0 165128. 2152.03  18
  -4  -2   0 163221. 2467.40  12
  -4  -2   0 164251. 1994.37  11
   4   2   1 26727.4 814.679   1
  -4   2  -1 26693.0 851.890   2
   4  -2   1 27702.1 956.157  18
   4   2   1 25927.5 586.027   9
  -4  -2  -1 26482.3 1035.11  17
  -4   2  -1 27571.0 1077.71   8
   4  -2   1 26827.8 871.493   7
   4   2   1 27569.3 959.159  16
   4  -2   1 27813.4 1055.32  14
   4   2   1 29597.4 1088.34  14
   4  -2   1 26861.0 1020.49   3
  -4  -2  -1 28033.2 1079.12  12
  -4  -2  -1 26349.5 874.956  11
   4   2   2 27074.0 927.701   1
  -4   2  -2 25164.3 927.148   2
  -4  -2  -2 27499.6 900.143   4
  -4  -2  -2 26073.1 1075.06  17
   4  -2   2 28359.8 1044.73  18
   4  -2   2 26610.0 848.522   7
   4  -2   2 25948.8 1082.34  14
   4   2   2 27478.6 1095.50  14
   4  -2   2 26379.0 1039.39   3
  -4  -2  -2 26207.0 1100.86  12
  -4  -2  -3 8440.67 657.893  17
  -4   2  -3 7507.47 567.360   2
   4  -2   3 8687.20 627.890  18
  -4  -2  -3 8150.81 507.048   4
   4   2   3 7347.99 607.932  14
   4  -2   3 7889.09 578.387   3
   4  -2   3 8591.33 473.905   7
   4   2   3 8115.46 580.843   1
   4  -2   3 8798.54 685.152  14
  -4  -2  -3 9957.53 727.641  12
   4   2   4 20818.7 1011.78   1
  -4   2  -4 21610.1 1022.28   2
   4  -2   4 20918.3 723.403   7
   4  -2   4 22648.8 1089.42  18
   4  -2   4 20371.2 574.638  15
   4   2   4 21690.7 1083.57  14
   4  -2   4 20526.1 1110.54  14
   4  -2   4 21820.3 978.277   3
  -4  -2  -4 23107.9 1147.22  17
  -4  -2  -4 22927.3 1128.64  12
  -4   2  -4 21089.8 1083.83  12
  -4  -2  -5 31562.0 1381.34  12
   4  -2   5 32805.4 894.258   7
  -4   2  -5 31871.8 1349.31   2
  -4  -2  -5 34496.8 1464.30  17
   4   2   5 33213.9 1347.32   1
   4  -2   5 32221.6 857.832  15
   4  -2   5 34269.1 1479.08  14
   4  -2   5 33190.4 1242.30   3
   4  -2   5 36190.0 1452.94  18
   4   2   5 33215.1 1386.68  14
  -4   2  -5 33902.3 1435.95  12
   4   2   6 90283.1 2338.55   1
  -4   2  -6 89411.2 2409.86   2
   4  -2   6 90972.4 2101.68   3
   4  -2   6 88915.8 2509.71  14
   4  -2   6 89593.8 2445.89  18
  -4   2  -6 89001.7 2421.88  12
   4  -2   6 92712.6 2491.53   1
  -4  -2  -6 89546.7 2407.13  12
   4   2   6 87869.4 2337.25  14
   4   2   7-449.886 361.139   1
  -4   2  -7-36.5543 182.222   5
   4  -2   7 60.6110 133.169   3
   4  -2   7 15.5102 213.261  14
   4  -2   7 5.80624 183.959  18
   4   2   7-148.339 184.347  14
  -4   2  -7-174.550 246.034   2
   4  -2   7-340.791 380.251   1
  -4   2  -7 110.818 241.763  12
  -4  -2  -7 62.8645 252.845  12
  -4   2  -8 47808.7 1752.90   5
  -4   2  -8 45020.7 1940.28   2
  -4   2  -8 49144.6 1939.14  12
   4  -2   8 43431.3 1904.07  18
   4  -2   8 45295.2 1971.85  14
   4   2   8 46612.1 1857.69  14
   4  -2   8 46612.1 1580.08   3
   4  -2   8 43291.8 1931.89   1
  -4  -2  -8 49729.7 1948.09  12
   4   2   8 43867.7 1871.99   1
  -4   2  -9 21642.2 1200.15   5
  -4   2  -9 21001.4 1405.55   2
   4  -2   9 21723.0 1427.17  18
   4   2   9 16635.4 1330.68   1
   4   2   9 20139.0 1284.53  14
  -4   2  -9 21133.4 1335.18  12
   4  -2   9 20147.8 1383.91  14
   4  -2   9 20142.0 1370.80   1
  -4  -2  -9 19581.0 1264.09  12
   4   2  10 151.271 301.239   1
  -4   2 -10 1057.11 389.883   2
   4   2  10 983.661 349.178  14
   4  -2  10 992.452 307.496  14
   4  -2  10 1052.13 408.373  18
   4  -2  10 635.573 305.520   1
  -4   2 -10 395.854 289.792  12
  -4  -2 -10 303.264 302.689   2
  -4  -2 -10 1100.69 418.845  12
   4   2  11 2680.97 587.098   1
   4  -2  11 2682.87 571.935  14
   4  -2  11 1285.32 383.442  18
  -4   2 -11 1990.29 537.713   2
   4   2  11 2184.87 474.200  14
   4  -2  11 1111.27 450.424   1
  -4  -2 -11 2284.15 546.022   2
  -4   2 -11 3156.97 598.909  12
  -4  -2 -11 2169.39 486.524  12
   4  -2  12 2635.88 609.645  18
   4  -2  12 2535.70 582.989  14
  -4   2 -12 2131.27 552.300   2
   4   2  12 1717.10 439.726  14
   4  -2  12 1617.89 563.604   1
  -4  -2 -12 2992.87 664.445   2
  -4   2 -12 2051.51 484.913  12
  -4  -2 -12 2860.66 575.224  12
   4   2  12 2054.18 592.995   1
  -4  -2 -13 2503.77 630.686   2
   4  -2  13 3451.90 758.191  18
   4  -2  13 2677.26 657.579   1
   4  -2  13 3420.97 687.570  14
  -4   2 -13 2054.88 551.291   2
   4   2  13 2243.57 680.162   1
  -4   2 -14 12218.6 1352.06   2
  -4  -2 -14 10060.9 1224.08   2
   4  -2  14 11012.1 1276.56  18
   4  -2  14 10517.2 1268.12   1
   4  -2  14 10185.7 1195.18  14
   4   2  14 9175.17 1249.61   1
   4  -2  15-157.937 383.713  18
  -4   2 -15 318.708 252.113   2
  -4  -2 -15 994.338 450.741   2
   4  -2  15 614.584 384.558  14
   4  -2  15-16.5891 265.790   1
   4   2  15 1391.32 606.548   1
   4  -3 -18 1082.12 406.822  11
   4  -3 -18 274.836 313.475  10
  -4   3  18 532.911 402.416   1
  -4   3  18 1039.13 483.220  15
  -4  -3  18 55.0860 290.704  13
   4   3 -18 700.244 370.717   2
  -4   3  18 1061.33 434.564   6
   4  -3 -17 3088.19 640.004  11
   4  -3 -17 3388.93 721.896  10
   4   3 -17 3215.77 652.506   9
   4   3 -17 2809.62 640.308   2
  -4   3  17 4521.34 851.751  15
  -4  -3  17 4231.40 834.915  13
  -4   3  17 2551.95 676.399   1
  -4   3  17 3424.61 709.822   6
   4   3 -16-435.455 325.963   2
   4  -3 -16-117.855 335.950  10
   4   3 -16 258.122 243.231   9
  -4   3  16 389.090 404.412   1
  -4   3  16-453.927 396.351  15
  -4  -3  16-16.5302 202.773   6
  -4  -3  16-22.1375 267.714  13
   4  -3 -16 42.7157 277.355  11
   4  -3 -15 416.495 298.921  10
   4   3 -15-123.539 249.632   2
  -4   3  15 31.0207 262.164  15
   4   3 -15-178.615 280.491   9
  -4  -3  15-83.3937 239.879  13
  -4  -3  15 109.292 239.932   6
  -4   3  15 197.570 364.069   1
   4  -3 -15-46.9471 210.530  11
   4  -3 -14 2474.75 548.169  10
   4   3 -14 1775.36 480.210   2
  -4  -3  14 2702.92 615.541  13
  -4   3  14 2039.43 557.101  15
   4   3 -14 2338.94 536.326   9
  -4  -3  14 2013.22 480.023   6
  -4   3  14 1705.59 553.793   1
   4  -3 -14 1558.41 431.421  11
   4   3 -13 16869.1 1275.86   9
   4   3 -13 15092.8 1213.24   2
   4  -3 -13 16779.0 1274.28  10
  -4   3  13 16298.0 1281.75   1
  -4   3  13 17791.4 1387.98  15
  -4  -3  13 18153.7 1389.30  13
  -4  -3  13 17038.7 1236.47   6
   4  -3 -13 17110.9 1197.86  11
   4  -3 -12-198.283 271.667  10
  -4   3  12 441.395 351.329  15
   4   3 -12 81.4710 243.435   2
  -4  -3  12 56.2392 159.292  18
   4  -3 -12 3.77359 173.232  11
  -4  -3  12 356.792 364.990  13
  -4  -3  12 483.280 315.974   6
   4   3 -12 136.483 300.029   9
  -4   3  12 33.5564 274.330   1
   4  -3 -11 51738.1 2033.65  10
  -4  -3  11 52067.5 2131.95  13
  -4   3  11 53688.8 2165.33  15
   4   3 -11 52872.1 2051.03   9
  -4   3  11 51682.2 2024.85   1
  -4  -3  11 52390.4 1711.47   1
  -4  -3  11 51467.1 1984.59   6
   4   3 -11 51217.8 1980.54   2
   4  -3 -11 52996.6 1863.77  11
   4  -3 -10-22.9282 173.410  11
   4   3 -10 33.8623 143.617   5
   4  -3 -10 94.3297 207.440  10
  -4  -3  10 296.163 250.260  13
  -4   3  10-356.379 277.767   1
  -4  -3  10 41.4299 131.933   1
  -4   3  10-137.387 244.443  15
   4   3 -10-304.539 273.420   2
   4  -3 -10 201.643 147.436   2
  -4  -3  10 419.271 279.341  17
  -4  -3  10-143.832 200.425   6
   4  -3  -9 74333.5 2209.09  10
   4  -3  -9 72199.1 1660.00   2
  -4  -3   9 76420.0 2332.62  17
  -4   3   9 71702.8 2156.11   1
  -4  -3   9 75649.5 2307.44  13
  -4  -3   9 76356.8 2223.06   6
   4   3  -9 74937.8 1686.61   7
  -4   3   9 70811.9 2224.51  15
  -4  -3   9 68382.8 1661.78   1
   4   3  -9 71597.0 1787.48   5
   4  -3  -9 70620.6 1912.57  11
   4   3  -9 75827.5 2188.58   2
   4  -3  -8 2083.77 334.086  11
   4   3  -8 1628.42 294.906   5
  -4  -3   8 1788.66 378.066  17
   4  -3  -8 2458.99 419.596  10
   4  -3  -8 1829.19 251.050   2
   4   3  -8 2245.46 403.916   2
   4   3  -8 1978.93 295.494   7
  -4  -3   8 1278.88 217.670   1
  -4  -3   8 2095.35 390.156  13
  -4  -3   8 1897.36 404.439   6
  -4   3   8 1621.36 339.924  15
  -4   3   8 1604.84 377.731   1
  -4   3   7 47809.4 1166.21   5
   4  -3  -7 52023.6 1690.33  10
   4  -3  -7 49354.3 1074.99   2
  -4  -3   7 50934.3 1716.63  17
  -4   3   7 48533.5 1612.70  15
   4   3  -7 48449.2 1331.83   7
  -4   3   7 47686.5 1611.05   1
  -4  -3   7 50236.4 1683.83   6
   4   3  -7 50764.5 1481.35   5
  -4  -3   7 46546.5 1648.50  13
   4  -3  -7 48286.8 1386.74  11
   4   3  -7 49861.8 1614.90   2
  -4   3   6 14321.2 679.798   5
   4  -3  -6 16447.5 922.677  10
   4  -3  -6 15080.7 499.993   2
  -4  -3   6 14717.4 900.307  13
   4   3  -6 14000.4 786.791   5
  -4  -3   6 15048.7 899.719  17
   4  -3  -6 15024.0 794.590   3
  -4   3   6 14684.9 826.109  15
   4   3  -6 14945.2 745.188   7
  -4   3   6 11888.9 843.732   1
  -4   3   6 13766.5 441.877  13
  -4  -3   6 14330.3 887.499   6
   4   3  -6 14184.1 824.798   2
   4  -3  -6 15661.4 743.279  11
   4   3  -5 815.388 234.741   5
   4   3  -5 959.114 217.000   7
   4  -3  -5 651.862 219.408  10
   4  -3  -5 980.239 103.903   2
  -4  -3   5 1085.09 274.779  17
  -4   3   5 786.786 186.717   5
  -4   3   5 785.229 189.513  15
   4  -3  -5 807.555 173.012  11
   4  -3  -5 525.114 195.778   3
  -4  -3   5 680.887 198.760  13
   4   3  -5 1011.54 238.815   2
   4  -3  -4 34853.5 1246.15  10
  -4   3   4 33566.6 1039.15  15
   4  -3  -4 32241.1 1167.30   3
   4  -3  -4 32282.5 653.283  14
   4   3  -4 34129.4 1124.16   7
  -4  -3   4 33582.5 1230.10  13
  -4  -3   4 33497.9 1221.44  17
   4   3  -4 34439.8 1212.09   5
   4  -3  -4 32905.9 970.453  11
   4  -3  -3 19086.6 939.660  10
   4   3  -3 21294.3 915.299   7
  -4  -3   3 21882.9 976.961  17
   4  -3  -3 21480.5 955.351   3
   4  -3  -3 20890.8 645.271  14
   4   3  -3 20804.1 939.315   5
  -4   3   3 20298.2 430.193  13
  -4  -3   3 20563.1 946.530  13
  -4   3   3 21074.3 742.951  15
   4  -3  -3 19922.3 733.177  11
  -4  -3   3 20305.0 765.357  11
  -4  -3   2 15252.5 780.644  12
   4  -3  -2 16386.3 862.580  10
   4   3  -2 15951.4 833.558   5
   4  -3  -2 15703.4 802.847   7
  -4   3   2 16846.7 572.575  15
   4  -3  -2 15677.6 644.671  14
   4  -3  -2 15382.0 808.551   3
   4   3  -2 16407.3 826.262   7
  -4  -3   2 16127.3 826.687  13
  -4  -3   2 16173.7 834.138  17
  -4  -3   2 16048.2 674.524  11
   4  -3  -2 15315.8 649.137  11
   4  -3  -1 248269. 2681.84  11
   4  -3  -1 250761. 3274.65  10
  -4   3   1 241478. 3136.90   8
   4   3  -1 243775. 3112.66  16
  -4  -3   1 249212. 3147.81  12
   4  -3  -1 240895. 2956.14   7
   4  -3  -1 241678. 2819.92  14
   4  -3  -1 238725. 3244.57   3
  -4  -3   1 241260. 3201.18  17
  -4  -3   1 249422. 1976.56   8
   4   3  -1 240001. 3179.64   5
  -4  -3   1 246988. 2713.15  11
  -4   3   1 240666. 1915.59   2
  -4   3   0 33431.0 862.982   2
   4   3   0 33243.2 836.540   1
   4   3   0 34346.8 1185.98  16
   4  -3   0 33840.4 1071.44   7
   4  -3   0 34220.0 1135.68  14
   4  -3   0 34518.6 1252.01   3
  -4  -3   0 34778.6 1244.77  17
  -4  -3   0 32686.2 1188.47  12
  -4   3   0 34799.3 1223.22   8
   4   3   0 33699.4 1197.81   5
  -4  -3   0 33534.1 1049.38  11
  -4   3  -1 274823. 2829.39   2
   4  -3   1 265506. 2872.43   7
   4   3   1 281952. 2769.26   1
   4  -3   1 281950. 3623.77   3
  -4  -3  -1 277041. 3250.47   4
  -4   3  -1 261652. 3522.64   8
  -4  -3  -1 272314. 3580.88  17
   4   3   1 270529. 3419.17  16
  -4  -3  -1 269725. 3562.34  12
   4   3   1 278288. 3465.66   5
  -4  -3  -1 273689. 3131.57  11
  -4   3  -2 6392.80 488.321   2
   4   3   2 6308.81 496.451   1
  -4  -3  -2 6505.89 513.120   4
   4  -3   2 6133.46 424.756   7
   4   3   2 6730.09 581.214  14
   4  -3   2 7901.73 624.365   3
   4  -3   2 6864.27 570.100  18
  -4  -3  -2 6231.91 589.913  17
  -4  -3  -2 6081.47 567.067  12
  -4  -3  -2 6673.30 529.290  11
   4   3   3 10749.5 683.526   1
  -4   3  -3 10091.6 665.947   2
   4   3   3 9777.46 714.907  14
   4  -3   3 10429.2 738.771   3
   4  -3   3 10457.4 740.413  18
  -4  -3  -3 9806.56 637.177   4
  -4  -3  -3 9774.79 756.700  17
   4  -3   3 8292.47 702.166  14
  -4  -3  -3 10391.3 775.872  12
   4  -3   3 8832.12 481.284   7
  -4  -3  -3 10539.6 709.766  11
  -4   3  -4 4624.32 546.752   5
   4   3   4 5617.24 581.094   1
  -4   3  -4 5726.92 549.167   2
   4   3   4 6106.43 588.372  14
   4  -3   4 5080.33 558.904  18
   4  -3   4 5138.30 608.745  14
   4  -3   4 5691.89 367.936   7
  -4  -3  -4 5578.70 591.273  17
   4  -3   4 5394.00 556.594   3
  -4  -3  -4 5315.44 578.043  12
  -4  -3  -4 6269.81 575.165  11
  -4  -3  -5 2813.97 479.014  17
  -4   3  -5 2234.57 414.873   5
   4   3   5 3090.05 483.302   1
   4  -3   5 3253.05 532.479  14
   4  -3   5 2723.83 451.361  18
  -4   3  -5 2520.89 395.851   2
   4  -3   5 2637.79 408.670   3
   4   3   5 2835.01 418.771  14
  -4  -3  -5 3114.25 508.929  12
  -4  -3  -6 558.397 342.049  12
   4  -3   6 296.324 232.657  18
   4  -3   6 968.787 381.880  14
  -4   3  -6 501.085 239.437   5
   4   3   6 214.688 202.748  14
   4   3   6 838.594 332.371   1
  -4   3  -6 729.651 289.428   2
   4  -3   6 292.348 212.270   3
  -4  -3  -6 644.691 319.641  17
  -4   3  -7 57722.4 1980.78   5
  -4   3  -7 54973.6 2042.84   2
   4   3   7 56425.6 1979.30  14
   4  -3   7 53020.6 2060.47  18
   4   3   7 52088.6 1951.01   1
   4  -3   7 54351.1 2149.91  14
   4  -3   7 58376.6 1894.79   3
  -4   3  -7 60234.0 2141.63  12
  -4  -3  -7 58828.2 2093.66  12
   4   3   8 272.474 287.262   1
  -4   3  -8 218.718 206.520   2
   4   3   8-132.627 240.554  14
   4  -3   8 296.889 284.283  18
  -4   3  -8 262.841 176.193   5
   4  -3   8 601.350 246.877   3
  -4   3  -8-87.5642 221.961  12
   4  -3   8-92.0211 265.830  14
  -4  -3  -8 215.482 272.293  12
  -4   3  -9 12173.3 959.073   5
   4   3   9 10648.5 1035.33   1
  -4   3  -9 11857.0 1081.32   2
   4  -3   9 11237.8 1057.66  18
   4  -3   9 11760.2 1101.42  14
   4  -3   9 13070.5 949.099   3
   4   3   9 12278.1 1005.73  14
  -4   3  -9 11489.1 1002.53  12
  -4  -3  -9 11937.6 1008.59  12
  -4   3 -10 2451.52 517.740  12
   4   3  10 995.455 377.326   1
   4  -3  10 1653.39 488.401  18
  -4   3 -10 1513.73 443.440   2
   4  -3  10 1731.78 467.736  14
   4   3  10 1676.61 409.067  14
  -4  -3 -10 1615.04 424.564  12
   4   3  11 3834.37 680.357   1
  -4   3 -11 3622.06 678.368   2
   4  -3  11 3750.71 687.769  14
   4   3  11 4027.88 625.743  14
   4  -3  11 5365.41 811.688  18
  -4   3 -11 3549.44 619.694  12
  -4  -3 -11 4354.88 685.294  12
   4   3  12 831.251 448.596   1
  -4   3 -12 1790.16 538.925   2
   4  -3  12 1841.39 565.709  14
  -4   3 -12 1771.00 486.464  12
   4  -3  12 1994.62 557.739  18
  -4  -3 -12 1071.63 438.789   2
  -4  -3 -12 1628.71 438.275  12
  -4   3 -13 12194.8 1319.85   2
  -4  -3 -13 11172.1 1266.19   2
   4  -3  13 12652.2 1358.97  18
   4  -3  13 10759.8 1186.94  14
   4   3  13 11635.3 1259.19   1
  -4   3 -14 1252.58 474.079   2
   4  -3  14 1193.62 474.258  14
  -4  -3 -14 1062.47 461.908   2
   4  -3  14 848.269 333.390  18
   4  -3  15 5295.82 948.963  14
   4  -4 -18 2611.04 617.092  11
   4  -4 -18 2796.91 663.221  10
   4   4 -18 2865.12 671.290   2
  -4   4  18 1805.54 526.945   6
  -4   4  18 2683.25 730.328   1
   4  -4 -17 181.218 222.717  11
   4  -4 -17-324.739 379.202  10
   4   4 -17 14.9326 285.056   9
   4   4 -17 50.3047 260.046   2
  -4  -4  17-144.912 340.047  17
  -4   4  17 755.497 442.918   1
  -4   4  17-249.823 259.716  15
  -4  -4  17 120.885 350.215  13
   4  -4 -16 8868.52 1063.70  10
  -4   4  16 8904.62 1117.34   1
  -4   4  16 10273.8 1240.51  15
   4   4 -16 8848.66 1082.86   2
   4   4 -16 7628.25 994.540   9
  -4  -4  16 9660.11 1189.99  13
  -4  -4  16 8135.21 966.170   6
  -4  -4  16 9285.95 1149.09  17
   4  -4 -16 8279.46 1001.25  11
   4  -4 -15 314.114 294.759  11
   4  -4 -15 203.947 234.238  10
   4   4 -15 285.876 248.457   2
   4   4 -15 383.434 418.195   9
  -4  -4  15-79.6277 269.753  17
  -4   4  15 26.3610 319.476  15
  -4  -4  15 187.843 364.484  13
  -4   4  15-463.896 425.837   1
  -4  -4  15 651.040 366.157   6
   4   4 -14 22767.3 1607.78   2
   4  -4 -14 27039.2 1701.38  10
  -4  -4  14 28307.9 1864.16  13
  -4   4  14 25595.0 1720.55   1
   4   4 -14 27170.6 1690.05   9
  -4  -4  14 24361.4 1691.83  17
  -4   4  14 29777.6 1932.76  15
  -4  -4  14 25998.8 1603.66   6
   4  -4 -14 29187.9 1690.87  11
   4  -4 -13 2307.24 470.366  11
   4  -4 -13 2330.02 519.686  10
  -4  -4  13 3164.73 616.870  13
   4   4 -13 2157.08 539.250   9
  -4  -4  13 2767.05 573.205  17
  -4   4  13 2740.01 606.437  15
  -4  -4  13 3021.11 569.475   6
   4   4 -13 2389.62 521.950   2
  -4   4  13 2254.22 563.897   1
   4  -4 -12 22172.8 1428.25  10
   4   4 -12 22697.2 1462.12   2
  -4   4  12 22678.0 1483.19   1
  -4   4  12 21759.8 1502.59  15
  -4  -4  12 23128.5 1514.84  17
  -4  -4  12 23150.1 1554.51  13
  -4  -4  12 21531.2 1372.74   6
   4  -4 -12 24622.7 1420.71  11
   4  -4 -11 6962.02 785.783  10
  -4   4  11 6280.99 752.324   1
  -4  -4  11 7526.76 877.081  17
  -4   4  11 6893.68 825.842  15
  -4  -4  11 6156.30 768.496  13
  -4  -4  11 5976.43 716.293   6
   4  -4 -11 6930.22 724.178  11
   4   4 -11 5682.68 732.094   2
   4  -4 -10 926.886 274.376  11
   4   4 -10 1307.91 330.185   5
   4  -4 -10 1988.29 438.860  10
   4   4 -10 1371.40 346.177   2
  -4  -4  10 1360.22 397.559  17
  -4   4  10 898.613 258.701   1
  -4  -4  10 1456.20 432.455  13
  -4  -4  10 1069.22 357.314   6
  -4   4  10 1140.83 329.750  15
   4  -4  -9 16008.2 1074.83  10
  -4   4   9 14190.8 1045.36   1
  -4  -4   9 14764.0 1083.69  17
  -4  -4   9 13798.8 1055.92  13
  -4   4   9 15782.2 1100.80  15
  -4  -4   9 14296.9 1015.82   6
   4   4  -9 15239.5 921.290   5
   4  -4  -9 15497.4 961.921  11
   4   4  -9 14000.3 1029.37   2
   4   4  -8 8517.59 573.003   7
   4  -4  -8 7915.23 734.172  10
  -4  -4   8 9918.03 861.287  13
  -4  -4   8 8467.36 787.050  17
  -4   4   8 8469.62 756.651  15
  -4   4   8 8953.13 820.188   1
  -4  -4   8 9364.39 805.697   6
   4   4  -8 9018.00 731.326   5
   4  -4  -8 8393.33 671.403  11
   4   4  -8 9480.53 804.536   2
   4   4  -7 10159.3 803.505   2
   4  -4  -7 10772.7 827.448  10
   4   4  -7 10101.6 630.893   7
  -4   4   7 9230.20 813.267   1
  -4  -4   7 10660.9 829.072  17
   4  -4  -7 10079.9 700.572   3
  -4   4   7 9780.67 781.185  15
  -4  -4   7 10753.2 842.754  13
   4   4  -7 10494.5 777.810   5
   4  -4  -7 10390.5 714.400  11
  -4   4   7 10641.3 620.794   5
  -4   4   6 137509. 2325.91   5
   4  -4  -6 140729. 2815.53  10
  -4  -4   6 142245. 2898.44  17
  -4   4   6 135115. 2683.19  15
   4  -4  -6 135445. 2506.82   3
   4   4  -6 143718. 2361.83   7
  -4   4   6 138674. 2865.70   1
   4  -4  -6 138943. 2465.29  11
  -4  -4   6 136770. 2877.30  13
   4   4  -6 141791. 2739.60   5
   4   4  -6 144632. 2839.96   2
  -4   4   5 27158.4 1073.46   5
   4  -4  -5 30247.8 1284.24  10
   4   4  -5 30199.3 1095.99   7
  -4  -4   5 30872.4 1309.71  17
  -4   4   5 30572.8 1160.41  15
   4  -4  -5 29244.8 1171.21   3
  -4  -4   5 30951.0 1319.79  13
   4   4  -5 27947.5 1226.88   5
   4   4  -5 29480.5 1251.01   2
   4  -4  -5 27597.0 1053.42  11
  -4  -4   4 131483. 2294.67  11
  -4   4   4 129219. 2414.54   5
  -4  -4   4 135875. 2648.49  17
   4  -4  -4 127918. 2614.26  10
   4  -4  -4 125139. 1547.77  14
   4   4  -4 129774. 2331.32   7
  -4   4   4 129320. 2214.80  15
   4  -4  -4 123312. 2433.63   3
   4  -4  -4 126302. 2187.31  11
  -4  -4   4 129294. 2577.30  13
   4   4  -4 136181. 2637.32   5
  -4   4   3 3708.73 430.436   5
   4  -4  -3 3604.37 448.114  10
  -4  -4   3 3846.97 389.701  11
  -4  -4   3 3609.89 445.112  17
   4   4  -3 3715.27 435.143   7
   4   4  -3 4453.98 258.348   1
  -4  -4   3 4121.89 465.388  13
   4   4  -3 3573.44 464.136   5
   4  -4  -3 3583.74 449.690   3
   4  -4  -3 3455.82 365.770  11
  -4   4   2 32594.6 1289.25   5
   4  -4  -2 32658.6 1280.18  10
  -4   4   2 32568.9 1197.35   8
   4   4  -2 33120.2 741.687   1
  -4  -4   2 32832.3 1278.47  17
  -4  -4   2 32694.7 1245.64  13
   4   4  -2 33035.1 1309.67   5
   4  -4  -2 31713.5 1254.55   3
  -4  -4   2 32617.1 1127.18  11
   4  -4  -2 32261.4 1093.00  11
  -4   4   1 62813.9 1843.85   5
   4  -4  -1 67500.6 1616.90  11
  -4  -4   1 66533.9 1836.27  17
  -4  -4   1 63660.5 779.782   8
   4  -4  -1 69110.8 1873.81  10
   4   4  -1 70189.6 1869.52  16
  -4   4   1 63368.6 1698.88   8
  -4  -4   1 64604.0 1742.48  13
  -4   4   1 67363.4 1183.57  16
   4  -4  -1 68004.7 1874.85   3
   4   4  -1 66373.0 1184.01   1
   4   4  -1 64202.0 1800.93   5
  -4   4   1 62694.2 1154.53   2
  -4  -4   1 67896.9 1641.17  11
  -4   4   0 21981.2 1126.63   5
   4   4   0 22740.3 777.785   1
  -4   4   0 23758.4 1073.79   8
  -4  -4   0 23224.4 1065.84   4
  -4   4   0 23640.1 604.156  16
   4  -4   0 21048.9 1078.09   3
   4   4   0 21061.4 1049.73  16
  -4  -4   0 23508.8 1115.81  17
  -4  -4   0 22984.5 1077.33  12
   4   4   0 23501.9 1088.11   5
  -4  -4   0 24257.3 1010.67  11
  -4   4   0 21656.9 770.803   2
  -4   4  -1 11397.1 615.867   2
  -4   4  -1 11173.1 843.422   5
  -4  -4  -1 11031.6 793.235  12
   4   4   1 10727.7 750.100   5
   4   4   1 11230.5 610.200   1
  -4  -4  -1 10950.4 794.969  17
  -4  -4  -1 10204.9 715.175   4
   4   4   1 11408.7 788.349  16
   4  -4   1 10087.5 759.389   3
  -4  -4  -1 9772.92 674.557  11
  -4   4  -1 10829.8 770.140   8
  -4   4  -2 18563.8 1080.90   5
  -4   4  -2 18972.2 876.776   2
   4   4   2 20084.3 882.255   1
  -4  -4  -2 18834.4 970.008   4
   4   4   2 18544.4 1029.44  16
   4  -4   2 20100.3 1079.75   3
  -4  -4  -2 17517.1 1010.12  12
   4   4   2 17193.8 940.694   5
  -4  -4  -2 20328.8 1096.70  17
  -4  -4  -2 17916.3 941.598  11
  -4   4  -3 35563.8 1527.72   5
  -4   4  -3 35861.7 1299.86   2
   4   4   3 35647.3 1288.73   1
  -4  -4  -3 36218.1 1512.20  17
  -4  -4  -3 34643.9 1342.38   4
   4  -4   3 37629.8 1507.35   3
  -4  -4  -3 35398.7 1481.71  12
   4   4   3 35607.8 1363.04   5
  -4  -4  -3 36783.0 1416.65  11
  -4   4  -4 39522.4 1646.53   5
   4   4   4 38319.7 1438.99   1
   4   4   4 37748.5 1496.53  14
   4  -4   4 38361.0 1560.36  18
   4  -4   4 39733.2 1592.77   3
  -4  -4  -4 36131.5 1578.77  17
  -4  -4  -4 36069.9 1538.85  12
  -4   4  -4 36166.4 1406.33   2
  -4  -4  -4 36953.2 1488.72  11
  -4  -4  -5 2665.23 437.808  11
  -4   4  -5 1766.87 364.794   2
  -4   4  -5 2193.59 446.519   5
   4  -4   5 1955.21 384.076  18
  -4  -4  -5 1869.49 440.794  17
   4   4   5 2523.23 457.637   1
   4  -4   5 1948.74 393.365   3
  -4  -4  -5 2450.79 458.363  12
   4   4   5 2320.08 430.274  14
  -4   4  -6 59815.9 2115.90   5
  -4   4  -6 58831.3 2044.50   2
   4   4   6 61319.3 2050.51   1
  -4  -4  -6 58055.9 2198.07  17
   4   4   6 57214.2 1965.58  14
   4  -4   6 56699.1 2098.21  18
  -4  -4  -6 62161.4 2137.50  12
  -4  -4  -6 59335.1 2084.91  11
   4  -4   6 58278.0 2015.77   3
  -4  -4  -7 238.089 226.848  11
  -4   4  -7 460.863 212.968   5
   4  -4   7-3.83673 214.033  18
   4   4   7 5.68117 204.437  14
   4   4   7-59.2733 266.745   1
   4  -4   7 844.074 325.372  14
  -4   4  -7 311.631 230.599   2
   4  -4   7-122.352 211.424   3
  -4  -4  -7 525.164 368.396  12
  -4   4  -8 31983.1 1605.64   5
   4   4   8 29553.1 1604.50   1
  -4   4  -8 32627.7 1716.99   2
   4  -4   8 31429.1 1715.99  18
   4   4   8 28704.1 1492.64  14
   4  -4   8 30862.9 1533.08   3
  -4  -4  -8 30287.9 1609.95  12
  -4   4  -8 31761.9 1678.10  12
   4  -4   8 30707.8 1770.51  14
  -4  -4  -8 29645.5 1645.23  11
  -4  -4  -9 434.123 312.502  11
  -4   4  -9 154.125 224.255   5
  -4   4  -9 267.360 301.047   2
   4  -4   9-86.6971 280.590  18
   4   4   9 192.612 370.828   1
   4   4   9 12.1353 185.054  14
   4  -4   9-288.569 249.869  14
   4  -4   9-309.434 267.049   3
  -4   4  -9-283.101 346.147  12
  -4  -4  -9 104.761 226.105  12
   4   4  10 4915.05 795.416   1
   4  -4  10 4471.89 738.408  18
  -4   4 -10 4095.37 707.508   2
   4  -4  10 5757.75 839.131  14
   4   4  10 5774.47 744.032  14
  -4   4 -10 5458.98 764.251  12
  -4  -4 -10 4581.42 683.738  12
  -4  -4 -10 6052.65 837.207  11
  -4  -4 -11 2347.88 559.510  11
   4   4  11 1794.34 556.750   1
   4  -4  11 2168.73 549.606  14
   4  -4  11 1566.58 479.865  18
  -4   4 -11 2127.08 542.899   2
  -4   4 -11 2353.99 533.429  12
  -4  -4 -11 2169.31 523.948  12
  -4  -4 -12 3087.46 673.789  11
   4  -4  12 2783.24 647.575  18
   4   4  12 2714.30 703.061   1
  -4   4 -12 3238.34 677.774   2
   4  -4  12 2860.48 632.456  14
  -4   4 -12 4157.61 703.942  12
  -4  -4 -12 3240.11 604.062  12
  -4  -4 -13 238.637 309.144  11
   4  -4  13 88.0300 278.035  18
  -4   4 -13 135.471 208.018   2
   4   4  13-608.240 415.378   1
   4  -4  13 7.11507 269.914  14
  -4  -4 -13 33.4155 280.253   2
  -4  -4 -14 4675.22 873.079  11
   4   4  14 5430.73 924.859   1
  -4  -4 -14 4680.57 866.548   2
  -4   4 -14 4242.96 831.393   2
   4  -4  14 3842.08 765.567  18
   4  -4  14 3729.04 742.384  14
   4  -5 -17 3752.62 715.552  11
   4  -5 -17 3846.02 745.703  10
   4   5 -17 4523.72 809.573   9
  -4  -5  17 4119.39 811.510  17
  -4   5  17 3671.44 784.890   1
  -4  -5  17 4209.26 857.224  13
   4   5 -17 4164.57 805.036   2
  -4   5  17 4139.96 855.324  15
   4  -5 -16 1174.28 416.377  11
   4  -5 -16 902.533 443.885  10
   4   5 -16 817.485 425.401   9
   4   5 -16 1387.86 492.096   2
  -4  -5  16 315.312 307.233  17
  -4   5  16 537.294 303.666  15
  -4   5  16 1189.51 608.604   1
  -4  -5  16 1216.62 509.650  13
   4  -5 -15 7929.12 998.027  10
  -4   5  15 8441.95 1101.00   1
  -4  -5  15 8187.84 1056.54  17
  -4   5  15 5675.48 930.914  15
   4   5 -15 7504.01 992.500   9
  -4  -5  15 8199.12 1086.95  13
   4  -5 -15 7022.38 906.956  11
   4   5 -15 7250.11 993.843   2
   4  -5 -14 616.064 307.014  11
   4  -5 -14 1366.64 464.606  10
   4   5 -14 983.069 441.423   2
  -4   5  14 416.155 350.394  15
   4   5 -14 1403.37 497.329   9
  -4  -5  14 495.373 388.006  13
  -4   5  14 859.062 474.996   1
  -4  -5  14 311.247 242.610  17
  -4   5  13 4290.55 720.422   1
   4  -5 -13 4512.98 677.887  11
   4  -5 -13 5370.48 773.538  10
  -4  -5  13 4523.28 757.282  17
  -4   5  13 4882.32 812.919  15
   4   5 -13 5418.29 819.454   2
  -4  -5  13 5538.88 829.581  13
   4  -5 -12 6634.30 807.357  10
  -4  -5  12 8615.02 987.592  13
  -4   5  12 7268.74 921.770   1
  -4  -5  12 7673.51 925.965  17
  -4   5  12 7274.78 901.111  15
   4  -5 -12 9097.30 904.467  11
   4   5 -12 9157.81 1014.04   2
   4  -5 -11 5498.98 704.186  10
  -4  -5  11 5528.12 764.558  13
  -4  -5  11 4295.58 648.283  17
  -4   5  11 5328.31 726.424  15
  -4   5  11 4895.27 702.647   1
   4   5 -11 4983.55 608.936   5
   4  -5 -11 5181.69 659.889  11
   4   5 -11 5561.23 746.908   2
   4  -5 -10 10686.2 960.133  10
  -4   5  10 9997.75 967.148   1
  -4   5  10 11517.6 1037.07  15
  -4  -5  10 9878.63 943.658  17
  -4  -5  10 11188.2 1034.54  13
   4   5 -10 11165.8 896.269   5
   4  -5 -10 10900.9 906.296  11
   4   5 -10 11373.3 1008.14   2
   4  -5  -9 33714.5 1607.86  10
  -4  -5   9 33508.0 1704.43  13
  -4   5   9 32827.6 1668.80   1
  -4  -5   9 30003.8 1586.22  17
  -4   5   9 31357.5 1604.89  15
   4   5  -9 32145.8 1483.47   5
   4   5  -9 31090.4 1601.74   2
   4  -5  -9 30789.6 1440.14  11
   4  -5  -8 12704.5 962.258  10
   4  -5  -8 12446.2 807.193   3
  -4  -5   8 11436.2 967.843  17
  -4   5   8 13892.1 1013.01  15
  -4   5   8 14571.4 1108.96   1
  -4  -5   8 13939.2 1057.84  13
   4   5  -8 13808.2 959.889   5
   4   5  -8 13323.2 1018.45   2
   4  -5  -8 13602.8 914.708  11
   4  -5  -7 89551.5 2477.24  10
  -4   5   7 90447.6 2428.10  15
  -4  -5   7 91708.3 2541.65  17
   4  -5  -7 88731.9 2167.73   3
   4   5  -7 90019.9 1941.43   7
  -4   5   7 91524.9 2598.44   1
  -4  -5   7 90967.9 2578.97  13
   4   5  -7 88988.3 2423.77   5
   4   5  -7 89027.6 2494.82   2
   4  -5  -7 88502.3 2252.07  11
  -4   5   7 90897.5 2015.98   5
   4  -5  -6 11817.6 891.198  10
  -4  -5   6 10878.4 868.812  17
   4  -5  -6 11076.9 774.700   3
   4   5  -6 10692.2 688.466   7
  -4   5   6 11258.3 816.787  15
  -4   5   6 10238.8 879.693   1
  -4  -5   6 11265.6 881.665  13
   4   5  -6 13655.0 955.057   5
   4   5  -6 11307.1 878.651   2
   4  -5  -6 11039.5 776.329  11
  -4   5   6 10589.7 717.206   5
   4  -5  -5 37252.4 1548.61  10
  -4  -5   5 41301.5 1614.42  13
   4   5  -5 41501.1 1385.44   7
   4  -5  -5 42037.1 1518.06   3
  -4  -5   5 43891.1 1654.04  17
   4   5  -5 40943.5 1629.81   5
   4  -5  -5 43769.7 1484.94  11
  -4   5   5 41229.9 1447.93   5
  -4  -5   4 8923.54 683.163  11
   4  -5  -4 9517.97 795.587  10
  -4   5   4 9661.17 733.488   5
   4  -5  -4 8805.88 704.453   3
   4   5  -4 8909.47 681.982   7
  -4  -5   4 8944.66 754.592  17
  -4  -5   4 9378.86 757.544  13
   4   5  -4 10329.3 838.573   5
   4  -5  -4 8020.89 630.592  11
   4  -5  -3 1711.08 352.252   3
   4  -5  -3 1766.85 304.697  11
  -4  -5   3 1827.80 309.683  11
   4   5  -3 2222.61 471.704   5
   4  -5  -3 1393.10 325.282  10
  -4   5   3 2050.32 383.010   5
  -4   5   3 1675.68 308.603   8
  -4  -5   3 1978.52 382.834  17
  -4  -5   3 1611.20 323.663  13
   4  -5  -2 71.0774 120.663  11
   4   5  -2 445.232 294.658   5
  -4  -5   2 534.900 204.244  11
   4   5  -2 208.527 115.295   1
  -4  -5   2 126.426 177.084  17
  -4   5   2 85.9037 170.701   8
  -4   5   2 433.117 267.748   5
   4  -5  -2 491.849 250.376  10
  -4  -5   2 263.570 168.000  13
   4  -5  -2-86.5916 229.255   3
  -4   5   1 41290.4 1623.58   5
  -4   5   1 41311.4 1452.70   8
   4   5  -1 41232.7 1591.05  16
   4  -5  -1 42158.2 1439.51  11
  -4   5   1 43089.6 1117.86  16
   4  -5  -1 41325.7 1599.98   3
  -4  -5   1 41259.3 1481.29  13
   4   5  -1 41227.7 1092.43   1
  -4  -5   1 43321.0 1601.88  17
   4   5  -1 43266.5 1626.19   5
  -4  -5   1 44064.4 1487.16  11
  -4  -5   0 2526.95 386.074  11
   4   5   0 2406.86 423.380   5
  -4   5   0 2028.39 364.782   8
  -4   5   0 2139.61 412.989   5
   4   5   0 2083.59 392.345  16
  -4  -5   0 2450.22 401.847   4
   4   5   0 2229.44 274.372   1
  -4  -5   0 2100.09 400.875  17
  -4  -5   0 2939.59 436.073  13
   4  -5   0 3044.91 461.507   3
  -4   5   0 2408.06 290.496   2
  -4   5  -1 127412. 2953.94   5
   4   5   1 124644. 2845.34  16
   4   5   1 135260. 2269.98   1
  -4  -5  -1 123333. 2715.44   4
  -4  -5  -1 127567. 2831.14  17
   4  -5   1 131512. 2930.59   3
   4   5   1 126451. 2721.76   5
  -4  -5  -1 127975. 2645.00  11
  -4   5  -1 125358. 2204.86   2
  -4   5  -2 3199.30 395.805   2
   4   5   2 3289.72 449.814   1
   4   5   2 3808.57 512.606   5
  -4  -5  -2 4073.21 551.143  17
   4   5   2 4768.57 591.963  16
  -4  -5  -2 4649.02 565.947   4
   4  -5   2 3278.77 515.407   3
  -4   5  -2 4428.81 590.080   5
  -4  -5  -2 3537.19 540.940  12
  -4  -5  -2 3936.93 501.066  11
  -4   5  -3 71343.4 2323.29   5
  -4   5  -3 65605.3 1853.58   2
   4   5   3 66002.8 1848.13   1
  -4  -5  -3 70031.6 2254.97  17
  -4  -5  -3 66202.8 2052.67   4
   4   5   3 70369.9 2252.41  16
   4  -5   3 67510.5 2200.53   3
  -4  -5  -3 66599.9 2168.32  12
   4   5   3 68415.7 2000.49   5
  -4  -5  -3 69025.8 2077.21  11
  -4   5  -4 14454.0 1073.57   5
  -4  -5  -4 12533.9 1013.71  17
   4   5   4 15432.9 944.259   1
  -4   5  -4 14479.2 928.997   2
   4  -5   4 13618.5 1009.57   3
  -4  -5  -4 14942.1 1054.75  12
   4   5   4 13496.2 898.007   5
  -4  -5  -4 13797.5 976.560  11
  -4   5  -5 13893.7 1083.15   5
  -4   5  -5 14390.1 989.812   2
   4   5   5 15324.6 1026.48   1
   4  -5   5 15680.6 1107.07   3
  -4  -5  -5 15208.2 1151.76  17
  -4  -5  -5 15235.8 1093.56  12
  -4  -5  -5 13577.9 1019.64  11
  -4   5  -6 7366.00 760.451   2
   4   5   6 8110.06 803.180   1
   4  -5   6 8661.29 844.492   3
  -4  -5  -6 9328.64 943.680  17
  -4  -5  -6 9522.02 910.420  12
  -4  -5  -6 8084.33 833.266  11
  -4   5  -6 9289.45 896.746   5
  -4  -5  -7 3208.21 550.072  11
  -4   5  -7 3110.37 543.033   5
   4  -5   7 2540.72 495.463   3
  -4  -5  -7 2922.22 597.460  17
  -4   5  -7 3694.32 582.886   2
   4   5   7 2894.06 554.345   1
  -4  -5  -7 2991.59 550.611  12
  -4  -5  -8 4680.02 703.322  11
   4  -5   8 3843.38 692.059  14
  -4   5  -8 4753.20 685.103   2
   4  -5   8 5426.00 706.809   3
   4  -5   8 5189.97 743.833  18
   4   5   8 4401.39 692.256   1
  -4  -5  -8 5519.52 755.236  12
  -4   5  -8 5167.76 694.700   5
  -4   5  -9 7766.34 919.050   2
   4   5   9 7987.60 953.672   1
  -4   5  -9 7270.19 843.120   5
   4  -5   9 7250.98 890.244  18
   4  -5   9 7370.90 838.048   3
   4  -5   9 7803.79 1014.16  14
  -4  -5  -9 7639.42 878.206  12
  -4  -5  -9 7760.87 916.309  11
  -4  -5 -10 3991.99 685.692  11
  -4   5 -10 4103.87 664.886   5
   4   5  10 4482.20 754.663   1
  -4   5 -10 4067.03 702.750   2
   4  -5  10 4131.22 727.058  14
   4  -5  10 4037.08 726.100  18
   4  -5  10 3529.48 616.153   3
  -4   5 -10 3324.94 619.957  12
  -4  -5 -10 4474.09 703.604  12
  -4   5 -11 10984.7 1126.15  12
   4   5  11 10626.7 1167.29   1
  -4   5 -11 10946.9 1178.70   2
   4  -5  11 10161.8 1172.41  14
   4  -5  11 11329.5 1215.06  18
  -4  -5 -11 13103.8 1213.86  12
  -4  -5 -11 11094.1 1176.41  11
  -4  -5 -12 2908.56 655.898  11
   4   5  12 1547.51 524.622   1
   4  -5  12 1800.89 507.231  18
  -4   5 -12 2216.39 588.574   2
   4  -5  12 2745.58 662.729  14
  -4   5 -12 1600.12 485.138  12
  -4  -5 -12 2173.50 526.989  12
  -4   5 -13 9144.52 1160.75   2
   4   5  13 7795.63 1103.31   1
   4  -5  13 7411.34 1065.90  18
   4  -5  13 6687.54 1011.89  14
  -4  -5 -13 7325.89 1067.34   2
  -4  -5 -13 7847.48 1078.74  11
   4  -6 -17 2933.57 667.672  11
   4  -6 -16 2693.75 629.877  11
   4  -6 -16 3023.49 651.121  10
   4   6 -16 3214.31 718.997   2
   4   6 -16 3269.63 744.689   9
  -4  -6  16 3164.95 734.650  17
  -4   6  16 3200.32 742.611  15
  -4   6  16 3916.14 880.695   1
  -4  -6  16 2917.27 725.423  13
   4  -6 -15 926.661 380.681  11
   4   6 -15 2080.25 598.842   9
   4  -6 -15 865.199 399.239  10
  -4  -6  15 326.353 252.882  17
   4   6 -15 732.606 410.216   2
  -4   6  15 72.2109 299.531  15
  -4   6  15 977.905 513.682   1
  -4  -6  15 1005.73 485.738  13
   4  -6 -14 9320.29 1035.93  10
  -4   6  14 9014.19 1171.13   1
  -4  -6  14 8618.09 1066.04  17
  -4   6  14 10393.1 1224.70  15
  -4  -6  14 9654.30 1172.17  13
   4  -6 -14 9487.58 1050.17  11
   4   6 -14 9498.09 1146.86   2
  -4   6  13 6950.87 966.256   1
   4  -6 -13 6510.32 853.590  10
  -4  -6  13 6435.35 884.319  17
  -4   6  13 7379.14 1010.54  15
  -4  -6  13 7432.15 985.618  13
   4  -6 -13 6949.47 880.150  11
   4   6 -13 6427.49 905.316   2
   4  -6 -12 12521.3 1131.19  10
  -4   6  12 12835.5 1251.73  15
  -4  -6  12 13133.8 1279.90  13
  -4   6  12 12569.3 1226.45   1
  -4  -6  12 11684.5 1149.21  17
   4  -6 -12 12128.7 1107.44  11
   4   6 -12 10481.6 1107.07   2
   4  -6 -11-125.783 247.684  11
   4   6 -11 31.1281 232.076   5
   4  -6 -11-233.082 256.602  10
  -4  -6  11 370.422 261.839  17
  -4   6  11-144.349 303.785  15
  -4   6  11 157.173 334.139   1
   4   6 -11-208.874 249.578   2
  -4  -6  11 123.840 247.166  13
   4  -6 -10 12700.9 1089.53  10
  -4   6  10 13110.3 1149.39  15
  -4  -6  10 13432.4 1141.14  17
  -4  -6  10 14768.5 1231.84  13
  -4   6  10 12714.3 1198.88   1
   4   6 -10 13920.5 1081.62   5
   4   6 -10 11645.1 1080.83   2
   4  -6 -10 14816.6 1120.08  11
  -4   6   9 3547.53 692.195   1
   4   6  -9 3436.20 587.577   5
   4  -6  -9 3362.96 559.270  10
  -4   6   9 2242.71 449.484  15
  -4  -6   9 3537.17 600.919  17
   4   6  -9 3399.18 589.967   2
  -4  -6   9 3070.32 581.885  13
   4  -6  -9 4922.26 651.113  11
   4  -6  -8 31462.3 1590.41  10
  -4  -6   8 32101.7 1625.00  17
  -4   6   8 35066.4 1773.32   1
   4  -6  -8 33262.1 1388.28   3
  -4  -6   8 32763.0 1686.37  13
   4   6  -8 31087.7 1578.64   5
   4   6  -8 33285.4 1699.56   2
   4  -6  -8 35679.3 1606.13  11
   4  -6  -7 3307.25 480.473  11
   4   6  -7 3442.77 569.084   5
  -4   6   7 3694.65 599.156   1
  -4   6   7 3079.31 422.460   5
   4  -6  -7 3569.84 544.690  10
  -4  -6   7 3646.28 556.143  17
   4   6  -7 3401.31 581.080   2
   4  -6  -7 3014.73 439.268   3
  -4  -6   7 4498.45 617.352  13
   4  -6  -6 41776.4 1755.78  10
   4  -6  -6 39742.4 1559.44   3
  -4   6   6 41687.2 1908.59   1
  -4  -6   6 45438.4 1850.31  13
  -4  -6   6 40333.4 1724.85  17
   4   6  -6 43041.7 1461.19   7
   4   6  -6 39939.1 1757.49   5
  -4   6   6 43425.8 1592.91   5
   4  -6  -6 41286.9 1628.15  11
   4   6  -5 3666.74 579.314   5
   4  -6  -5 3070.69 447.927  11
  -4   6   5 3247.33 460.451   5
   4  -6  -5 3418.55 505.688  10
  -4  -6   5 3057.49 488.901  17
   4   6  -5 3790.15 480.959   7
   4  -6  -5 3453.95 487.632   3
  -4  -6   5 4059.69 545.572  13
   4  -6  -4 39270.3 1662.13  10
  -4  -6   4 37738.1 1615.14  17
  -4  -6   4 37011.4 1574.82  13
   4   6  -4 36131.7 1428.53   7
  -4  -6   4 39438.3 1571.63  11
   4  -6  -4 38084.3 1556.68   3
   4   6  -4 36486.7 1643.52   5
   4  -6  -4 37783.1 1505.27  11
  -4   6   4 35107.4 1510.41   5
   4  -6  -3 6934.27 706.628  10
  -4  -6   3 6983.87 690.908  17
   4  -6  -3 6943.88 685.110   3
  -4   6   3 7430.98 626.077   8
  -4  -6   3 5838.07 629.972  13
   4   6  -3 6772.23 755.125   5
   4  -6  -3 6403.88 629.943  11
  -4   6   3 6351.74 663.167   5
  -4  -6   3 7168.20 680.788  11
   4  -6  -2 15459.1 1056.26  10
   4  -6  -2 16005.9 1064.84   3
  -4  -6   2 15224.2 1025.64  17
  -4   6   2 16206.2 843.258  16
   4   6  -2 16971.8 1129.83   5
  -4  -6   2 16228.0 1012.23  13
  -4   6   2 15543.8 926.664   8
  -4  -6   2 15267.0 971.214  11
  -4   6   2 14485.8 1028.70   5
   4  -6  -2 15742.0 971.132  11
   4   6  -1 21493.4 905.225   1
  -4  -6   1 21252.3 1243.09   4
   4   6  -1 22390.7 1286.83   5
   4   6  -1 23464.0 1316.09  16
  -4  -6   1 21828.8 1151.70  13
  -4  -6   1 22515.9 1243.86  17
   4  -6  -1 21768.7 1141.53  11
  -4   6   1 20757.5 1099.41   8
   4  -6  -1 22534.4 1263.27   3
  -4  -6   1 23037.1 1195.28  11
  -4   6   1 20665.0 1242.40   5
   4  -6   0 10343.9 814.910  11
   4   6   0 11450.9 694.475   1
  -4  -6   0 10434.7 877.958   4
  -4  -6   0 10490.7 859.168  17
   4   6   0 11311.2 943.748  16
  -4  -6   0 12466.5 872.005  13
  -4   6   0 10949.5 825.934   8
   4  -6   0 10117.9 875.055   3
   4   6   0 11462.6 934.290   5
  -4   6   0 10628.9 663.195   2
  -4  -6   0 10948.2 843.232  11
  -4   6   0 10224.5 912.076   5
   4  -6   1 5166.06 658.035   3
   4   6   1 5236.31 524.532   1
  -4  -6  -1 4811.52 602.179  17
  -4  -6  -1 6364.49 633.251  13
  -4  -6  -1 5378.57 654.227   4
   4   6   1 6679.80 734.419  16
   4   6   1 6131.94 709.424   5
  -4   6  -1 5687.72 521.127   2
  -4  -6  -1 6656.15 692.897  11
  -4   6  -1 5875.96 726.087   5
   4   6   2 42288.3 1852.97  16
   4  -6   2 37826.5 1724.63   3
  -4  -6  -2 38063.9 1702.95  17
   4   6   2 39537.9 1431.93   1
   4   6   2 37565.6 1618.05   5
  -4  -6  -2 35970.4 1635.30   4
  -4   6  -2 36378.2 1377.78   2
  -4  -6  -2 38078.5 1637.52  11
  -4   6  -2 38313.3 1789.03   5
  -4  -6  -3 10833.0 921.485   4
  -4  -6  -3 12304.7 1008.78  17
   4   6   3 13826.1 1085.39  16
   4   6   3 12198.6 870.785   1
   4  -6   3 12540.8 1041.12   3
   4   6   3 13265.8 956.235   5
  -4  -6  -3 12034.9 952.465  11
  -4   6  -3 11956.6 843.156   2
  -4   6  -3 13932.4 1106.55   5
  -4   6  -4 25981.3 1316.71   2
   4   6   4 26661.4 1317.98   1
  -4  -6  -4 26247.0 1517.52  17
   4   6   4 26610.3 1548.52  16
   4  -6   4 26213.8 1495.34   3
   4   6   4 25889.7 1336.68   5
  -4  -6  -4 25904.4 1431.80  11
  -4   6  -4 27536.3 1569.38   5
  -4  -6  -5 2499.61 506.331  11
  -4   6  -5 2973.18 491.513   2
  -4   6  -5 2296.26 532.370   5
  -4  -6  -5 2853.28 572.284  17
   4   6   5 3362.67 544.228   1
   4  -6   5 2743.74 542.315   3
   4   6   5 2916.18 482.410   5
  -4   6  -6 12950.2 1037.26   2
   4   6   6 11166.4 1018.07   1
   4  -6   6 10219.7 986.952   3
  -4  -6  -6 12284.8 1122.05  17
  -4  -6  -6 12690.7 1088.45  11
  -4   6  -6 13060.7 1133.30   5
  -4  -6  -7 1575.31 453.100  11
  -4   6  -7 905.029 370.069   5
  -4  -6  -7 1002.73 403.382  17
  -4   6  -7 807.060 301.878   2
   4  -6   7 802.514 358.693   3
   4   6   7 1770.58 479.082   1
  -4   6  -8 8500.69 917.514   2
   4   6   8 7178.46 880.719   1
   4  -6   8 7096.21 860.557   3
  -4  -6  -8 8426.87 962.316  11
  -4   6  -8 6591.10 845.112   5
  -4  -6  -9 679.931 419.234  11
  -4   6  -9 331.886 291.354   5
   4   6   9 424.687 378.632   1
   4  -6   9 587.133 303.051   3
  -4   6  -9 575.442 292.021   2
   4  -6   9-46.6189 348.571  14
  -4   6 -10 9567.53 1089.29   2
   4   6  10 10156.4 1111.60   1
   4  -6  10 10848.0 1257.85  14
   4  -6  10 10112.2 1066.64   3
  -4   6 -10 8651.76 1021.18  12
  -4  -6 -10 11505.1 1202.66  11
  -4   6 -10 9809.28 1060.02   5
  -4  -6 -11 1073.13 446.831  11
   4   6  11 1648.13 570.291   1
   4  -6  11 530.914 304.734   3
  -4   6 -11 1315.85 489.166   2
   4  -6  11 1217.92 448.604  14
  -4   6 -11 325.177 215.291  12
  -4   6 -12 9357.13 1156.66   2
   4   6  12 8910.72 1167.72   1
  -4   6 -12 11291.8 1201.58  12
   4  -6  12 9633.86 1210.90  14
  -4  -6 -12 9704.63 1204.21  11
  -4  -6 -13 250.737 277.049  11
   4   6  13 115.150 311.258   1
  -4   6 -13-314.612 399.474   2
   4  -6  13 837.587 497.832  14
   4  -7 -16 603.954 370.125  11
  -4  -7  16 37.3021 245.959  17
   4  -7 -15 5656.39 893.486  11
   4  -7 -15 5389.49 854.225  10
  -4  -7  15 6014.46 940.321  17
   4   7 -15 4832.40 873.595   2
  -4  -7  15 5252.90 931.553  13
  -4   7  15 7238.79 1079.11   1
   4  -7 -14 927.924 396.017  11
  -4  -7  14 62.7842 261.875  17
   4  -7 -14 80.0920 242.694  10
  -4  -7  14 492.735 378.453  13
   4   7 -14 237.507 256.011   2
  -4   7  14 651.393 484.005   1
   4  -7 -13 8052.57 973.129  10
  -4   7  13 8359.01 1093.23   1
  -4  -7  13 10646.9 1242.74  13
  -4  -7  13 7469.91 973.577  17
   4   7 -13 7215.78 993.492   2
   4  -7 -13 9022.63 1037.10  11
   4  -7 -12 618.187 351.974  11
   4  -7 -12 502.885 309.063  10
  -4  -7  12 594.798 279.403  17
   4   7 -12 587.055 323.708   2
  -4   7  12 201.824 352.235   1
  -4  -7  12 689.713 350.267  13
   4  -7 -11 9874.89 1029.44  10
  -4  -7  11 9112.07 1001.74  17
  -4   7  11 8610.34 992.937   1
  -4  -7  11 10468.6 1139.19  13
   4   7 -11 10209.3 1038.10   5
   4   7 -11 9819.17 1088.72   2
   4  -7 -11 9763.43 1019.60  11
   4  -7 -10 759.727 334.879  11
   4   7 -10 334.454 317.601   5
   4  -7 -10 612.640 347.512  10
   4   7 -10 381.522 334.453   2
  -4  -7  10 591.421 314.079  17
  -4  -7  10 618.110 359.556  13
  -4   7  10 1030.71 454.704   1
   4   7  -9 4854.13 724.069   5
  -4   7   9 6435.69 868.043   1
   4  -7  -9 4468.79 672.885  10
  -4  -7   9 5630.86 760.887  17
   4   7  -9 4562.64 704.806   2
  -4  -7   9 5393.32 782.150  13
   4  -7  -9 6374.11 769.957  11
   4  -7  -8 1509.48 405.161  11
   4   7  -8 1722.95 468.006   5
   4  -7  -8 1635.55 408.709  10
  -4  -7   8 2262.58 507.735  17
  -4   7   8 2111.56 521.244   1
  -4  -7   8 1069.63 349.619  13
   4   7  -8 1701.65 436.331   2
   4  -7  -7 3432.92 546.454  11
   4   7  -7 4335.89 688.616   5
  -4   7   7 2600.87 568.908   1
   4  -7  -7 3823.62 578.183  10
  -4  -7   7 2564.06 487.365  17
   4  -7  -7 3571.83 499.173   3
  -4  -7   7 3561.24 581.946  13
   4  -7  -6 362.080 202.813  11
   4   7  -6 927.291 373.472   5
  -4   7   6 340.912 226.618   5
   4  -7  -6 169.649 188.717  10
  -4  -7   6 489.266 263.281  17
   4  -7  -6 77.7771 154.069   3
  -4  -7   6 461.979 314.307  13
  -4   7   6-232.335 364.060   1
   4  -7  -5 24992.1 1439.54  10
   4  -7  -5 26467.2 1372.28   3
   4   7  -5 26071.4 1261.04   7
  -4   7   5 25436.1 1225.44   8
  -4  -7   5 27130.5 1468.16  13
  -4  -7   5 25724.7 1432.15  17
   4   7  -5 25946.0 1536.61   5
  -4   7   5 26942.3 1418.90   5
   4  -7  -5 27960.7 1440.99  11
  -4  -7   4 147.547 207.679  13
   4  -7  -4-25.5789 193.126  11
   4   7  -4-73.6013 298.052   5
  -4   7   4-192.188 260.276   5
  -4  -7   4 398.458 267.684  17
  -4   7   4-109.022 184.476   8
  -4  -7   4 155.750 183.461  11
   4   7  -4 623.647 315.323   7
   4  -7  -4 211.844 250.563  10
   4  -7  -4 167.667 201.471   3
   4  -7  -3 86970.9 2614.28  10
  -4  -7   3 82220.0 2485.20  17
  -4   7   3 87368.0 2235.84  16
  -4  -7   3 88241.3 2509.61  13
  -4   7   3 82237.8 2193.79   8
  -4  -7   3 82316.5 2635.00   4
   4  -7  -3 80689.9 2462.20   3
   4   7  -3 82239.7 2649.08   5
  -4   7   3 84071.9 2597.08   5
   4  -7  -3 87025.9 2491.53  11
  -4  -7   3 84012.9 2494.89  11
  -4  -7   2-329.209 272.851  11
   4  -7  -2 385.134 239.700  11
   4   7  -2 213.950 323.717   5
  -4   7   2-36.9704 260.547   5
  -4   7   2 78.0957 160.647   8
  -4  -7   2 111.432 196.132  17
  -4  -7   2 74.3064 282.019   4
  -4  -7   2 105.012 174.205  13
   4  -7  -2-317.967 253.684   3
   4  -7  -1 50452.4 1920.42  11
  -4  -7   1 48218.2 1984.36   4
  -4   7   1 44820.6 1680.88   8
   4   7  -1 47618.4 2008.73  16
   4  -7  -1 45688.2 1916.95   3
  -4  -7   1 47263.0 1781.14  13
   4   7  -1 46029.4 1978.12   5
  -4  -7   1 46315.3 1879.68  17
  -4   7   1 46531.8 2028.54   5
  -4  -7   1 48772.9 1909.88  11
  -4  -7   0 2755.76 500.153  11
   4   7   0 2772.49 537.988   5
   4  -7   0 2244.63 444.485  11
  -4   7   0 1872.56 454.777   5
  -4  -7   0 1928.20 443.588   4
   4   7   0 1863.98 466.279  16
   4  -7   0 2777.38 555.912   3
  -4  -7   0 2115.58 397.563  13
  -4  -7   0 2006.42 424.406  17
  -4  -7  -1 918.225 331.590   4
  -4  -7  -1 907.216 303.166  11
   4   7   1 1450.17 399.564   5
   4   7   1 433.856 302.767  16
  -4   7  -1 449.169 279.694   5
   4   7   1 868.608 235.112   1
  -4  -7  -1 752.108 327.241  17
  -4   7  -1 1004.53 254.061   2
  -4  -7  -1 589.916 260.215  13
   4  -7   1 1125.18 390.624   3
  -4  -7  -2 4524.63 633.856  11
   4   7   2 4337.95 640.472   5
  -4   7  -2 4332.06 657.599   5
  -4  -7  -2 4505.41 560.779  13
   4   7   2 3883.77 518.077   1
  -4  -7  -2 5058.50 680.190  17
  -4  -7  -2 5306.41 687.918   4
   4   7   2 5390.46 727.765  16
   4  -7   2 4294.48 658.948   3
  -4   7  -2 4594.27 538.329   2
  -4  -7  -3 3310.26 561.933  11
   4   7   3 2987.68 518.534   5
   4   7   3 2905.10 473.162   1
  -4  -7  -3 3036.37 481.325  13
  -4   7  -3 2525.29 554.225   5
   4   7   3 3753.72 643.341  16
  -4  -7  -3 2957.36 527.664  17
  -4   7  -3 3102.45 466.237   2
   4  -7   3 2927.69 536.679   3
   4   7   4 7091.87 751.975   1
   4   7   4 9472.06 1020.30  16
  -4  -7  -4 6715.23 824.473  17
   4  -7   4 7675.19 900.248   3
   4   7   4 7197.36 763.034   5
  -4  -7  -4 6067.31 755.531  11
  -4   7  -4 6837.67 716.507   2
  -4   7  -4 7113.30 867.224   5
   4   7   5 35662.6 1693.25   1
  -4  -7  -5 30730.6 1777.69  17
   4   7   5 34853.4 1925.59  16
   4  -7   5 29477.1 1741.73   3
   4   7   5 31206.6 1575.04   5
  -4  -7  -5 34879.6 1836.18  11
  -4   7  -5 33510.3 1660.88   2
  -4   7  -5 34806.2 1900.59   5
   4   7   6 8629.92 927.720   1
  -4   7  -6 6844.09 878.441   5
  -4  -7  -6 9465.18 1023.66  17
   4  -7   6 8449.55 967.711   3
  -4  -7  -6 9785.00 1025.16  11
  -4   7  -6 8602.00 898.870   2
   4  -7   7 32030.5 1884.33   3
   4   7   7 32164.7 1785.87   1
  -4  -7  -7 29642.4 1868.30  17
  -4  -7  -7 32984.5 1899.26  11
  -4   7  -7 29671.0 1840.26   5
  -4   7  -7 34135.0 1833.61   2
  -4  -7  -8 5229.65 824.325  11
  -4   7  -8 5490.25 820.931   5
  -4   7  -8 4952.32 729.378   2
   4   7   8 5396.58 791.251   1
   4  -7   8 4668.47 751.212   3
  -4   7  -9 8611.74 1011.36   2
   4   7   9 9443.35 1076.13   1
   4  -7   9 6839.97 912.871   3
  -4  -7  -9 9235.27 1088.13  11
  -4   7  -9 9435.63 1076.94   5
  -4  -7 -10 2014.06 565.719  11
  -4   7 -10 1998.88 540.664   5
  -4   7 -10 2036.29 496.278   2
   4   7  10 2298.45 611.091   1
   4  -7  10 1840.00 532.206  14
   4  -7  10 2110.23 520.079   3
  -4  -7 -11 505.292 445.299  11
   4   7  11 929.636 483.999   1
  -4   7 -11 253.222 252.626   2
  -4   7 -11 57.0891 283.172  12
   4  -7  11 5.07035 237.664   3
   4  -7  11 334.796 325.710  14
  -4  -7 -12 829.392 391.097  11
  -4   7 -12 868.201 400.986   2
   4  -7  12 1517.28 508.740  14
  -4   7 -12 341.771 297.003  12
   4   7  12 1261.81 535.064   1
   4  -8 -15 88.4944 222.574  11
  -4  -8  15 243.461 257.930  17
  -4   8  14 303.546 475.008   1
   4  -8 -14 518.651 281.959  11
   4   8 -14 552.906 388.851   2
  -4  -8  14 713.548 354.036  17
  -4  -8  14 1124.59 513.646  13
   4  -8 -13 377.130 306.269  11
  -4   8  13 218.935 372.585   1
  -4  -8  13 315.571 306.788  13
   4   8 -13 259.408 358.411   2
  -4  -8  13 347.330 226.341  17
   4  -8 -12 7307.99 936.480  10
  -4  -8  12 6901.33 1014.30  13
  -4   8  12 5129.90 884.943   1
  -4  -8  12 8308.37 1030.60  17
   4   8 -12 7725.09 1055.76   2
   4  -8 -12 8261.70 1014.85  11
   4  -8 -11 1311.82 419.022  11
   4   8 -11 1314.21 469.832   5
   4  -8 -11 617.911 352.101  10
  -4  -8  11 871.706 369.303  17
  -4   8  11 466.232 459.075   1
   4   8 -11 1473.73 518.198   2
  -4  -8  11 1036.81 428.991  13
   4  -8 -10 33679.0 1878.59  10
  -4   8  10 33942.6 2059.09   1
  -4  -8  10 34688.7 2043.29  13
  -4  -8  10 33151.6 1908.59  17
   4   8 -10 33230.5 1939.02   5
   4   8 -10 34630.1 2058.68   2
   4  -8 -10 35085.5 1931.71  11
   4  -8  -9 1830.60 492.193  11
   4   8  -9 2256.96 590.557   5
  -4   8   9 2728.92 634.622   1
  -4  -8   9 1175.06 427.314  13
   4  -8  -9 1380.28 441.419  10
  -4  -8   9 1595.49 455.263  17
   4   8  -9 1763.40 526.776   2
   4  -8  -8 18094.0 1331.37  10
  -4  -8   8 20356.5 1463.54  13
  -4   8   8 17326.0 1450.27   1
  -4  -8   8 17912.0 1347.13  17
   4   8  -8 18365.0 1433.12   5
   4  -8  -8 20048.2 1392.77  11
   4  -8  -7 1562.45 379.607  11
   4   8  -7 2466.97 579.601   5
   4  -8  -7 1883.30 454.874  10
  -4   8   7 1138.36 484.235   1
  -4  -8   7 2100.50 475.541  17
  -4  -8   7 2195.06 506.110  13
   4  -8  -6 1110.76 382.489  11
   4   8  -6 489.993 375.574   5
  -4   8   6 999.063 339.672   5
   4  -8  -6 1196.81 382.765  10
  -4   8   6 159.575 309.615   1
  -4  -8   6 760.485 322.983  17
   4  -8  -6 1269.05 393.786   3
  -4  -8   6 564.885 284.497  13
   4  -8  -5 8944.82 909.760  10
  -4  -8   5 7755.57 907.441   4
   4  -8  -5 7553.67 790.997   3
  -4  -8   5 7527.84 824.947  17
  -4  -8   5 9528.05 928.081  13
   4   8  -5 8523.01 976.355   5
  -4   8   5 9356.27 909.022   5
   4  -8  -5 9110.45 898.990  11
  -4  -8   4 3053.37 567.251  11
   4   8  -4 4197.32 714.278   5
  -4   8   4 4187.36 657.862   5
   4  -8  -4 3961.04 634.488  10
   4   8  -4 4642.89 644.303   7
   4  -8  -4 3709.32 576.826  11
  -4  -8   4 4046.13 661.610   4
  -4  -8   4 2865.01 539.499  17
  -4  -8   4 4180.82 596.680  13
   4  -8  -4 2809.50 512.633   3
  -4   8   4 3485.07 521.506  16
   4  -8  -3 4308.05 620.121  11
  -4  -8   3 4075.99 638.788  11
   4   8  -3 4499.87 719.971   5
  -4   8   3 4167.96 641.595   5
  -4  -8   3 4233.50 617.508  17
  -4  -8   3 5063.65 715.163   4
   4  -8  -3 4108.11 627.765   3
  -4  -8   3 4585.40 611.350  13
   4  -8  -2 27325.4 1536.37  11
  -4  -8   2 24387.7 1448.77  17
  -4  -8   2 29466.4 1687.46   4
   4  -8  -2 26505.7 1536.21   3
  -4  -8   2 27411.4 1458.02  13
   4   8  -2 24779.3 1580.02   5
  -4   8   2 25691.1 1581.13   5
  -4  -8   2 26579.1 1544.78  11
  -4  -8   1 2844.72 541.730  11
   4  -8  -1 2494.84 498.150  11
   4   8  -1 2309.47 548.440   5
  -4   8   1 1630.48 453.028   5
  -4  -8   1 2881.67 609.690   4
  -4  -8   1 2857.70 517.292  17
  -4  -8   1 2141.98 417.053  13
   4  -8  -1 2212.52 492.501   3
   4  -8   0 32326.1 1695.11  11
   4   8   0 30801.3 1775.85  16
  -4  -8   0 29219.7 1608.60  17
  -4  -8   0 32282.4 1784.76   4
   4  -8   0 26856.8 1612.78   3
  -4  -8   0 32778.2 1549.28  13
   4   8   0 30311.3 1709.75   5
  -4   8   0 29179.2 1749.87   5
  -4  -8   0 30953.0 1670.46  11
  -4  -8  -1 274.275 291.890  11
   4   8   1-64.2610 307.553   5
  -4   8  -1 270.953 278.932   5
   4   8   1 110.243 255.191  16
  -4  -8  -1 162.865 144.833  13
  -4  -8  -1 359.325 291.048   4
   4  -8   1 478.313 332.733   3
  -4  -8  -1 349.895 248.263  17
   4   8   2 23235.3 1566.85  16
  -4  -8  -2 22465.4 1506.62   4
  -4  -8  -2 19673.6 1382.58  17
   4  -8   2 20621.4 1471.26   3
  -4  -8  -2 22791.4 1294.63  13
   4   8   2 21416.3 1419.80   5
  -4   8  -2 23713.9 1639.54   5
  -4  -8  -2 23192.2 1489.00  11
  -4  -8  -3 75.4086 285.790  11
   4   8   3-225.536 304.597   5
  -4   8  -3-388.176 412.786   5
  -4  -8  -3 127.157 244.645  17
   4   8   3-62.1565 293.083  16
   4  -8   3 20.1006 319.056   3
  -4  -8  -3 25.8616 150.521  13
   4   8   4 14710.6 1090.96   1
   4   8   4 16067.2 1369.67  16
   4  -8   4 15271.4 1306.91   3
  -4  -8  -4 16148.6 1299.25  17
   4   8   4 15475.8 1206.87   5
  -4   8  -4 16213.2 1148.99   2
  -4  -8  -4 14397.6 1245.68  11
  -4   8  -4 14047.9 1312.66   5
  -4  -8  -5 222.119 292.805  11
   4   8   5 177.659 224.854   5
  -4   8  -5 238.265 332.075   5
   4   8   5 939.221 460.452  16
  -4   8  -5 211.767 182.669   2
  -4  -8  -5 374.746 217.654  17
   4  -8   5 587.054 345.354   3
   4   8   5 465.132 304.107   1
  -4  -8  -6 1949.83 531.128  11
  -4   8  -6 2269.79 669.770   5
   4   8   6 2631.45 605.841  16
   4   8   6 2347.96 539.368   1
  -4   8  -6 2567.06 539.674   2
   4  -8   6 1379.85 450.925   3
  -4  -8  -6 1430.61 438.932  17
  -4  -8  -7-11.6486 216.840  11
  -4   8  -7 760.372 439.886   5
   4  -8   7 30.6018 232.633   3
   4   8   7 460.820 348.219  16
  -4  -8  -7 199.923 343.789  17
   4   8   7-97.2028 303.204   1
  -4   8  -7-29.0271 197.643   2
  -4  -8  -8 1719.94 559.927  11
  -4   8  -8 1301.34 477.254   5
  -4   8  -8 1735.28 487.561   2
   4   8   8 2250.86 647.965  16
   4   8   8 2438.15 606.388   1
   4  -8   8 1280.64 452.270   3
  -4  -8  -9 23.1639 224.133  11
  -4   8  -9 885.916 434.489   5
   4   8   9 621.268 409.106   1
  -4   8  -9 558.845 377.585   2
   4  -8   9 144.086 233.147   3
   4  -8  10 7946.21 1109.45  14
   4   8  10 5780.92 879.246   1
  -4   8 -10 5907.19 898.143   2
   4  -8  10 7975.72 1055.32   3
  -4  -8 -10 8209.51 1105.13  11
  -4   8 -10 7732.15 1051.60   5
   4   8  11 664.274 474.683   1
  -4   8 -11 67.1671 216.261   2
  -4  -8 -11 1231.32 541.233  11
   4  -8  11 481.488 318.910   3
   4  -9 -13 3435.40 726.891  11
  -4  -9  13 2967.50 648.132  17
  -4  -9  13 2994.45 716.857  13
   4  -9 -12 553.697 377.553  11
   4   9 -12 446.032 315.304   5
  -4  -9  12-344.333 305.924  17
  -4   9  12-435.627 512.204   1
  -4  -9  12 602.462 406.936  13
   4   9 -12-83.3421 246.058   2
   4  -9 -11 2734.77 629.855  11
   4   9 -11 2576.12 613.761   5
  -4  -9  11 2063.88 521.600  17
  -4  -9  11 2897.37 695.388  13
  -4   9  11 2935.18 732.251   1
   4  -9 -10 91.0330 271.743  11
   4   9 -10 560.327 367.490   5
   4  -9 -10 92.1995 242.096  10
  -4  -9  10 520.953 297.150  17
  -4  -9  10-5.14993 221.335  13
  -4   9  10 919.327 519.924   1
   4  -9  -9 7896.98 944.121  10
  -4  -9   9 7670.27 950.100  17
  -4   9   9 9238.30 1133.49   1
  -4  -9   9 11517.4 1193.02  13
   4   9  -9 8720.48 1081.59   5
   4  -9  -9 8900.50 1022.66  11
   4   9  -8 1123.61 487.539   5
   4  -9  -8 221.150 224.648  10
  -4  -9   8 135.694 217.878   4
  -4   9   8 375.844 321.549   1
  -4  -9   8 100.707 247.107  17
   4  -9  -8 399.080 271.029  11
  -4  -9   8 235.759 253.783  13
   4  -9  -7 6727.40 847.275  10
  -4  -9   7 6508.80 892.707   4
  -4  -9   7 7506.53 918.381  13
  -4  -9   7 7049.63 873.835  17
   4   9  -7 7904.47 1035.20   5
  -4   9   7 6181.46 911.098   1
   4  -9  -7 6359.03 842.491  11
   4  -9  -6 2708.80 548.293  11
   4   9  -6 4863.59 838.183   5
  -4  -9   6 3856.56 632.231  17
   4  -9  -6 3585.18 630.268  10
  -4  -9   6 2957.19 560.774  13
  -4   9   6 1926.45 611.186   1
  -4  -9   6 2978.01 616.935   4
  -4  -9   5 7626.67 948.158   4
  -4   9   5 7371.08 944.406   1
  -4  -9   5 7672.88 882.365  17
   4  -9  -5 7694.63 855.496   3
  -4  -9   5 8900.15 944.787  13
   4   9  -5 7900.49 1014.16   5
  -4   9   5 9463.27 987.257   5
   4  -9  -5 7936.50 905.764  11
   4  -9  -4 2094.26 503.211  11
  -4  -9   4 2302.69 530.195  11
   4   9  -4 2362.39 621.928   5
  -4   9   4 2853.45 597.483   5
  -4  -9   4 1436.55 408.461  17
  -4  -9   4 2813.16 550.102  13
  -4  -9   4 2205.04 561.539   4
   4  -9  -4 2405.05 502.099   3
  -4  -9   3 24021.8 1585.21  11
  -4  -9   3 23885.0 1464.40  13
  -4  -9   3 23739.7 1648.95   4
   4  -9  -3 22676.5 1485.93   3
  -4  -9   3 21482.1 1440.33  17
   4   9  -3 22461.4 1626.66   5
  -4   9   3 20848.4 1500.99   5
   4  -9  -3 25743.9 1621.38  11
   4  -9  -2 7456.49 896.024  11
  -4  -9   2 6038.58 770.069  17
  -4  -9   2 6756.92 883.695   4
  -4  -9   2 7755.25 827.215  13
   4  -9  -2 7119.17 855.745   3
   4   9  -2 8373.92 1012.82   5
  -4   9   2 7612.69 947.915   5
  -4  -9   2 7918.16 932.021  11
   4  -9  -1 11205.6 1075.85  11
  -4  -9   1 12188.1 1089.54  17
   4  -9  -1 10392.8 1058.64   3
  -4  -9   1 11934.4 1165.70   4
  -4  -9   1 12703.5 1030.79  13
   4   9  -1 11893.6 1182.41   5
  -4   9   1 10747.7 1150.13   5
  -4  -9   1 12706.0 1154.98  11
   4   9   0 8803.21 1043.95  16
  -4  -9   0 7114.70 854.476  17
  -4  -9   0 6235.41 862.923   4
   4  -9   0 7697.87 922.104   3
   4   9   0 7271.24 925.934   5
  -4   9   0 8029.95 1005.16   5
  -4  -9   0 7920.25 926.319  11
  -4  -9  -1 5298.60 782.361  11
   4   9   1 4683.87 750.244   5
  -4   9  -1 4817.58 786.535   5
   4  -9   1 5735.82 839.354   3
  -4  -9  -1 5209.34 798.178   4
  -4  -9  -1 5223.61 753.517  17
   4   9   1 4619.69 756.445  16
  -4  -9  -2 1377.22 442.563  11
   4   9   2 1612.51 493.809   5
  -4   9  -2 1666.23 567.918   5
   4   9   2 2014.26 542.381  16
  -4  -9  -2 1543.52 461.008  17
   4  -9   2 2132.42 529.575   3
  -4  -9  -3 9912.31 1047.01  17
   4  -9   3 10360.6 1123.47   3
   4   9   3 11999.9 1236.52  16
   4   9   3 11322.8 1105.27   5
  -4   9  -3 10570.8 1201.75   5
  -4  -9  -3 11502.6 1163.35  11
  -4  -9  -4 4000.35 710.366  11
   4   9   4 5046.80 759.664   5
  -4   9  -4 4698.92 838.118   5
  -4  -9  -4 4080.72 701.568  17
   4   9   4 4152.12 739.698  16
   4  -9   4 5568.36 862.019   3
  -4  -9  -5 10378.4 1134.81  17
   4   9   5 9712.73 1151.27  16
   4  -9   5 11659.0 1236.52   3
  -4   9  -5 9769.69 1172.18   5
  -4  -9  -5 10090.2 1132.50  11
  -4  -9  -6 20.2687 284.275  11
  -4   9  -6-409.765 427.157   5
  -4  -9  -6 340.762 271.447  17
   4   9   6 101.179 298.757  16
   4  -9   6 417.919 341.378   3
  -4   9  -7 5980.82 955.139   5
   4   9   7 7244.81 1044.30  16
   4  -9   7 5970.87 925.566   3
  -4  -9  -7 6740.73 967.161  11
  -4  -9  -8-58.5457 278.087  11
  -4   9  -8 404.722 394.132   5
   4   9   8 289.069 361.239  16
   4  -9   8 636.388 356.218   3
  -4   9  -9 3718.72 795.264   5
   4   9   9 3953.52 839.719  16
  -4  -9  -9 3053.77 728.511  11
   4  -9   9 2954.00 658.645   3
  -4   9 -10 884.706 438.781   5
   4  10 -12 1422.65 548.470   5
   4 -10 -11 3122.02 688.704  11
   4  10 -11 2002.42 577.236   5
  -4 -10  11 4240.19 817.600  13
  -4 -10  11 3447.79 706.995   4
   4 -10 -10 2468.10 621.984  11
   4  10 -10 3463.16 743.897   5
  -4 -10  10 2880.88 641.589  13
  -4 -10  10 2204.05 585.736   4
  -4  10  10 1948.95 604.240   1
  -4  10   9 690.641 473.172   1
   4 -10  -9 232.445 285.996  11
   4  10  -9-25.9872 376.216   5
  -4 -10   9 631.636 425.777   4
  -4 -10   9 437.399 311.031  13
   4  10  -8 5376.01 922.308   5
   4 -10  -8 6725.79 914.944  10
  -4 -10   8 5776.92 830.205  17
  -4  10   8 5511.33 924.875   1
  -4 -10   8 6309.42 926.960   4
  -4 -10   8 6861.38 950.639  13
   4 -10  -8 5699.16 868.996  11
   4 -10  -7 3600.48 681.389  11
   4  10  -7 3614.48 783.570   5
  -4 -10   7 2668.50 582.016  17
  -4 -10   7 2637.99 611.138   4
  -4  10   7 1349.84 502.855   1
  -4 -10   7 2718.79 597.239  13
  -4 -10   6 10261.7 1076.85  17
  -4 -10   6 10096.7 1152.89   4
  -4 -10   6 9640.79 1052.30  13
   4  10  -6 9781.19 1198.50   5
  -4  10   6 5932.23 936.810   1
   4 -10  -6 10927.8 1154.03  11
   4 -10  -5 265.272 211.660  11
   4  10  -5 880.501 487.222   5
  -4  10   5 584.298 355.066   5
  -4 -10   5 300.124 319.361   4
  -4 -10   5 391.597 207.393  17
  -4 -10   5 78.1578 219.139  13
  -4  10   5 82.7126 290.457   1
  -4 -10   4 12952.6 1268.03  11
  -4 -10   4 11374.6 1111.25  17
  -4 -10   4 10847.6 1182.85   4
   4 -10  -4 10342.5 1048.42   3
   4  10  -4 13263.4 1354.03   5
  -4  10   4 11318.6 1188.80   5
   4 -10  -4 12388.6 1212.83  11
   4 -10  -3 1780.78 477.348  11
  -4 -10   3 1560.91 484.186  11
   4  10  -3 542.258 408.399   5
  -4  10   3 1612.34 533.307   5
  -4 -10   3 1554.27 448.418  17
  -4 -10   3 1034.15 445.382   4
   4 -10  -3 1284.86 417.683   3
  -4 -10   2 7148.59 946.573  11
   4 -10  -2 6215.40 875.201  11
   4  10  -2 7016.67 1000.72   5
  -4 -10   2 6621.32 852.748  17
  -4 -10   2 6103.69 886.944   4
   4 -10  -2 5091.70 780.391   3
  -4  10   2 8272.12 1057.06   5
  -4 -10   1 2415.19 569.546  11
   4  10  -1 1785.41 533.211   5
   4 -10  -1 2349.21 572.022  11
  -4  10   1 2895.08 680.741   5
   4 -10  -1 1813.08 525.683   3
  -4 -10   1 2803.08 611.860   4
  -4 -10   1 1847.93 453.928  17
  -4 -10   0 3421.13 676.725  11
   4  10   0 3371.44 737.574   5
  -4  10   0 3181.16 705.534   5
  -4 -10   0 2790.93 585.582  17
  -4 -10   0 3400.52 700.514   4
   4 -10   0 3398.49 678.482   3
  -4 -10  -1-217.466 278.377  11
   4  10   1-340.682 310.580   5
  -4  10  -1-245.205 374.597   5
   4  10   1 90.7652 246.157  16
  -4 -10  -1 85.2793 222.886  17
   4 -10   1 50.0199 279.899   3
  -4 -10  -2 9956.05 1073.83  17
   4 -10   2 9874.68 1142.36   3
   4  10   2 9906.11 1181.24  16
   4  10   2 10540.8 1152.45   5
  -4  10  -2 10598.3 1245.06   5
  -4 -10  -2 9883.88 1128.56  11
  -4 -10  -3 1384.52 492.697  11
   4  10   3 1260.18 466.541   5
  -4  10  -3 391.839 369.640   5
   4  10   3 1205.49 495.173  16
  -4 -10  -3 585.942 319.833  17
   4 -10   3 1113.57 435.175   3
   4 -10   4 12394.7 1312.45   3
   4  10   4 12789.5 1358.71  16
  -4 -10  -4 12101.9 1247.78  17
   4  10   4 12519.6 1235.69   5
  -4  10  -4 14033.6 1465.28   5
  -4 -10  -4 15045.8 1430.32  11
  -4 -10  -5 1766.89 553.312  11
  -4  10  -5 1707.64 585.859   5
  -4 -10  -5 2177.55 580.336  17
   4  10   5 1557.21 529.927  16
   4 -10   5 1388.86 524.664   3
  -4 -10  -6 1745.44 522.862  11
  -4  10  -6 1337.75 526.461   5
  -4 -10  -6 2452.56 607.250  17
   4  10   6 1747.32 546.465  16
   4 -10   6 1210.56 463.867   3
  -4 -10  -7 864.475 404.027  11
  -4  10  -7 270.707 385.820   5
   4  10   7 570.775 329.899  16
   4 -10   7 666.326 343.505   3
  -4 -11   9 8851.12 1152.89   4
   4 -11  -9 7873.84 1070.65  11
   4 -11  -8 1052.73 431.648  11
   4  11  -8 1140.35 563.934   5
  -4  11   8 933.451 481.988   1
  -4 -11   8 633.069 357.316   4
   4  11  -7 4925.90 949.340   5
   4 -11  -7 3695.25 735.480  11
  -4 -11   7 3763.25 770.204   4
  -4  11   7 2243.23 660.678   1
   4 -11  -6 13.0244 260.955  11
   4  11  -6-80.2245 352.780   5
  -4 -11   6-79.4446 219.502   4
  -4  11   6 91.2672 312.017   1
   4 -11  -5 1758.14 550.398  11
   4  11  -5 2435.73 694.550   5
  -4 -11   5 1934.33 580.157   4
  -4  11   5 341.693 348.890   1
   4 -11  -4 481.731 327.392  11
  -4  11   4 473.821 397.738   5
  -4  11   4 41.5199 319.817   1
  -4 -11   4 801.255 374.394   4
   4 -11  -3 3612.29 707.838  11
  -4 -11   3 5253.25 901.879  11
   4  11  -3 3982.60 849.931   5
  -4  11   3 4614.64 848.867   5
  -4 -11   3 4455.10 830.942   4
   4 -11  -3 5000.61 778.943   3
  -4 -11   2 1544.30 482.814  11
   4 -11  -2 1885.18 545.146  11
   4  11  -2 1980.09 658.382   5
  -4 -11   2 2145.01 588.012   4
  -4  11   2 1112.80 491.548   5
   4 -11  -2 1603.33 506.950   3
  -4 -11   1 3703.69 747.805  11
   4  11  -1 5104.66 923.992   5
  -4  11   1 3576.69 784.324   5
  -4 -11   1 4246.66 818.258   4
  -4 -11   1 2804.03 594.003  17
   4 -11  -1 3704.91 717.210   3
  -4 -11   0-93.6773 303.147  11
   4  11   0 291.948 390.724   5
  -4  11   0 493.779 455.132   5
  -4 -11   0-114.744 297.216  17
   4 -11   0 423.794 336.894   3
  -4 -11  -1 4598.73 823.881  11
   4  11   1 4843.31 833.809   5
  -4 -11  -1 4236.13 777.802  17
   4 -11   1 4817.45 824.956   3
  -4  11  -1 7215.45 1084.07   5
   4  11   2 955.164 492.112   5
  -4 -11  -2 853.155 415.375  11
  -4  11  -2 956.820 559.238   5
   4  11   2-33.8222 297.215  16
   4 -11   2 458.825 317.375   3
  -4 -11  -2 857.894 416.696  17
  -4 -11  -3 7286.75 987.886  17
   4 -11   3 7752.84 1078.18   3
   4  11   3 7813.91 1115.87  16
   4  11   3 8078.12 1080.71   5
  -4  11  -3 9186.30 1228.42   5
  -4 -11  -3 7533.08 1045.51  11
  -4 -11  -4-122.047 225.476  11
   4  11   4-121.265 305.033  16
  -4  11  -4 597.181 473.788   5
  -4 -11  -4-100.653 230.432  17
   4 -11   4-8.49003 263.088   3
  -4 -11  -5 4069.52 797.404  11
  -4 -11  -5 2427.06 615.160  17
   4 -12  -4 11082.2 1296.96  11
   4 -12  -3 122.501 272.551  11
  -4  12   3-87.3615 351.915   5
  -4 -12   2 10251.8 1262.28  11
   4 -12  -2 10607.0 1258.76  11
   4 -12  -2 9161.68 1123.46   3
  -4  12   2 9430.20 1284.45   5
  -4 -12   1-307.457 385.057  11
  -4  12   1 191.493 377.176   5
   4 -12  -1-134.687 349.990   3
   4  12   0 1317.85 558.770   5
   4 -12   0 352.099 234.643   3
  -5   0  19 2346.18 621.665   6
   5   0 -18 108.273 241.964  10
  -5   0  18-42.4990 233.203   6
   5   0 -17 9946.87 1137.34  10
  -5   0  17 9512.60 1072.48  13
  -5   0  17 9351.26 1081.44   6
   5   0 -16 109.189 293.118  10
   5   0 -16-288.676 329.841   9
  -5   0  16 1.25235 256.234  13
  -5   0  16-139.691 251.372   6
  -5   0  15 35730.8 1802.73   1
   5   0 -15 32000.1 1688.02   2
   5   0 -15 36025.4 2018.39  10
   5   0 -15 34431.3 1808.23   9
  -5   0  15 35871.6 1914.18  13
  -5   0  15 31488.9 1827.00   6
   5   0 -14 421.319 425.978  10
  -5   0  14-136.573 256.298   1
  -5   0  14 392.000 294.876  13
   5   0 -14-86.4001 194.176   2
  -5   0  14-369.459 334.624   6
   5   0 -14-277.508 286.781   9
  -5   0  13 11252.0 933.273   1
   5   0 -13 12141.0 928.419   2
   5   0 -13 10006.9 929.696   9
  -5   0  13 11578.6 982.145  13
  -5   0  13 10270.4 993.544   6
   5   0 -12 296.465 189.059   2
  -5   0  12-55.4465 207.875   1
  -5   0  12-129.735 221.610  13
   5   0 -12-284.034 272.238   9
  -5   0  12-380.441 330.605   6
   5   0 -11 13072.6 854.644   2
  -5   0  11 13333.1 900.215   1
   5   0 -11 12009.9 935.099   9
  -5   0  11 14083.7 965.642  13
  -5   0  11 13509.2 1021.55   6
   5   0 -10 267.774 261.806  10
   5   0 -10-97.9348 296.594   9
   5   0 -10 57.8918 118.329   2
  -5   0  10-68.6346 185.900   1
  -5   0  10 177.209 196.114  13
  -5   0  10-54.0014 252.058   6
   5   0  -9 35317.5 1195.76   2
   5   0  -9 34065.6 1444.70   9
   5   0  -9 33939.4 1461.78  10
   5   0  -9 35563.4 1389.00   7
  -5   0   9 35850.6 1360.69  13
  -5   0   9 31231.7 1431.28   6
   5   0  -8 58.4972 99.8028   2
   5   0  -8 295.724 246.046  10
   5   0  -8-65.9924 175.089   7
   5   0  -8-311.443 271.277   9
  -5   0   8-120.494 147.510  13
  -5   0   8-94.8933 227.210   6
  -5   0   8 9.22424 125.172   1
  -5   0   8 40.2572 61.8940  18
   5   0  -7 368211. 4204.97  10
   5   0  -7 382841. 4277.85   7
  -5   0   7 379521. 3922.86  13
  -5   0   7 371338. 4450.05   6
   5   0  -7 366234. 4359.57   9
   5   0  -7 374627. 3257.40   2
   5   0  -6 25.3839 174.422  10
   5   0  -6 147.444 169.350   9
  -5   0   6-333.241 125.517   1
   5   0  -6-18.0846 69.3613   2
  -5   0   6-84.8136 101.464  17
   5   0  -6 185.609 180.796   7
  -5   0   6-15.7150 119.996  13
  -5   0   6 76.4846 157.953   6
  -5   0   6 78.2161 47.5754  12
   5   0  -5 132119. 2214.84  10
   5   0  -5 138363. 2425.91   7
  -5   0   5 136189. 2144.03  13
  -5   0   5 132483. 2352.71   6
  -5   0   5 132934. 1529.87  12
   5   0  -5 133291. 2376.83   9
  -5   0   5 130746. 2168.63  17
   5   0  -4 31.8416 116.326  10
  -5   0   4-86.4991 107.550  13
  -5   0   4 98.4602 106.583  17
  -5   0   4 154.844 142.978   6
   5   0  -4 34.1402 144.264   7
   5   0  -4-379.244 211.280   9
  -5   0   4-69.3880 97.0402  12
   5   0  -3 35111.9 1013.61  10
   5   0  -3 33779.6 1059.92   9
  -5   0   3 34416.4 1042.44   6
  -5   0   3 34851.7 1000.70  17
   5   0  -3 35017.9 1168.87   7
   5   0  -3 35463.8 1007.17  14
  -5   0   3 35134.8 977.238  12
   5   0  -2 107.996 99.6817  10
  -5   0   2 157.194 107.896  17
   5   0  -2 17.1777 104.141  14
   5   0  -2 161.050 147.411   7
  -5   0   2 159.574 119.365   6
  -5   0   2 104.527 149.788  12
   5   0  -1 37072.9 975.148  10
   5   0  -1 37054.1 1141.98   3
   5   0  -1 37771.1 1191.79   7
   5   0  -1 36453.1 1139.87  14
  -5   0   1 36013.9 904.860   6
  -5   0   1 37999.0 1173.79   8
  -5   0   1 37861.9 1168.44  12
  -5   0   1 37675.1 1035.32  17
   5   0   0 173.698 158.100  14
   5   0   0-119.114 165.447   7
   5   0   0-4.33478 120.352   3
  -5   0   0 300.042 137.041  17
  -5   0   0-36.6378 125.889   8
  -5   0   0-37.4413 166.469  12
   5   0   1 27615.6 1026.34   7
  -5   0  -1 26966.9 953.637  17
   5   0   1 28685.8 702.383  16
   5   0   1 29348.4 985.671   3
  -5   0  -1 28758.1 1141.63  12
  -5   0  -1 29576.7 1117.87   8
   5   0   1 27163.6 1096.65  14
  -5   0  -2-15.2781 127.175  17
   5   0   2-10.5499 58.5207  16
   5   0   2 9.87799 156.476  14
   5   0   2-138.145 170.186   7
  -5   0  -2 49.4072 34.2786   4
   5   0   2 48.6743 112.413   3
   5   0   2-380.581 164.042   1
  -5   0  -2 301.063 228.633  12
  -5   0  -3 83634.6 1924.14  17
   5   0   3 86581.0 1679.06   3
  -5   0  -3 85654.9 2171.04  12
   5   0   3 81379.9 1794.94   7
   5   0   3 84117.8 1956.98   1
   5   0   3 84774.0 2156.66  14
   5   0   4-86.4912 207.029  14
   5   0   4 258.252 193.686   7
   5   0   4-161.033 116.181   3
   5   0   4 109.372 167.214   1
  -5   0  -4 35.2613 203.275  12
  -5   0  -5 134377. 2959.50  12
   5   0   5 132951. 2971.46  14
   5   0   5 138540. 2115.01   3
   5   0   5 137304. 2874.60   1
   5   0   5 131059. 2379.01   7
   5   0   6 4.84698 132.357   7
  -5   0  -6-132.747 259.997   2
   5   0   6 134.944 236.711   1
   5   0   6-278.394 267.489  14
  -5   0  -6-121.962 287.862  12
  -5   0  -7 16043.9 1127.83   2
   5   0   7 18195.3 1224.28  14
  -5   0  -7 16031.5 1125.41  12
   5   0   7 15566.7 1144.19   1
   5   0   8-79.9146 235.329  14
  -5   0  -8-176.535 322.300   2
   5   0   8-42.8310 254.582   1
  -5   0  -8-9.81533 264.331  12
  -5   0  -9 5456.33 747.203   2
   5   0   9 5584.35 737.606  14
   5   0   9 4444.90 695.497   1
  -5   0  -9 5083.74 691.102  12
  -5   0 -10-145.197 260.944   2
   5   0  10 5.18042 209.354  14
   5   0  10-75.1037 292.751   1
  -5   0 -10 118.401 264.204  12
  -5   0 -11 8021.12 1001.56   2
   5   0  11 7718.98 939.149  14
  -5   0 -11 8280.10 947.773  12
   5   0  11 8724.00 1070.31   1
   5   0  12-482.343 383.192  14
  -5   0 -12-6.63146 320.834   2
   5   0  12-463.149 376.136   1
  -5   0 -12 75.2416 290.545  12
  -5   0 -13 22021.2 1770.45   2
   5   0  13 23617.2 1737.87  14
   5   0  13 24273.3 1811.66   1
   5   0  14-166.331 338.311   1
   5   0  14 465.265 307.953  14
  -5   0 -14-368.325 374.509   2
  -5  -1  19-130.753 319.433  13
  -5   1  19 529.348 342.850   6
   5   1 -18 8.87322 278.512  10
   5  -1 -18 163.557 325.074  10
  -5  -1  18-6.28899 260.414  13
  -5  -1  18 490.005 345.665   6
  -5   1  18 269.638 339.147   6
   5  -1 -17 866.872 415.718  10
  -5   1  17 752.155 384.166   1
   5   1 -17 289.926 208.399   9
  -5  -1  17 1168.46 432.450   6
   5   1 -17 812.160 349.379   2
  -5  -1  17 789.212 389.206  13
  -5   1  17 1659.27 513.537   6
   5  -1 -16 4327.04 791.638  10
  -5   1  16 4278.09 732.533   1
   5   1 -16 4079.29 653.294   2
   5   1 -16 3255.16 639.218   9
  -5  -1  16 3361.84 650.716  13
  -5  -1  16 3930.72 696.809   6
  -5   1  16 3708.24 678.689   6
   5  -1 -15 1519.39 462.658  10
   5   1 -15 2893.87 556.555   2
  -5  -1  15 1460.86 482.917  13
  -5   1  15 1916.21 514.290   6
  -5   1  15 1335.95 447.600   1
   5   1 -15 1126.01 363.053   9
  -5  -1  15 2157.43 521.537   6
   5   1 -14 50553.8 2090.37   2
  -5   1  14 53146.8 2167.39   1
   5  -1 -14 50572.1 2321.37  10
   5   1 -14 47720.7 2116.02   9
  -5  -1  14 54675.8 2317.69  13
  -5   1  14 51838.5 2098.26  13
  -5  -1  14 52457.6 2257.76   6
  -5   1  14 50157.0 2274.68   6
  -5  -1  13 131.406 202.552   1
   5  -1 -13 417.484 340.853  10
   5   1 -13 53.3781 263.394   9
   5   1 -13 0.43492 177.572   2
   5  -1 -13-51.2596 142.655   2
  -5   1  13 326.971 326.234   1
  -5   1  13 22.9512 167.018  13
  -5  -1  13 656.839 348.404   6
  -5   1  13 219.077 256.424   6
  -5  -1  13-274.480 282.707  13
  -5  -1  12 37389.8 1524.33   1
   5   1 -12 41669.5 1687.34   2
   5  -1 -12 42021.3 1564.47   2
   5  -1 -12 36657.5 1815.50  10
  -5   1  12 38506.2 1656.69   1
   5   1 -12 38765.1 1758.21   9
   5  -1 -12 38599.5 1724.00   9
  -5  -1  12 37386.9 1726.11  13
  -5   1  12 36798.7 1592.56  13
  -5  -1  12 35851.3 1732.01   6
  -5   1  12 36488.7 1778.75   6
   5  -1 -11 816.849 324.961  10
  -5  -1  11 874.577 242.278   1
   5  -1 -11 981.748 305.010   9
   5   1 -11 1126.08 298.267   2
   5   1 -11 572.836 226.720   9
   5  -1 -11 1057.88 259.834   2
  -5   1  11 945.006 326.959   1
  -5  -1  11 1367.57 343.473  13
  -5   1  11 818.373 257.022  13
  -5  -1  11 1142.54 342.726   6
  -5   1  11 548.742 318.672   6
   5   1 -10 12976.9 832.766   2
  -5  -1  10 12482.8 765.341   1
   5  -1 -10 13701.3 762.525   2
   5  -1 -10 13226.8 972.865  10
  -5   1  10 14210.0 894.744   1
   5  -1 -10 12205.9 919.110   9
   5   1 -10 13507.1 856.340   7
  -5  -1  10 14314.8 966.497  13
  -5   1  10 13201.0 837.154  13
  -5  -1  10 13672.6 1011.51   6
   5   1 -10 12691.5 948.537   9
   5   1  -9 2791.47 375.081   2
   5  -1  -9 2426.68 304.249   2
  -5   1   9 2588.85 393.587   1
  -5  -1   9 2289.24 323.369   1
   5  -1  -9 2048.41 440.348  10
   5  -1  -9 2318.25 412.945   9
  -5  -1   9 3209.79 497.662   6
   5   1  -9 2571.60 382.370   7
   5   1  -9 2622.20 453.436   9
  -5  -1   9 2386.77 388.218  13
  -5   1   9 2572.08 350.189  13
   5  -1  -8 39201.0 1044.62   2
  -5  -1   8 35398.9 1045.30   1
   5  -1  -8 39097.3 1483.24  10
   5   1  -8 39277.4 1371.84   7
  -5  -1   8 38793.8 1504.73  17
   5  -1  -8 38885.9 1487.01   7
   5   1  -8 39084.8 1512.91   9
   5  -1  -8 36837.4 1455.28   9
  -5   1   8 37525.0 1227.59  13
  -5   1   8 31156.4 1213.59   1
  -5  -1   8 37514.0 1401.22  13
  -5  -1   8 38526.4 1511.45   6
   5   1  -8 37987.3 1245.65   2
   5  -1  -7 6266.52 366.360   2
   5  -1  -7 6118.53 578.402  10
  -5  -1   7 5905.84 384.851   1
  -5   1   7 6680.91 512.904   1
  -5  -1   7 5784.31 581.921   6
  -5  -1   7 6495.74 608.020  17
   5  -1  -7 6139.54 582.714   7
   5   1  -7 5004.63 549.930   7
  -5  -1   7 6221.05 565.727  13
  -5   1   7 5502.85 444.618  13
   5   1  -7 6025.86 579.434   9
   5   1  -7 6122.83 478.522   2
   5   1  -6 43325.5 1325.89  10
   5  -1  -6 43621.4 1403.39  10
   5   1  -6 42041.5 1401.94   9
  -5  -1   6 43626.5 1415.60  17
   5  -1  -6 44874.6 1475.33   7
   5   1  -6 43507.7 1382.65   7
  -5   1   6 41028.6 1164.83   1
  -5  -1   6 43262.2 1370.15  13
  -5   1   6 43469.3 1180.07  13
  -5  -1   6 43461.6 1444.08   6
  -5   1   6 41561.3 751.431  12
   5   1  -6 43282.9 1166.18   2
   5  -1  -6 41600.3 878.106  11
   5  -1  -6 44073.4 807.040   2
   5  -1  -5 439.415 82.6542  11
   5   1  -5 365.744 150.049  10
   5  -1  -5 523.772 193.146  10
   5   1  -5 637.548 205.076   9
  -5   1   5 510.611 154.376  17
  -5  -1   5 497.470 200.424   6
  -5  -1   5 362.673 177.450  17
   5  -1  -5 626.656 213.873   7
   5   1  -5 341.838 181.581   7
  -5  -1   5 515.770 170.887  13
  -5   1   5 681.413 159.435  13
  -5   1   5 319.539 124.673   1
  -5  -1   5 465.250 92.5111   1
  -5   1   5 525.317 115.382  12
  -5  -1   5 547.840 133.493  12
   5   1  -4 18848.2 741.319  10
   5  -1  -4 20022.1 868.249  10
  -5   1   4 19301.3 718.972  17
   5  -1  -4 20788.1 934.111   3
   5  -1  -4 19303.4 915.776   7
   5   1  -4 19700.0 899.788   7
   5  -1  -4 19144.6 641.254  14
   5   1  -4 19804.5 864.164   9
  -5   1   4 19530.5 728.167  13
  -5  -1   4 19910.7 874.692  13
  -5   1   4 19671.1 698.932  12
  -5  -1   4 19579.8 877.144   6
  -5  -1   4 19878.1 863.535  17
  -5  -1   4 18384.6 700.368  12
   5   1  -3 12111.5 553.117  10
   5  -1  -3 12302.9 659.682  10
  -5   1   3 12324.4 532.541  17
   5   1  -3 12433.1 647.535   9
   5  -1  -3 13066.2 734.727   7
   5  -1  -3 12900.6 725.474   3
   5   1  -3 13029.8 731.396   7
   5  -1  -3 12848.0 573.743  14
  -5  -1   3 13435.3 691.941  17
  -5  -1   3 13148.4 713.053  13
  -5  -1   3 12796.3 670.929   6
  -5   1   3 13553.9 626.490  12
  -5  -1   3 13185.2 625.011  12
  -5   1   3 12763.3 645.909   6
   5   1  -2 161621. 1827.22  10
   5  -1  -2 167730. 2351.34  10
   5   1  -2 159099. 2162.23   9
   5   1  -2 158770. 2378.46  14
  -5   1   2 157731. 1830.39  17
  -5  -1   2 157194. 2336.08  17
   5  -1  -2 169482. 2555.03   3
   5  -1  -2 159860. 2498.82   7
  -5   1   2 160989. 2314.73  12
   5   1  -2 156824. 2496.94   7
  -5  -1   2 160887. 2218.63   6
  -5   1   2 159088. 2070.90   6
   5  -1  -2 161570. 2171.95  14
  -5  -1   2 161700. 2322.09  12
  -5  -1   1 731.244 108.859  11
   5   1  -1 676.308 125.497  10
   5  -1  -1 640.028 174.383  10
   5   1  -1 604.698 136.991   9
  -5  -1   1 803.581 181.697   8
   5  -1  -1 560.612 183.419   7
  -5   1   1 580.761 129.855  17
  -5  -1   1 669.805 191.324  17
  -5   1   1 536.288 177.715   8
   5   1  -1 691.852 213.634  14
   5  -1  -1 814.565 140.164  18
   5  -1  -1 594.329 176.143  14
   5   1  -1 193.293 162.847   7
   5  -1  -1 972.891 263.388   3
  -5   1   1 301.587 102.025   6
  -5   1   1 601.965 208.722  12
  -5  -1   1 758.600 222.602  12
  -5   1   0 188234. 2106.26  17
  -5  -1   0 196758. 2589.43   8
   5  -1   0 191005. 2734.83  14
   5  -1   0 193404. 2313.72  18
   5  -1   0 201060. 2759.97   3
   5  -1   0 187203. 2626.38   7
  -5   1   0 197342. 2891.18   8
   5   1   0 189637. 2771.78   7
   5   1   0 188140. 2815.87  14
  -5   1   0 183577. 1679.44   6
  -5   1   0 196264. 2865.97  12
  -5  -1   0 193980. 2689.92  17
   5   1   0 196882. 2156.48   1
   5   1   0 195256. 2248.17  16
  -5  -1   0 196924. 2855.24  12
  -5  -1   0 195703. 2011.79  11
  -5  -1  -1 606.304 194.526   8
  -5  -1  -1 557.270 208.250  17
  -5   1  -1 765.382 168.880  17
   5   1   1 468.968 131.326  16
   5  -1   1 635.827 206.114  14
   5   1   1 1.53100 193.998  14
   5  -1   1 535.442 173.334   7
   5   1   1 373.913 210.471   7
   5  -1   1 834.724 225.389   3
   5   1   1 449.223 152.684   1
  -5   1  -1 722.330 216.436   8
  -5   1  -1 519.349 205.476  12
  -5  -1  -1 283.661 176.188  12
   5   1   2 13612.0 785.456   7
   5   1   2 12102.0 785.840  14
  -5  -1  -2 14953.8 820.824  17
   5   1   2 13034.8 631.790  16
  -5   1  -2 14016.1 675.005  17
   5  -1   2 14727.5 763.738   3
   5  -1   2 12917.9 818.537  14
   5  -1   2 14051.9 721.115   7
  -5   1  -2 13192.4 835.155  12
  -5  -1  -2 13711.7 851.794  12
  -5  -1  -2 13884.6 560.296   4
   5   1   2 15025.0 745.510   1
  -5  -1  -3 1000.50 252.830  17
   5  -1   3 1361.20 316.721  14
   5  -1   3 1070.00 217.242   7
   5   1   3 2125.71 343.163   7
   5   1   3 1337.35 317.962  14
   5  -1   3 901.932 198.305   3
  -5   1  -3 1523.96 289.782   2
  -5   1  -3 936.529 271.900  12
  -5  -1  -3 1297.05 331.682  12
   5   1   3 1444.20 298.880   1
  -5   1  -4 33076.3 1339.49   2
  -5  -1  -4 35577.0 1415.27  17
   5  -1   4 30225.0 1391.65  14
   5   1   4 32541.3 1404.23  14
   5   1   4 34898.5 1278.23   7
   5  -1   4 32847.7 1099.74   7
   5  -1   4 32979.0 1165.59   3
  -5   1  -4 31807.3 1421.88  12
   5  -1   4 33360.7 1368.20   1
  -5  -1  -4 33041.8 1428.64  12
   5   1   4 32955.5 1316.21   1
  -5   1  -5 4674.53 550.521   2
   5  -1   5 4654.15 556.788   1
   5  -1   5 4468.57 585.236  14
   5   1   5 6049.90 579.976   7
   5  -1   5 4813.62 467.587   3
   5   1   5 4887.37 577.532  14
  -5   1  -5 4862.70 607.407  12
   5  -1   5 4521.92 413.974   7
  -5  -1  -5 4434.94 586.452  12
   5   1   5 5669.13 599.106   1
  -5   1  -6 47754.9 1827.53   2
   5   1   6 46704.9 1852.73  14
   5  -1   6 46027.7 1906.93  14
   5  -1   6 48980.9 1467.16   3
   5   1   6 46951.0 1574.89   7
  -5   1  -6 48903.3 1891.67  12
  -5  -1  -6 47189.7 1864.44  12
   5  -1   6 50073.5 1875.13   1
   5   1   6 52269.3 1860.41   1
   5  -1   7 2374.07 500.341  14
   5   1   7 2165.35 475.839  14
   5   1   7 2390.67 418.037   7
  -5   1  -7 1769.96 403.786   2
   5  -1   7 1607.64 415.193   1
  -5   1  -7 2702.24 509.911  12
  -5  -1  -7 557.311 257.238  12
   5   1   7 2440.89 476.032   1
  -5   1  -8 8135.06 869.651   2
   5   1   8 9184.41 900.222  14
   5  -1   8 8714.66 902.934  14
  -5   1  -8 9251.87 899.317  12
  -5  -1  -8 8364.84 873.209  12
   5  -1   8 6395.62 803.306   1
   5   1   8 7557.06 843.397   1
   5  -1   9 4931.18 722.581  14
   5   1   9 4499.98 691.326  14
  -5   1  -9 3281.06 587.600   2
   5  -1   9 3965.10 708.466   1
  -5  -1  -9 4739.91 708.911   2
  -5   1  -9 4672.39 669.645  12
  -5  -1  -9 4605.11 681.148  12
   5   1   9 4055.03 705.233   1
  -5   1 -10 16643.3 1356.15   2
  -5  -1 -10 14370.5 1285.91   2
   5  -1  10 15822.6 1320.45  14
   5   1  10 15774.9 1265.29  14
  -5   1 -10 15284.5 1230.13  12
  -5  -1 -10 18494.3 1346.32  12
   5  -1  10 14281.4 1295.20   1
   5   1  10 14377.5 1308.75   1
   5  -1  11 756.633 369.139  14
   5   1  11 531.859 339.534  14
  -5   1 -11 1117.25 449.332   2
   5  -1  11 71.4394 306.908   1
  -5  -1 -11 593.215 387.623   2
   5   1  11 466.714 333.403   1
  -5   1 -11 332.575 307.638  12
  -5  -1 -11 549.405 367.991  12
  -5   1 -12 20070.9 1615.31   2
  -5  -1 -12 17387.5 1522.04   2
   5  -1  12 18091.7 1508.85  14
   5   1  12 20422.7 1556.29  14
  -5   1 -12 19571.3 1489.90  12
  -5  -1 -12 18938.0 1444.51  12
   5   1  12 18780.9 1551.10   1
   5  -1  12 19905.0 1620.68   1
   5  -1  13-99.5314 311.504  14
  -5  -1 -13 171.466 313.881   2
   5  -1  13 1077.41 465.831   1
  -5   1 -13 721.041 406.986   2
   5   1  13 923.459 467.305   1
   5   1  13 429.550 325.290  14
   5  -1  13 1319.03 554.057  18
   5  -1  14 1301.98 498.068  18
   5  -1  14 1466.99 497.184  14
   5   1  14 1561.69 493.431  14
  -5   1 -14 484.687 409.222   2
  -5  -1 -14 2494.39 653.916   2
   5  -1  14 747.536 397.583   1
   5   1  14 1535.45 525.591   1
  -5  -2  19 4938.49 896.616  13
  -5   2  19 4784.49 868.846   6
   5  -2 -18 1837.33 543.176  10
  -5   2  18 1624.63 506.187   1
  -5   2  18 1309.75 464.136  15
   5   2 -18 2000.75 565.865   9
   5   2 -18 859.107 353.186   2
  -5  -2  18 1148.86 435.975  13
  -5  -2  18 958.954 366.773   6
  -5   2  18 1516.90 493.191   6
   5  -2 -17 3411.43 693.840  10
  -5   2  17 2274.26 630.679   1
   5   2 -17 2351.85 556.046   2
   5   2 -17 1038.17 384.434   9
  -5   2  17 2099.85 580.850  15
  -5  -2  17 2818.08 644.592  13
  -5  -2  17 2253.88 544.006   6
  -5   2  17 2507.56 648.299   6
   5  -2 -16 537.736 396.254  10
   5   2 -16 802.053 313.261   2
  -5   2  16 513.080 372.838   1
  -5  -2  16 611.385 408.986  13
   5   2 -16 1423.99 451.666   9
  -5  -2  16 659.191 359.868   6
  -5   2  16 775.401 337.173   6
   5   2 -15 6583.21 815.232   2
   5  -2 -15 7745.81 964.040  10
  -5   2  15 7767.93 974.815   1
   5   2 -15 6885.45 867.677   9
  -5  -2  15 8122.52 973.594  13
  -5  -2  15 7661.50 924.168   6
  -5   2  15 6259.17 852.380   6
   5  -2 -14 4010.06 675.609  10
   5   2 -14 3700.85 603.014   2
  -5   2  14 3880.79 668.660   1
  -5  -2  14 5241.62 755.291  13
  -5  -2  14 3940.82 654.488   6
  -5   2  14 4433.21 749.004   6
   5   2 -14 3915.73 643.696   9
   5   2 -13 11493.9 990.370   2
   5  -2 -13 11379.9 1055.85  10
  -5   2  13 10906.3 1009.60   1
   5   2 -13 12325.1 1064.48   9
  -5  -2  13 12055.6 1095.28  13
  -5  -2  13 10405.6 990.260   6
   5  -2 -12 1223.80 426.781  10
   5   2 -12 1389.00 371.514   9
   5   2 -12 1035.57 341.440   2
  -5  -2  12 835.524 312.068  13
  -5  -2  12 1733.60 447.187   6
  -5   2  12 1125.58 381.717   1
   5   2 -11 23886.7 1273.56   2
   5  -2 -11 23319.0 1381.94  10
   5   2 -11 22052.9 1308.70   9
  -5   2  11 21375.9 1258.79   1
   5   2 -11 23529.2 1116.85   7
  -5  -2  11 24710.8 1408.37  13
  -5  -2  11 22026.4 1314.91   6
  -5   2  10 4530.68 540.756   1
   5  -2 -10 3899.50 572.362  10
   5   2 -10 3423.17 421.757   7
  -5   2  10 3843.44 430.014  13
  -5  -2  10 3348.46 526.572  13
  -5  -2  10 3209.09 528.186   6
   5   2 -10 3479.07 476.114   2
  -5  -2  10 4062.59 600.008  17
   5   2 -10 4115.79 603.318   9
   5  -2  -9 96537.4 2522.44  10
  -5   2   9 91028.7 2274.43   1
  -5  -2   9 99598.5 2609.86  17
   5   2  -9 97762.6 2540.19   9
  -5  -2   9 98238.5 2517.64  13
  -5   2   9 96242.4 1946.85  13
  -5  -2   9 98068.4 2558.67   6
   5   2  -9 99769.6 2188.28   7
   5   2  -9 93229.5 1952.37   5
   5  -2  -9 96651.0 2015.32  11
  -5  -2   9 96706.0 1776.88   1
   5   2  -9 97212.8 2294.52   2
   5  -2  -8 20421.6 707.194   2
   5  -2  -8 21749.1 1146.28  10
   5   2  -8 20748.6 1132.91   9
  -5  -2   8 21319.7 1151.09  17
  -5   2   8 20761.3 1034.39   1
   5   2  -8 18302.2 983.337   7
  -5  -2   8 20780.2 1117.29  13
  -5   2   8 21091.2 848.440  13
  -5  -2   8 21593.1 1167.32   6
   5   2  -8 21272.6 940.539   5
  -5  -2   8 21571.1 744.297   1
   5  -2  -8 20559.4 860.276  11
   5   2  -8 20962.8 1029.87   2
   5  -2  -7 70004.0 1044.21   2
   5  -2  -7 71704.6 1972.98  10
  -5  -2   7 72671.2 2009.20  17
   5   2  -7 73911.7 1798.72   7
  -5   2   7 69559.5 1793.97   1
   5   2  -7 70918.9 1979.22   9
  -5  -2   7 66975.8 1914.26  13
  -5   2   7 69997.1 1420.14  13
  -5  -2   7 70001.0 1989.33   6
   5   2  -7 72619.5 1709.69   5
  -5  -2   7 65629.5 1080.57   1
   5  -2  -7 70824.0 1450.11  11
   5   2  -7 75403.3 1792.24   2
   5  -2  -6 168.849 87.8598  11
   5   2  -6 23.1583 169.357   5
   5  -2  -6 182.281 186.743  10
   5   2  -6 69.7528 110.052   2
   5   2  -6 508.724 249.856   9
  -5   2   6-119.563 182.414   1
  -5  -2   6-12.8117 165.551  17
   5   2  -6 33.0547 133.333   7
  -5  -2   6-12.5373 139.514  13
  -5  -2   6 8.78296 37.9939   1
  -5   2   6 16.4434 69.1824  13
   5  -2  -6 47.8709 190.841   7
  -5  -2   5 2151.42 323.954  17
   5   2  -5 1997.05 287.683   5
   5  -2  -5 2151.72 358.380  10
   5  -2  -5 3933.89 474.518   7
   5   2  -5 2220.05 328.602   7
  -5   2   5 2021.73 219.398  13
   5  -2  -5 2547.80 387.195   3
  -5  -2   5 2644.85 371.452  13
  -5  -2   5 2608.30 396.264   6
   5   2  -5 2245.80 370.578   9
   5  -2  -5 2362.41 218.072  11
   5   2  -4 73600.3 1437.36  10
   5  -2  -4 75566.9 1806.78  10
   5   2  -4 77815.8 1821.94   7
  -5   2   4 73988.9 1273.92  17
   5  -2  -4 72651.6 1794.66   3
   5  -2  -4 75057.3 1208.25  14
  -5   2   4 75236.4 1279.76  13
  -5  -2   4 78067.1 1861.76  13
  -5  -2   4 75433.4 1804.67   6
  -5  -2   4 73303.5 1795.95  17
   5  -2  -4 74438.8 1876.24   7
  -5  -2   4 76303.6 1514.37  12
   5   2  -4 78818.9 1825.39   5
   5   2  -4 72644.1 1703.18   9
   5  -2  -4 74970.3 1119.30  11
  -5  -2   3 68327.2 1095.96  11
   5  -2  -3 65861.8 1052.02  11
   5   2  -3 67407.3 1211.33  10
   5  -2  -3 68417.8 1684.67  10
  -5  -2   3 65412.5 1660.08  17
   5   2  -3 67583.9 1547.23   9
  -5   2   3 66864.5 1054.67  17
   5  -2  -3 66644.1 1711.39   7
   5   2  -3 71579.9 1740.99   7
  -5  -2   3 69557.7 1747.44  13
   5  -2  -3 67144.2 1712.82   3
  -5  -2   3 68778.5 1646.70   6
   5  -2  -3 70179.6 1308.86  14
  -5  -2   3 69813.2 1527.72  12
   5   2  -2 47081.1 880.977  10
   5  -2  -2 47286.1 1382.08  10
  -5   2   2 46310.5 792.464  17
  -5  -2   2 48582.6 1419.52  17
   5   2  -2 48989.9 1439.21   7
   5  -2  -2 51412.7 1485.66   3
   5   2  -2 46473.0 1201.45   9
   5  -2  -2 48153.7 1207.25  14
  -5  -2   2 48656.0 1347.30  12
   5  -2  -2 47446.7 1416.46   7
  -5  -2   2 48556.3 950.304  11
   5   2  -1 301512. 1817.23  10
  -5   2   1 311622. 2280.27   2
   5  -2  -1 313813. 3551.44  10
   5   2  -1 307759. 2818.86   9
  -5   2   1 304931. 1980.82  17
  -5   2   1 293692. 3651.90   8
   5  -2  -1 309880. 3474.27   7
   5  -2  -1 318677. 3744.96   3
   5  -2  -1 307819. 3298.43  14
   5   2  -1 304982. 3648.29   7
   5   2  -1 304485. 3632.86  14
  -5  -2   1 304176. 2911.70   8
  -5  -2   1 312026. 3587.99  12
   5   2  -1 317773. 2124.92   1
  -5  -2   1 304247. 3576.45  17
  -5  -2   1 315525. 2644.20  11
   5  -2   0 89328.7 1924.45  14
  -5   2   0 90717.6 1504.04   2
   5  -2   0 93334.9 1728.87  18
  -5   2   0 86764.6 1180.66  17
  -5  -2   0 93051.2 1664.50   8
  -5   2   0 91550.2 2088.68   8
   5   2   0 91398.5 1796.48  16
   5  -2   0 89687.1 1834.57   7
   5  -2   0 97266.7 2080.38   3
   5   2   0 90812.4 2024.92   7
   5   2   0 92948.6 2069.98  14
   5   2   0 91533.1 1388.52   9
  -5  -2   0 87773.7 1964.12  17
  -5  -2   0 91422.6 2048.07  12
   5   2   0 98733.1 1461.30   1
  -5  -2   0 93173.3 1594.07  11
  -5   2  -1 44988.1 1196.18   2
  -5   2  -1 45483.6 1535.23   8
   5  -2   1 46152.9 1323.77  18
   5  -2   1 40208.8 1382.22  14
   5   2   1 42688.6 1421.01   7
   5  -2   1 41992.0 1393.79   3
   5   2   1 43730.7 1469.98  14
   5  -2   1 41908.2 1231.53   7
  -5  -2  -1 42556.9 1420.44  17
  -5   2  -1 39088.4 603.123   6
  -5  -2  -1 43516.4 1487.93  12
   5   2   1 42336.8 808.153   9
   5   2   1 44536.8 1289.38  16
  -5  -2  -1 43361.7 1183.96  11
   5   2   1 46364.5 1154.47   1
   5  -2   2 81660.9 2073.64  14
  -5   2  -2 83036.6 1789.20   2
  -5  -2  -2 81720.9 1632.75   4
  -5  -2  -2 83028.6 2136.63  12
   5   2   2 84229.6 1834.53  16
   5  -2   2 85098.0 1951.28  18
   5  -2   2 82078.9 1699.07   7
  -5  -2  -2 84481.3 2076.66  17
  -5   2  -2 85971.5 2174.79  12
   5  -2   2 87547.3 2011.15   3
   5   2   2 84165.6 2102.04  14
  -5  -2  -2 82533.2 1775.55  11
   5   2   2 86797.4 1784.58   1
   5   2   3 38.1451 161.884   1
  -5  -2  -3 426.102 204.468  17
   5  -2   3 74.2982 97.4171   7
   5  -2   3 265.143 175.459  14
   5   2   3 351.744 208.056  14
  -5  -2  -3 64.2348 103.227   4
   5  -2   3 230.437 163.358  18
  -5   2  -3 65.8894 133.084   2
   5  -2   3 54.9870 155.589   3
  -5   2  -3-193.394 275.248  12
  -5  -2  -3 32.5226 218.571  12
  -5  -2  -4 7524.72 695.843  17
  -5   2  -4 7136.04 628.674   2
   5  -2   4 8228.29 696.992  18
   5  -2   4 7335.49 497.658   7
   5  -2   4 7849.36 748.405  14
   5   2   4 7552.98 697.459  14
   5  -2   4 8480.90 656.978   3
  -5   2  -4 7378.94 718.857  12
  -5  -2  -4 7912.87 731.770  12
   5   2   4 6970.04 624.275   1
  -5   2  -5 58563.8 1906.05   2
   5  -2   5 63025.4 2012.62  18
  -5  -2  -5 63900.7 2093.33  17
   5  -2   5 62117.6 2126.54  14
   5  -2   5 62738.7 1796.00   3
  -5  -2  -5 58502.6 2032.01  12
  -5   2  -5 60829.2 2064.72  12
   5   2   5 56445.5 1952.55  14
   5   2   5 62540.1 1914.29   1
  -5   2  -6 12127.3 939.350   2
   5  -2   6 12774.7 1020.97  14
   5   2   6 12019.7 965.914  14
   5  -2   6 11830.4 810.938   3
   5  -2   6 11131.7 923.611  18
  -5   2  -6 11895.0 958.635  12
  -5  -2  -6 13332.1 1039.01  12
   5   2   6 11269.3 968.954   1
  -5   2  -7 47230.3 1942.31   2
   5  -2   7 51613.1 1705.72   3
   5  -2   7 45695.2 1940.39  18
   5  -2   7 46733.2 2025.55  14
   5   2   7 46187.7 1927.02  14
  -5   2  -7 49624.0 2018.99  12
  -5  -2  -7 50403.3 2042.79  12
   5   2   7 44595.1 1897.77   1
   5   2   8 1901.85 571.878   1
  -5   2  -8 1487.78 360.218   5
   5  -2   8 2131.99 524.855  14
   5   2   8 1523.16 402.007  14
  -5   2  -8 1937.70 474.291   2
   5  -2   8 2417.89 514.550  18
   5  -2   8 1407.85 433.844   1
  -5   2  -8 1772.90 415.563  12
  -5  -2  -8 1451.98 390.218  12
  -5   2  -9 6123.18 817.139   2
   5  -2   9 7494.87 895.216  14
   5  -2   9 6876.27 851.620  18
   5   2   9 5098.50 716.225  14
  -5   2  -9 6844.01 825.523  12
   5  -2   9 5383.32 788.807   1
  -5  -2  -9 6199.18 804.273  12
   5   2   9 5598.68 796.345   1
   5  -2  10 355.156 356.946  18
   5  -2  10-462.197 431.908   1
   5  -2  10 27.3962 278.921  14
   5   2  10 162.687 243.483  14
  -5   2 -10-78.1066 298.585   2
  -5  -2 -10 305.361 308.739   2
  -5   2 -10 421.522 344.878  12
  -5  -2 -10-167.396 296.119  12
   5   2  10 426.039 330.659   1
  -5   2 -11 7241.30 945.410   2
  -5  -2 -11 7067.75 970.563   2
   5  -2  11 6051.92 895.520  18
   5  -2  11 7947.61 985.489  14
   5   2  11 6756.26 857.077  14
  -5   2 -11 8429.09 974.870  12
   5  -2  11 4657.15 846.445   1
  -5  -2 -11 7400.45 939.723  12
   5   2  11 5806.03 970.872   1
  -5   2 -12 556.487 282.129  12
   5  -2  12-73.0626 313.801  18
   5  -2  12 1351.04 488.429  14
  -5   2 -12 625.801 321.919   2
   5   2  12 604.758 342.170  14
  -5  -2 -12 951.931 461.501   2
  -5  -2 -12 1020.83 416.800  12
   5   2  12 1342.76 530.536   1
  -5  -2 -13 6943.58 1019.23   2
   5   2  13 5416.26 830.559  14
  -5   2 -13 5470.31 903.569   2
   5  -2  13 5050.05 839.559  14
   5   2  13 4127.63 821.585   1
   5  -2  13 5766.61 946.204  18
   5   2  14 561.731 451.774   1
   5  -2  14-160.276 328.990  14
  -5   2 -14-42.0741 218.276   2
   5  -2  14 968.965 448.733  18
  -5  -2 -14-213.878 287.306   2
  -5   3  18 7693.45 1129.71  15
  -5   3  18 8026.12 1113.28   6
   5  -3 -18 8740.28 1121.70  10
  -5  -3  18 6365.74 1022.39  17
  -5   3  18 5199.42 871.848   1
  -5  -3  18 6088.96 989.191  13
   5   3 -18 6244.48 910.055   9
   5   3 -18 5184.92 873.627   2
   5  -3 -17 1092.03 442.244  10
   5   3 -17 374.997 284.361   9
   5   3 -17 501.556 320.989   2
  -5   3  17 1068.09 497.171   1
  -5  -3  17 654.952 396.160  17
  -5   3  17 859.445 458.718  15
  -5  -3  17 592.897 369.095   6
  -5  -3  17 1019.04 450.480  13
  -5   3  17 789.738 429.389   6
   5   3 -16 5990.73 859.598   2
   5  -3 -16 4612.48 715.339  11
   5  -3 -16 5701.79 854.951  10
  -5   3  16 5847.38 906.941   1
  -5   3  16 5159.46 900.809  15
  -5  -3  16 5715.53 908.549  13
  -5  -3  16 6229.58 855.306   6
  -5   3  16 5081.07 858.052   6
   5   3 -16 6158.10 863.929   9
  -5  -3  16 5092.71 842.974  17
   5  -3 -15 79.1259 194.624  11
   5  -3 -15 168.224 314.129  10
   5   3 -15-219.794 364.099   9
  -5  -3  15 19.0620 281.733  17
  -5   3  15-38.8706 295.576  15
  -5   3  15 569.730 345.523   1
   5   3 -15 110.628 220.199   2
  -5  -3  15 170.626 257.890  13
  -5  -3  15-36.4752 289.435   6
   5   3 -14 8539.17 953.455   2
   5  -3 -14 9001.63 992.606  10
  -5   3  14 7601.19 928.523   1
  -5   3  14 8910.81 1047.69  15
   5   3 -14 8427.62 958.001   9
  -5  -3  14 8068.20 983.139  17
  -5  -3  14 9098.52 1037.69  13
  -5  -3  14 8717.19 958.309   6
   5  -3 -14 9824.08 931.868  11
   5  -3 -13 16470.4 1284.02  10
  -5   3  13 16604.4 1251.45   1
  -5   3  13 17342.7 1371.25  15
  -5  -3  13 15672.8 1287.34  13
  -5  -3  13 16757.4 1264.25   6
  -5  -3  13 16169.1 1323.34  17
   5   3 -13 16262.2 1259.24   9
   5  -3 -13 16293.1 1139.57  11
   5   3 -13 15047.2 1183.28   2
   5  -3 -12 7245.62 805.801  10
  -5   3  12 7624.06 836.066   1
  -5  -3  12 7775.20 901.322  17
  -5   3  12 8331.61 919.815  15
  -5  -3  12 7423.83 844.807  13
  -5  -3  12 6728.11 782.417   6
   5   3 -12 7260.92 840.452   9
   5  -3 -12 7158.35 721.432  11
   5   3 -12 7436.75 810.462   2
   5  -3 -11 437.990 201.464  11
  -5   3  11-225.578 377.726   1
   5  -3 -11 197.220 241.317  10
   5   3 -11 967.266 412.671   9
   5   3 -11 279.146 161.426   2
  -5  -3  11 511.774 329.192  17
  -5  -3  11 387.755 294.782  13
  -5  -3  11 886.023 371.164   6
   5  -3 -10 21949.6 1301.17  10
   5   3 -10 20910.2 1274.83   9
  -5  -3  10 19023.3 1248.46  17
   5   3 -10 21466.2 1016.97   7
  -5   3  10 20872.9 1212.11   1
  -5  -3  10 20259.0 1259.37  13
  -5  -3  10 19692.8 1236.53   6
   5   3 -10 20808.8 1007.89   5
   5  -3 -10 20583.3 1062.96  11
   5   3 -10 21723.4 1234.90   2
   5  -3  -9 37395.2 1632.55  10
  -5   3   9 36315.7 1541.09   1
   5   3  -9 33347.1 1285.95   7
   5   3  -9 37743.3 1645.12   9
  -5  -3   9 37234.1 1641.96  13
  -5  -3   9 36558.0 1611.06   6
  -5  -3   9 33814.3 1585.41  17
   5   3  -9 35000.1 1309.66   5
   5  -3  -9 36229.3 1315.89  11
   5   3  -9 34952.7 1485.22   2
  -5   3   8 111642. 1928.68   5
   5  -3  -8 118216. 2750.07  10
  -5  -3   8 112860. 2765.80  17
  -5  -3   8 118444. 2797.02  13
   5   3  -8 118678. 2405.56   5
  -5   3   8 116618. 2614.34   1
   5   3  -8 116858. 2320.97   7
  -5  -3   8 122386. 2829.26   6
   5  -3  -8 114317. 2174.21  11
   5   3  -8 119595. 2609.02   2
   5  -3  -7 846.377 192.900  11
   5   3  -7 879.625 252.359   5
   5  -3  -7 701.821 288.856  10
  -5   3   7 582.318 171.319   5
   5   3  -7 729.604 240.168   2
  -5  -3   7 999.007 328.591  17
   5   3  -7 490.352 187.685   7
  -5  -3   7 1195.25 335.925  13
  -5  -3   7 424.554 277.204   6
   5  -3  -7 1347.27 325.856   3
  -5   3   7 567.041 232.191   1
   5  -3  -6 71712.6 2016.98  10
   5  -3  -6 70204.5 1855.16   3
   5   3  -6 71608.8 1795.60   7
  -5  -3   6 66989.8 1961.97  17
  -5  -3   6 72484.5 2037.39  13
  -5   3   6 66538.9 1878.82   1
  -5  -3   6 65628.2 1998.18   6
   5   3  -6 71570.3 1853.39   5
   5   3  -6 70973.5 1842.80   2
   5  -3  -6 70990.1 1509.62  11
   5  -3  -5 45156.5 1551.74  10
  -5  -3   5 45742.6 1572.59  17
  -5   3   5 47828.4 1359.22  15
   5  -3  -5 42078.0 1450.18   3
   5   3  -5 46207.8 1442.65   7
  -5  -3   5 45777.7 1568.77  13
  -5  -3   5 46685.6 1585.51   6
   5  -3  -5 43999.7 732.269  14
   5   3  -5 46168.3 1491.29   5
   5  -3  -5 45165.2 1136.06  11
  -5  -3   4 18623.0 736.903  11
  -5  -3   4 16475.7 911.801  13
   5  -3  -4 18718.7 981.603  10
  -5   3   4 18825.1 767.043  15
  -5  -3   4 17459.4 951.810  17
  -5   3   4 16882.8 553.559  17
   5  -3  -4 17639.3 941.700   3
   5  -3  -4 19342.6 1013.65   7
   5   3  -4 16784.1 881.559   7
   5  -3  -4 17509.6 594.070  14
  -5   3   4 17262.2 501.951  13
   5   3  -4 17873.5 930.879   5
   5  -3  -4 17918.0 691.807  11
   5  -3  -3 9710.79 691.631  10
  -5   3   3 8658.81 291.827  17
   5   3  -3 9935.68 692.439   7
  -5   3   3 9786.01 482.988  15
   5  -3  -3 8852.87 677.501   3
   5  -3  -3 9502.45 506.045  14
  -5  -3   3 9102.32 677.661  17
  -5  -3   3 9106.23 685.892  13
   5  -3  -3 9067.06 664.892   7
  -5  -3   3 10533.4 653.277  12
   5   3  -3 9020.06 684.119   5
  -5  -3   3 8576.10 504.595  11
   5  -3  -3 8900.20 489.822  11
   5  -3  -2 71112.2 1407.63  11
   5   3  -2 69645.5 949.219  10
  -5  -3   2 71747.3 1763.97  12
   5  -3  -2 75137.4 1910.11  10
  -5   3   2 71460.3 1857.12   8
   5  -3  -2 70944.1 1800.17   7
   5  -3  -2 70708.9 1514.96  14
   5  -3  -2 73111.0 1902.16   3
   5   3  -2 70220.0 1829.50   7
  -5  -3   2 68425.2 1838.74  17
  -5  -3   2 73991.0 1898.02  13
   5   3  -2 74215.4 1920.24   5
  -5  -3   2 72213.1 1452.10  11
  -5   3   1 7774.47 366.849   2
   5  -3  -1 9076.20 675.625  10
  -5  -3   1 8312.36 651.187  17
   5   3  -1 9521.57 708.858   7
   5   3  -1 8155.80 613.976  16
   5  -3  -1 8341.76 597.874   7
   5  -3  -1 8379.40 576.589  14
  -5   3   1 7268.95 618.745   8
  -5  -3   1 8536.05 451.445   8
   5  -3  -1 9282.00 698.234   3
  -5  -3   1 8633.68 660.063  12
   5   3  -1 7665.81 647.009   5
  -5  -3   1 8059.93 502.061  11
   5   3  -1 8281.13 358.925   1
   5   3   0 36841.6 920.735   1
  -5   3   0 36254.7 957.243   2
  -5   3   0 37784.6 1415.73   8
   5   3   0 35304.8 1270.07  16
   5  -3   0 37667.9 1297.65  14
   5  -3   0 37047.9 1392.89   3
   5  -3   0 36635.0 1225.39   7
  -5  -3   0 36497.6 1360.66  12
  -5  -3   0 34672.9 1345.54  17
  -5  -3   0 36993.6 1137.20  11
   5   3   1 15858.6 708.216   1
  -5   3  -1 16828.5 741.711   2
   5   3   1 15898.0 569.349   9
  -5  -3  -1 16246.2 947.594  17
  -5   3  -1 17206.1 995.327   8
   5   3   1 16617.2 896.352  16
  -5  -3  -1 16824.9 842.920   4
   5  -3   1 16192.7 783.884   7
   5  -3   1 17126.8 938.506  14
   5  -3   1 17135.5 961.562   3
   5   3   1 16353.8 949.687  14
  -5  -3  -1 16576.3 965.350  12
  -5  -3  -1 16655.2 806.829  11
   5   3   2 20792.7 904.611   1
  -5   3  -2 19831.0 897.873   2
  -5  -3  -2 20435.2 1105.92  17
   5  -3   2 19450.2 987.305  18
  -5  -3  -2 21896.4 965.775   4
   5   3   2 20712.5 1027.03  16
   5  -3   2 20257.2 847.996   7
   5   3   2 20787.0 1104.43  14
   5  -3   2 20700.2 1079.89   3
   5  -3   2 20252.4 1087.84  14
  -5  -3  -2 22619.1 1174.24  12
  -5  -3  -2 20537.8 964.739  11
   5   3   3 14410.3 821.464   1
  -5   3  -3 14677.5 862.982   2
  -5  -3  -3 14825.0 978.077  17
   5  -3   3 14943.2 917.226  18
   5  -3   3 15494.6 1012.04  14
   5   3   3 14525.9 949.751  14
   5  -3   3 14798.4 920.902   3
   5  -3   3 14254.3 687.486   7
  -5  -3  -3 15555.7 1005.66  12
  -5  -3  -3 14079.5 791.684   4
  -5  -3  -3 15018.7 882.039  11
   5   3   4 51322.8 1668.45   1
  -5   3  -4 47967.6 1653.43   2
   5   3   4 48914.0 1788.04  14
   5  -3   4 53206.9 1822.07  18
   5  -3   4 49674.3 1878.05  14
   5  -3   4 50969.4 1737.29   3
  -5  -3  -4 50677.5 1872.49  12
  -5  -3  -4 50535.3 1872.42  17
  -5  -3  -4 49219.4 1674.78  11
   5   3   5 1713.49 379.884   1
  -5   3  -5 1649.54 389.188   5
   5  -3   5 1775.89 387.228  18
   5  -3   5 1648.84 399.610  14
  -5   3  -5 1752.16 368.944   2
   5  -3   5 1374.68 326.586   3
   5   3   5 2023.64 411.077  14
  -5  -3  -5 1056.99 341.225  17
  -5   3  -5 1177.79 335.512  12
  -5  -3  -5 2549.46 510.069  12
  -5  -3  -5 1650.96 370.325  11
   5   3   6 73271.5 2230.06   1
  -5   3  -6 72130.4 2307.83   5
   5   3   6 74349.1 2351.66  14
  -5   3  -6 72141.1 2325.08   2
  -5  -3  -6 72100.5 2450.64  17
   5  -3   6 73092.7 2388.14  18
   5  -3   6 75577.4 2538.49  14
   5  -3   6 72976.7 2168.02   3
  -5   3  -6 73543.3 2462.99  12
  -5  -3  -6 74366.7 2449.69  12
  -5   3  -7 16403.9 1130.05   5
  -5   3  -7 15552.0 1140.27   2
   5  -3   7 17237.8 1219.75  18
   5   3   7 17530.0 1203.32  14
   5  -3   7 16724.8 1256.08  14
   5  -3   7 16593.6 1060.54   3
  -5   3  -7 16078.6 1191.59  12
  -5  -3  -7 18918.3 1300.77  12
   5   3   7 16743.1 1158.29   1
  -5   3  -8 12774.7 1025.02   5
   5  -3   8 13607.9 971.947   3
  -5   3  -8 12779.1 1095.64   2
   5  -3   8 13745.0 1172.83  14
   5   3   8 12006.6 1034.28  14
   5  -3   8 14818.3 1194.85  18
  -5   3  -8 12878.3 1111.23  12
  -5  -3  -8 13308.5 1127.58  12
   5   3   8 9829.69 1055.96   1
   5  -3   9 174.151 285.200  14
  -5   3  -9 66.9871 216.581   5
   5  -3   9 389.136 333.078  18
  -5   3  -9 211.207 215.632   2
   5   3   9-33.5200 209.677  14
  -5   3  -9 183.057 254.767  12
  -5  -3  -9 368.160 251.637  12
   5  -3  10 664.027 349.123  18
  -5   3 -10 920.247 408.462   2
   5  -3  10 1195.40 443.614  14
   5   3  10 626.419 283.718  14
  -5   3 -10 1301.28 407.621  12
  -5  -3 -10 698.141 396.068  12
   5   3  11 4947.31 847.601   1
   5  -3  11 4233.03 780.846  18
  -5   3 -11 4110.39 718.028   2
   5  -3  11 3810.14 739.598  14
   5   3  11 4203.13 688.623  14
  -5  -3 -11 3987.13 755.505   2
  -5   3 -11 3701.72 672.075  12
  -5  -3 -11 4752.19 760.491  12
  -5   3 -12 7078.31 985.397   2
  -5  -3 -12 6884.22 1009.96   2
   5  -3  12 5860.18 918.529  18
   5   3  12 7598.85 952.437  14
   5  -3  12 8176.95 1076.00  14
  -5   3 -12 7810.87 977.049  12
  -5  -3 -12 8203.48 985.486  12
   5   3  12 6255.50 1001.26   1
   5  -3  13-15.7264 365.669  18
  -5   3 -13 201.094 291.689   2
   5  -3  13 128.884 250.469  14
  -5  -3 -13-304.874 425.391   2
   5   3  13 226.623 364.547   1
  -5   3 -14 4220.58 838.121   2
   5  -3  14 3412.01 741.072  14
   5   3  14 3850.93 835.567   1
  -5  -3 -14 3274.92 713.618  11
   5  -4 -18 407.510 385.050  10
   5   4 -18-199.253 317.555   9
  -5   4  18 426.144 451.703   1
   5   4 -18 46.4789 251.790   2
  -5  -4  18-316.281 415.309  13
  -5   4  18 180.452 263.067   6
   5  -4 -17 1353.61 519.797  10
   5   4 -17 2745.66 660.736   9
  -5  -4  17 1099.60 487.254  17
  -5   4  17 1147.20 510.179  15
  -5   4  17 1049.42 445.700   1
   5   4 -17 1660.05 517.502   2
  -5  -4  17 1773.46 530.575   6
  -5  -4  17 1856.11 602.699  13
   5  -4 -16 1231.30 413.477  11
   5  -4 -16 2263.33 611.694  10
   5   4 -16 901.577 413.325   9
  -5  -4  16 1110.55 436.947  17
  -5   4  16 1320.57 540.145  15
  -5   4  16 1071.48 423.721   1
   5   4 -16 869.239 417.783   2
  -5  -4  16 1187.46 434.279   6
  -5  -4  16 1192.36 452.860  13
   5  -4 -15 13538.0 1277.73  10
  -5   4  15 10393.8 1154.13   1
  -5  -4  15 11322.7 1224.09  17
   5   4 -15 10067.4 1097.57   9
  -5   4  15 13304.3 1334.74  15
  -5  -4  15 13709.2 1351.63  13
  -5  -4  15 11167.1 1127.36   6
   5  -4 -15 12094.4 1110.94  11
   5   4 -15 10202.5 1098.17   2
   5  -4 -14 141.518 223.751  11
   5  -4 -14 593.408 355.388  10
   5   4 -14 651.474 417.148   9
   5   4 -14 109.763 213.403   2
  -5  -4  14-102.602 291.660  17
  -5   4  14 128.850 338.370  15
  -5  -4  14 269.268 353.309  13
  -5  -4  14-36.7890 294.060   6
  -5   4  14-38.1140 313.148   1
   5  -4 -13 21640.8 1495.26  10
   5   4 -13 22767.7 1551.71   9
  -5   4  13 22280.5 1521.38   1
  -5  -4  13 22718.9 1588.16  17
  -5  -4  13 20730.9 1537.26  13
  -5  -4  13 22706.1 1495.70   6
  -5   4  13 22428.6 1591.89  15
   5  -4 -13 23561.8 1411.19  11
   5   4 -13 21104.9 1461.45   2
  -5   4  12 4934.74 736.765  15
  -5   4  12 3662.69 667.260   1
   5  -4 -12 4842.49 697.113  10
   5   4 -12 3831.91 706.994   9
  -5  -4  12 4442.32 701.202  17
   5   4 -12 4056.45 624.160   2
  -5  -4  12 4520.84 713.962  13
  -5  -4  12 4972.99 698.250   6
   5  -4 -12 4280.96 577.476  11
   5  -4 -11 25205.6 1491.29  10
  -5   4  11 24708.7 1471.45   1
  -5  -4  11 24038.6 1512.89  17
  -5   4  11 25800.0 1560.35  15
  -5  -4  11 26005.1 1566.66  13
  -5  -4  11 25250.2 1498.04   6
   5  -4 -11 26331.7 1333.92  11
   5   4 -11 25712.9 1476.85   2
  -5  -4  10 4709.96 690.976   6
   5  -4 -10 6924.60 767.842  10
  -5  -4  10 5463.09 714.588  17
  -5   4  10 5574.64 702.434  15
  -5  -4  10 6000.02 722.916  13
  -5   4  10 5677.07 693.914   1
   5   4 -10 5038.48 560.648   5
   5  -4 -10 5326.06 583.333  11
   5   4 -10 4563.91 625.458   2
   5  -4  -9 36752.0 1666.07  10
  -5  -4   9 35856.6 1701.86  17
  -5   4   9 35855.9 1644.97   1
  -5  -4   9 38805.1 1757.20  13
  -5  -4   9 36390.3 1684.03   6
  -5   4   9 37774.7 1667.18  15
   5   4  -9 36552.1 1315.32   7
   5   4  -9 37703.0 1493.47   5
   5   4  -9 35042.0 1579.30   2
   5  -4  -9 36870.1 1423.48  11
  -5  -4   8 11812.8 951.730  17
   5  -4  -8 12269.4 937.572  10
   5   4  -8 12009.6 761.788   7
   5  -4  -8 11707.5 822.456   3
  -5   4   8 11709.5 884.758  15
  -5   4   8 13308.2 989.353   1
  -5  -4   8 13432.3 1006.38  13
  -5  -4   8 12763.2 961.936   6
   5   4  -8 12827.0 878.445   5
   5   4  -8 12740.2 931.739   2
   5  -4  -8 13064.3 806.067  11
  -5   4   7 18529.3 901.216   5
   5  -4  -7 19321.9 1153.35  10
  -5  -4   7 17445.7 1103.17  17
   5  -4  -7 17890.9 992.089   3
  -5   4   7 16633.8 994.980  15
   5   4  -7 18169.2 929.744   7
  -5   4   7 15954.7 1060.19   1
  -5  -4   7 17744.5 1145.47  13
   5   4  -7 18971.3 1051.56   5
   5   4  -7 20633.2 1125.72   2
   5  -4  -7 18289.1 911.779  11
  -5   4   6 10512.3 713.839   5
   5  -4  -6 10905.3 837.220  10
   5   4  -6 12302.8 767.806   7
   5  -4  -6 10696.5 777.188   3
  -5   4   6 10104.8 717.157  15
  -5  -4   6 11441.1 858.457  13
  -5  -4   6 11475.5 883.838  17
   5   4  -6 11043.7 804.064   5
   5  -4  -6 11259.6 692.101  11
  -5   4   5 4668.36 505.419   5
   5  -4  -5 5580.77 588.312  10
  -5  -4   5 5380.46 587.898  17
  -5   4   5 5270.71 478.933  15
   5  -4  -5 5703.95 577.108   3
   5   4  -5 5548.80 524.823   7
  -5  -4   5 5170.49 587.252  13
   5   4  -5 5813.04 601.314   5
   5  -4  -5 4647.30 430.749  11
  -5  -4   4 3956.23 428.337  11
  -5   4   4 4190.53 482.127   5
   5  -4  -4 3830.87 493.879  10
  -5   4   4 3814.90 374.063  15
  -5  -4   4 4003.02 519.976  17
   5  -4  -4 4627.18 545.677   3
   5  -4  -4 3422.55 286.625  14
  -5  -4   4 3366.50 475.068  13
   5   4  -4 4038.80 490.095   7
   5   4  -4 4068.78 521.723   5
   5  -4  -4 3884.97 385.115  11
  -5   4   3 47095.8 1618.77   5
   5  -4  -3 45767.4 1650.50  10
  -5  -4   3 44793.4 1611.92  17
   5  -4  -3 43741.1 1573.63   3
  -5  -4   3 45400.6 1601.13  13
   5  -4  -3 42505.2 1142.14  14
   5   4  -3 48400.7 1656.41   5
   5   4  -3 47328.1 1573.20   7
  -5  -4   3 47422.4 1355.42  11
   5  -4  -3 45047.9 1292.66  11
   5   4  -2 132.199 214.312   5
  -5  -4   2-31.8406 118.230  11
   5  -4  -2-63.9348 131.588  11
   5  -4  -2 174.260 166.679  10
  -5   4   2-294.314 244.616   5
  -5  -4   2-117.347 211.692  17
  -5   4   2-246.191 223.335   8
  -5  -4   2-142.240 91.0522   8
   5  -4  -2-9.77388 102.207  14
   5   4  -2 252.063 264.396   7
  -5  -4   2 37.2173 146.628  13
   5  -4  -2-175.496 223.041   3
  -5  -4   2-147.811 206.610  12
  -5   4   1 157732. 3152.62   5
   5  -4  -1 164055. 3072.39  10
   5   4  -1 159993. 2954.86  16
   5  -4  -1 158586. 2658.12  14
  -5  -4   1 165599. 3015.05  13
  -5   4   1 163684. 2991.03   8
  -5  -4   1 156256. 3016.79  17
   5  -4  -1 160884. 3073.00   3
  -5  -4   1 166107. 2625.14  11
  -5  -4   1 156711. 2938.85  12
   5   4  -1 161662. 3017.42   5
  -5   4   1 149093. 1787.54   2
  -5   4   0 2210.88 260.972   2
  -5  -4   0 2438.28 347.691  11
   5   4   0 2864.67 462.771   5
   5   4   0 2829.60 298.026   1
  -5   4   0 2058.54 449.107   5
   5   4   0 2731.06 427.361  16
   5  -4   0 2317.13 371.245  14
   5  -4   0 2432.17 436.091   3
  -5   4   0 3252.27 448.539   8
  -5  -4   0 2243.69 397.803  17
  -5  -4   0 2515.60 416.039  12
  -5   4  -1 58534.2 1999.33   5
  -5   4  -1 56397.6 1420.31   2
   5   4   1 56433.9 1372.02   1
   5   4   1 57360.6 1806.39  16
  -5  -4  -1 58199.5 1909.69  17
  -5   4  -1 60360.1 1939.25   8
   5  -4   1 54444.8 1488.81   7
   5  -4   1 54512.0 1758.32  14
   5  -4   1 56076.1 1865.77   3
  -5  -4  -1 54017.9 1676.76   4
  -5  -4  -1 55337.3 1857.01  12
   5   4   1 56378.2 1804.83   5
  -5  -4  -1 58510.5 1676.00  11
  -5  -4  -2 2508.04 371.535  11
  -5  -4  -2 2766.92 462.595  17
  -5  -4  -2 2015.14 344.693   4
   5  -4   2 2332.37 302.745   7
   5   4   2 2615.51 423.719  16
  -5   4  -2 2182.52 320.187   2
   5  -4   2 2153.28 390.455  14
  -5   4  -2 1822.86 385.018   5
   5  -4   2 3024.59 487.229   3
   5   4   2 2664.48 368.131   1
  -5  -4  -2 2812.37 483.574  12
  -5   4  -3 6427.58 696.119   5
  -5   4  -3 7125.36 604.798   2
   5   4   3 6328.60 592.565   1
   5   4   3 6513.09 665.619  16
   5  -4   3 7002.31 722.049  14
   5  -4   3 6480.25 682.203   3
  -5  -4  -3 6238.26 598.217   4
  -5  -4  -3 6331.29 690.451  12
  -5  -4  -3 5802.92 671.764  17
  -5  -4  -3 6547.25 633.368  11
   5   4   4 4140.34 515.327   1
  -5   4  -4 4052.79 504.479   2
   5  -4   4 3483.45 513.676  18
  -5   4  -4 3150.24 520.837   5
   5  -4   4 3603.47 537.410  14
   5   4   4 4041.74 553.220  14
   5  -4   4 3407.60 507.226   3
  -5  -4  -4 4780.78 628.981  17
  -5  -4  -4 4385.22 647.394  12
  -5  -4  -4 4361.79 555.553  11
  -5   4  -5 19982.9 1292.10   5
   5   4   5 20247.5 1144.31   1
  -5   4  -5 19363.3 1139.02   2
   5  -4   5 18813.6 1202.23  18
   5  -4   5 19823.7 1301.88  14
   5   4   5 19060.7 1199.68  14
   5  -4   5 20039.2 1212.52   3
  -5  -4  -5 19316.7 1278.23  17
  -5  -4  -5 20559.4 1286.98  12
  -5  -4  -5 19625.3 1181.33  11
  -5  -4  -6 2846.62 505.391  11
  -5   4  -6 3017.90 527.058   5
   5  -4   6 2373.14 472.121  18
   5   4   6 3325.92 526.567   1
  -5  -4  -6 2916.26 550.657  17
  -5   4  -6 2919.80 497.930   2
   5  -4   6 2533.17 526.396  14
   5   4   6 3049.97 512.703  14
   5  -4   6 2735.41 455.220   3
  -5  -4  -6 4215.07 655.882  12
  -5   4  -7 18365.8 1271.85   5
   5   4   7 16497.4 1190.42   1
  -5   4  -7 17301.9 1219.29   2
   5   4   7 16394.9 1182.36  14
   5  -4   7 18752.3 1375.18  14
   5  -4   7 16491.7 1135.27   3
   5  -4   7 17263.2 1270.05  18
  -5   4  -7 16640.4 1257.85  12
  -5  -4  -7 19594.5 1345.29  12
  -5  -4  -7 16819.8 1207.03  11
  -5  -4  -8 4628.84 680.930  11
   5   4   8 3616.03 609.723   1
  -5   4  -8 3510.44 569.423   5
   5  -4   8 3350.38 627.115  18
  -5   4  -8 3630.67 630.684   2
   5  -4   8 4270.75 606.330   3
   5   4   8 4126.57 618.166  14
   5  -4   8 5158.41 786.681  14
  -5   4  -8 3799.36 664.037  12
  -5  -4  -8 3348.16 613.100  12
   5   4   9 12972.9 1190.36   1
  -5   4  -9 13980.6 1165.88   5
  -5   4  -9 12634.5 1167.23   2
   5   4   9 13471.5 1143.04  14
   5  -4   9 13844.4 1253.26  14
   5  -4   9 13410.4 1240.47  18
  -5   4  -9 14068.8 1229.89  12
  -5  -4  -9 14714.3 1236.39  12
  -5  -4  -9 14311.2 1235.69  11
  -5  -4 -10 3835.71 710.494  11
   5   4  10 4051.78 717.140   1
   5  -4  10 5369.12 837.017  18
  -5   4 -10 3731.94 670.422   2
   5   4  10 3662.65 641.110  14
   5  -4  10 4676.76 803.482  14
  -5   4 -10 3544.16 668.373  12
  -5  -4 -10 4723.10 743.411  12
  -5   4 -11 12067.5 1248.89   2
   5  -4  11 14379.4 1399.20  14
   5   4  11 12750.5 1175.88  14
  -5   4 -11 13179.9 1254.70  12
  -5  -4 -11 15287.2 1334.82  12
   5  -4  11 13012.8 1319.29  18
  -5  -4 -11 13937.9 1316.72  11
   5   4  11 13174.8 1267.11   1
  -5  -4 -12 1285.44 511.664  11
   5   4  12 1631.31 538.827   1
   5  -4  12 711.160 377.545  18
  -5   4 -12 759.352 399.024   2
   5  -4  12 768.961 395.351  14
  -5  -4 -12 877.479 431.518   2
  -5   4 -12 1436.67 477.825  12
  -5  -4 -12 746.012 360.408  12
  -5  -4 -13 4724.57 897.561  11
   5  -4  13 4830.20 893.711  18
  -5   4 -13 4600.45 866.814   2
   5  -4  13 2705.83 662.915  14
  -5  -4 -13 2854.70 688.925   2
   5   4  13 3863.69 838.260   1
   5  -5 -17 399.235 301.944  10
   5   5 -17 211.774 298.173   2
   5   5 -17 446.901 382.036   9
  -5  -5  17 589.622 337.540  17
  -5   5  17-214.325 336.030  15
  -5   5  17 402.328 446.323   1
  -5  -5  17 224.030 304.000  13
   5  -5 -16 10406.2 1176.33  10
  -5   5  16 8697.21 1175.92   1
  -5   5  16 10918.7 1295.30  15
   5   5 -16 9374.13 1133.41   9
  -5  -5  16 10290.7 1220.24  17
  -5  -5  16 9198.90 1200.22  13
   5   5 -16 9569.43 1155.88   2
   5  -5 -15 3186.82 607.810  11
   5  -5 -15 3746.93 714.100  10
   5   5 -15 3837.32 750.834   9
  -5  -5  15 5013.31 836.306  17
  -5   5  15 4773.74 839.661  15
   5   5 -15 2995.72 663.925   2
  -5  -5  15 4116.56 756.863  13
  -5   5  15 3991.96 807.080   1
   5  -5 -14 16069.2 1354.17  10
  -5   5  14 17674.8 1503.27   1
   5   5 -14 17690.7 1471.83   9
  -5  -5  14 19144.2 1548.21  17
  -5   5  14 19531.4 1586.64  15
  -5  -5  14 18453.3 1561.36  13
   5  -5 -14 17892.3 1327.03  11
   5   5 -14 16246.3 1398.07   2
   5  -5 -13 1095.50 356.743  11
  -5   5  13 136.745 287.150   1
   5  -5 -13 561.363 346.741  10
   5   5 -13 353.915 274.878   2
   5   5 -13 1624.53 546.450   9
  -5   5  13 870.980 394.358  15
  -5  -5  13 1029.81 410.743  17
  -5  -5  13 1125.22 391.377  13
   5  -5 -12 1931.15 417.468  11
  -5   5  12 1875.34 466.356  15
   5  -5 -12 2427.34 532.458  10
   5   5 -12 1641.46 475.278   2
  -5  -5  12 1903.25 499.751  17
  -5   5  12 678.328 337.662   1
  -5  -5  12 1788.02 475.129  13
   5  -5 -11 2989.63 484.893  11
   5   5 -11 3164.64 513.520   5
   5  -5 -11 2279.08 498.583  10
   5   5 -11 3329.21 593.639   2
  -5  -5  11 3803.48 630.996  17
  -5   5  11 3136.46 575.576  15
  -5   5  11 2078.98 449.886   1
  -5  -5  11 3027.67 565.806  13
   5  -5 -10 191.219 161.100  11
   5   5 -10 410.564 275.991   5
   5  -5 -10 450.809 268.499  10
  -5   5  10 913.952 346.379  15
   5   5 -10 604.016 285.982   2
  -5  -5  10 292.566 254.734  13
  -5  -5  10 472.806 213.061  17
  -5   5  10 1094.83 427.073   1
   5  -5  -9 195.397 174.675  11
   5   5  -9 163.383 234.884   5
  -5   5   9 396.652 315.167   1
   5  -5  -9 537.173 309.954  10
   5   5  -9 390.998 246.045   2
  -5  -5   9 468.139 307.115  17
  -5   5   9-35.8528 169.092  15
  -5  -5   9-22.5006 213.835  13
   5  -5  -8 41155.7 1812.66  10
   5   5  -8 40812.5 1425.86   7
  -5  -5   8 37762.1 1739.20  17
   5  -5  -8 37920.2 1520.53   3
  -5   5   8 37090.9 1624.47  15
  -5   5   8 36680.8 1735.47   1
  -5  -5   8 40368.6 1822.26  13
   5   5  -8 37440.0 1612.26   5
   5   5  -8 38965.0 1728.68   2
   5  -5  -8 38942.8 1506.78  11
   5  -5  -7 1880.82 327.756  11
   5   5  -7 1859.83 419.140   5
   5  -5  -7 1741.98 403.142  10
  -5   5   7 1772.62 314.806   5
  -5  -5   7 1419.23 390.969  17
  -5   5   7 1675.45 360.086  15
   5  -5  -7 1824.16 380.612   3
  -5  -5   7 1774.07 415.808  13
  -5   5   7 1294.45 389.308   1
   5   5  -7 1706.96 380.621   2
   5   5  -7 2266.10 375.091   7
  -5   5   6 134137. 2715.93   5
   5  -5  -6 139719. 3155.27  10
   5  -5  -6 133112. 2861.59   3
  -5  -5   6 138447. 3132.19  17
  -5   5   6 134464. 2730.71  15
   5   5  -6 137978. 2684.96   7
  -5  -5   6 144292. 3201.95  13
   5   5  -6 135782. 3035.50   5
   5  -5  -6 129154. 2564.08  11
   5  -5  -5 322.009 158.994  11
   5   5  -5 512.669 283.418   5
   5  -5  -5 665.359 232.754  10
   5  -5  -5 605.091 292.265   3
  -5   5   5 384.086 219.321   5
  -5  -5   5 206.032 209.815  17
   5   5  -5 384.904 196.517   7
  -5  -5   5 719.916 240.965  13
  -5  -5   4 68685.5 1868.92  11
  -5   5   4 66743.7 2026.15   5
   5  -5  -4 66337.4 2126.47  10
   5  -5  -4 65039.3 2021.31   3
   5   5  -4 69965.2 1980.15   7
  -5  -5   4 65890.7 2088.26  13
  -5  -5   4 70516.5 2166.65  17
   5   5  -4 68156.0 2136.59   5
   5  -5  -4 64768.3 1767.72  11
  -5   5   3 12816.3 913.235   5
   5  -5  -3 13113.6 951.593  10
  -5  -5   3 12288.7 931.121  17
   5   5  -3 12523.7 874.944   7
   5  -5  -3 11878.9 896.485   3
  -5  -5   3 12073.6 875.435  13
  -5   5   3 11788.9 842.387   8
   5  -5  -3 12310.3 675.083  14
   5   5  -3 11134.6 897.844   5
  -5  -5   3 12158.0 784.419  11
   5  -5  -3 12185.4 762.371  11
  -5  -5   2 1933.45 327.717  11
   5   5  -2 2006.38 451.443   5
   5  -5  -2 1654.68 288.077  11
  -5   5   2 1627.06 336.749   8
   5  -5  -2 1853.31 404.511  10
  -5   5   2 1520.94 360.377   5
  -5  -5   2 1920.71 376.831  13
  -5  -5   2 1526.45 376.146  17
   5  -5  -2 1683.77 370.171   3
  -5  -5   1 1472.65 301.927  11
   5   5  -1 1002.42 308.498   5
  -5  -5   1 1871.56 381.499  17
  -5   5   1 1580.25 329.650   8
   5   5  -1 802.829 273.183  16
  -5  -5   1 1292.32 313.096  13
  -5   5   1 1249.01 371.060   5
   5  -5  -1 1610.11 384.179   3
  -5   5   0 9376.06 857.381   5
  -5  -5   0 8751.38 796.464  17
  -5   5   0 7923.56 722.842   8
  -5  -5   0 7863.85 724.854   4
   5  -5   0 6883.85 699.172   3
  -5  -5   0 7315.42 684.191  13
   5   5   0 7183.00 699.456  16
   5   5   0 8267.12 777.124   5
  -5   5   0 7789.21 513.230   2
  -5  -5   0 8450.04 684.512  11
  -5   5  -1 15142.0 1089.47   5
   5   5   1 16430.9 798.105   1
  -5  -5  -1 16171.2 1092.58  17
   5   5   1 16670.7 1079.75  16
   5  -5   1 15194.8 1043.15   3
  -5  -5  -1 14411.4 969.676   4
  -5  -5  -1 15312.5 1037.56  12
   5   5   1 13873.5 978.820   5
  -5  -5  -1 15729.2 958.064  11
  -5   5  -1 16874.7 820.864   2
  -5   5  -2 56418.8 1636.57   2
  -5   5  -2 56535.9 2129.92   5
   5   5   2 54799.8 1595.52   1
   5  -5   2 55353.5 2029.57   3
   5   5   2 56899.9 2023.49  16
  -5  -5  -2 57228.8 2079.21  17
  -5  -5  -2 57135.3 1922.43   4
  -5  -5  -2 55564.2 2028.97  12
   5   5   2 53517.0 1905.24   5
  -5  -5  -2 55531.2 1855.97  11
  -5  -5  -3 332.892 195.625  11
  -5   5  -3 213.293 279.143   5
  -5  -5  -3 233.586 237.184  17
   5   5   3 501.687 237.841   1
  -5   5  -3 353.490 153.616   2
   5   5   3 374.834 270.038  16
  -5  -5  -3 765.581 266.240   4
   5  -5   3 880.507 323.500   3
  -5  -5  -3 796.146 379.641  12
  -5   5  -4 72856.2 2502.47   5
  -5   5  -4 77137.5 2207.98   2
   5   5   4 73764.9 2115.17   1
  -5  -5  -4 68755.5 2427.91  17
   5   5   4 81938.2 2560.66  16
   5  -5   4 79365.1 2582.06  14
   5  -5   4 71708.8 2400.97   3
  -5  -5  -4 75895.9 2513.60  12
  -5  -5  -4 74275.5 2310.95  11
  -5  -5  -5 2404.56 457.169  11
  -5   5  -5 1893.92 423.248   5
  -5  -5  -5 2992.75 574.971  17
   5   5   5 3126.71 502.375   1
  -5   5  -5 2091.64 398.489   2
   5  -5   5 3390.64 592.740  14
   5  -5   5 2614.33 497.330   3
  -5  -5  -5 2590.27 493.103  12
  -5   5  -6 13432.5 1139.86   5
  -5   5  -6 13238.5 1038.52   2
   5   5   6 11861.0 975.109   1
   5  -5   6 14280.1 1197.90  14
   5  -5   6 13549.1 1093.74   3
  -5  -5  -6 13232.0 1160.27  17
  -5  -5  -6 13679.9 1138.27  12
  -5  -5  -6 13537.8 1086.58  11
  -5  -5  -7 202.601 238.958  11
   5  -5   7 154.553 206.942   3
  -5   5  -7 444.133 307.537   5
   5   5   7 181.403 287.043   1
  -5   5  -7 222.294 236.011   2
   5  -5   7 162.746 268.773  14
  -5  -5  -7-188.903 312.601  17
  -5  -5  -7-14.7066 309.260  12
  -5  -5  -8 70.6248 291.074  11
   5  -5   8-363.752 380.975  18
  -5   5  -8 317.935 238.011   5
   5   5   8 19.6754 303.406   1
  -5   5  -8 813.670 339.874   2
   5  -5   8 268.541 280.070  14
  -5   5  -8 357.952 343.362  12
   5  -5   8 122.501 223.031   3
  -5  -5  -8 433.536 280.862  12
  -5  -5  -9 1170.09 458.508  11
   5  -5   9 2039.44 570.141  14
   5   5   9 1457.03 484.971   1
  -5   5  -9 1498.57 427.384   5
   5  -5   9 1567.53 435.078  18
  -5   5  -9 1482.60 435.488   2
   5  -5   9 236.754 243.255   3
  -5   5  -9 1201.32 416.591  12
  -5  -5  -9 1682.46 498.078  12
  -5  -5 -10 3261.04 654.013  11
   5   5  10 4549.34 736.728   1
   5  -5  10 4633.86 821.971  14
   5  -5  10 3300.28 688.320  18
  -5   5 -10 3966.47 714.366   2
  -5   5 -10 4415.75 738.463  12
  -5  -5 -10 4734.05 793.411  12
  -5  -5 -11 191.821 291.023  11
   5  -5  11 589.891 433.415  14
   5   5  11-333.241 431.664   1
   5  -5  11 176.787 299.642  18
  -5   5 -11 106.945 257.304  12
  -5  -5 -11-261.254 331.234  12
  -5   5 -12 9776.53 1193.83   2
   5  -5  12 7080.53 1045.73  18
   5  -5  12 9783.16 1204.44  14
  -5   5 -12 9683.81 1153.77  12
  -5  -5 -12 8460.51 1028.83  12
  -5  -5 -12 11489.5 1297.35  11
   5   5  12 8265.88 1140.79   1
  -5  -5 -13 1896.78 600.099  11
   5   5  13 1023.65 464.074   1
  -5   5 -13 1338.34 512.191   2
   5  -6 -17 4183.76 795.243  10
   5  -6 -16 696.660 358.394  10
  -5  -6  16 719.100 370.990  17
   5   6 -16 2.49750 262.191   2
  -5   6  16 118.671 217.194  15
   5   6 -16 1259.01 533.084   9
  -5   6  16 634.499 391.112   1
  -5  -6  16-159.621 319.598  13
   5  -6 -15 5799.56 890.306  10
  -5  -6  15 7420.02 1043.47  13
  -5   6  15 7131.32 1042.18  15
   5   6 -15 7469.15 1027.30   9
  -5  -6  15 6376.24 961.645  17
  -5   6  15 5157.57 901.033   1
   5   6 -15 7748.91 1028.66   2
   5  -6 -15 6605.22 893.918  11
  -5   6  14 657.284 397.738   1
   5  -6 -14 821.911 377.501  11
   5  -6 -14 639.449 337.873  10
   5   6 -14 580.803 362.265   2
   5   6 -14 1630.61 603.532   9
  -5  -6  14 297.955 255.052  17
  -5  -6  14 1079.10 466.098  13
  -5   6  14 27.5955 231.913  15
   5  -6 -13 11346.5 1134.96  10
  -5  -6  13 10344.6 1143.79  17
  -5   6  13 11185.7 1194.82  15
  -5  -6  13 12100.3 1267.97  13
  -5   6  13 11522.3 1183.42   1
   5   6 -13 10413.4 1142.41   2
   5  -6 -13 11185.3 1063.72  11
   5  -6 -12-177.358 221.092  11
   5  -6 -12-19.1486 229.015  10
  -5   6  12-438.735 481.951   1
   5   6 -12 200.232 350.495   2
  -5  -6  12 161.780 261.343  17
  -5   6  12 66.6296 215.461  15
  -5  -6  12-8.73328 299.159  13
   5  -6 -11 10241.8 1032.22  10
  -5  -6  11 10542.2 1085.64  17
  -5   6  11 11143.0 1125.27   1
  -5   6  11 11769.4 1119.31  15
  -5  -6  11 11724.1 1174.90  13
   5   6 -11 11226.0 1007.18   5
   5   6 -11 10734.2 1081.61   2
   5  -6 -11 11133.9 993.318  11
   5  -6 -10 4713.55 681.910  10
   5   6 -10 4885.85 733.201   2
  -5  -6  10 5781.67 796.623  13
  -5  -6  10 4445.85 719.209  17
  -5   6  10 4396.01 667.727  15
   5   6 -10 5912.39 742.101   5
  -5   6  10 4793.44 772.775   1
   5  -6 -10 5636.96 690.209  11
   5  -6  -9 10688.2 991.977  10
  -5  -6   9 11195.6 1044.49  17
   5  -6  -9 10712.0 854.894   3
  -5   6   9 10750.1 972.919  15
  -5   6   9 11624.9 1110.44   1
  -5  -6   9 11835.4 1094.06  13
   5   6  -9 10777.1 968.422   5
   5   6  -9 10500.8 1002.15   2
   5  -6  -9 11261.0 919.664  11
   5  -6  -8-15.7384 188.784  11
   5   6  -8 167.069 281.798   5
   5  -6  -8 24.0395 233.502  10
  -5  -6   8 248.223 265.388  17
  -5   6   8 513.209 265.514  15
   5  -6  -8 125.753 173.539   3
  -5  -6   8-80.2734 313.681  13
  -5   6   8 73.5174 244.175   1
   5   6  -8-181.802 206.227   2
   5  -6  -7 15231.7 1131.08  10
  -5  -6   7 15108.7 1131.09  17
   5   6  -7 14349.8 915.108   7
   5  -6  -7 15376.7 1025.91   3
  -5   6   7 12116.2 1049.75   1
  -5  -6   7 15012.4 1146.96  13
   5   6  -7 14146.7 1084.80   5
   5  -6  -7 14572.1 981.901  11
  -5   6   7 14566.0 955.933   5
   5  -6  -6 9158.78 877.836  10
  -5  -6   6 9776.38 890.403  17
   5   6  -6 10195.8 776.970   7
  -5  -6   6 11289.4 968.063  13
   5  -6  -6 10868.9 872.784   3
   5   6  -6 10698.3 952.474   5
   5  -6  -6 9865.12 800.132  11
  -5   6   6 9887.04 796.688   5
   5  -6  -5 16046.7 1138.20  10
  -5  -6   5 18687.8 1227.47  17
   5  -6  -5 16312.5 1072.81   3
   5   6  -5 17461.5 1043.59   7
  -5  -6   5 18062.3 1190.98  13
   5   6  -5 16881.7 1169.72   5
   5  -6  -5 18108.2 1044.29  11
  -5   6   5 18926.5 1140.72   5
   5  -6  -4 2071.05 377.434  11
   5   6  -4 2370.61 525.366   5
  -5  -6   4 1782.95 380.888  11
  -5   6   4 2245.90 419.603   8
  -5   6   4 2436.80 438.848   5
   5  -6  -4 1872.06 429.415  10
   5   6  -4 2267.75 440.335   7
  -5  -6   4 1842.33 403.858  17
  -5  -6   4 1776.78 417.690  13
   5  -6  -4 1755.34 376.927   3
  -5   6   3 41371.9 1763.30   5
   5  -6  -3 44833.8 1864.77  10
   5   6  -3 40781.1 1790.30   5
  -5  -6   3 40104.4 1745.30  17
  -5   6   3 42473.5 1634.02   8
   5  -6  -3 40772.1 1737.96   3
  -5  -6   3 44610.4 1782.31  13
   5   6  -3 43819.1 1711.23   7
  -5  -6   3 40512.4 1597.61  11
   5  -6  -3 41481.4 1570.18  11
   5  -6  -2 4733.98 544.691  11
  -5   6   2 5005.46 644.872   5
   5   6  -2 3705.01 586.833   5
  -5  -6   2 4446.37 564.159  13
  -5  -6   2 4121.41 586.616  17
  -5   6   2 3873.13 507.347   8
   5  -6  -2 5010.93 622.140   3
  -5  -6   2 4403.46 539.596  11
  -5   6   1 26578.6 1472.07   5
   5  -6  -1 28968.5 1335.86  11
   5  -6  -1 28687.2 1492.49   3
  -5  -6   1 30766.6 1530.62   4
   5   6  -1 30900.8 1554.25  16
  -5   6   1 28150.8 1378.95   8
  -5  -6   1 25020.5 1389.03  17
  -5  -6   1 28073.1 1384.96  13
   5   6  -1 28828.7 1485.70   5
  -5  -6   1 28572.9 1350.23  11
  -5   6   0 8605.49 888.560   5
  -5  -6   0 7145.07 758.146  17
  -5   6   0 9465.83 834.902   8
  -5  -6   0 8401.51 808.724   4
   5   6   0 9041.63 877.090  16
   5  -6   0 8126.60 828.069   3
  -5  -6   0 8388.80 768.323  13
   5   6   0 7318.56 799.529   5
  -5  -6   0 8845.83 763.361  11
  -5   6  -1 18747.5 1305.98   5
  -5  -6  -1 18036.3 1181.16   4
  -5  -6  -1 16893.0 1177.47  17
   5  -6   1 16341.7 1173.81   3
   5   6   1 18779.0 1252.81  16
  -5  -6  -1 17433.5 1102.19  13
   5   6   1 17796.8 1180.02   5
  -5  -6  -1 17886.7 1112.37  11
  -5  -6  -2-139.267 219.311  11
   5   6   2-279.693 284.316   5
  -5   6  -2 259.428 321.214   5
  -5   6  -2-104.064 137.878   2
  -5  -6  -2-180.351 243.358   4
   5   6   2-108.908 225.715  16
   5  -6   2 172.251 256.610   3
  -5  -6  -2-137.428 242.771  17
  -5   6  -3 23881.0 1516.16   5
   5   6   3 27257.0 1262.22   1
   5  -6   3 26343.9 1540.56   3
   5   6   3 28086.6 1580.97  16
  -5  -6  -3 26556.9 1452.73   4
   5   6   3 25046.3 1375.57   5
  -5  -6  -3 25959.3 1528.42  17
  -5  -6  -3 27564.3 1465.30  11
  -5   6  -3 26033.1 1258.97   2
  -5   6  -4 16623.0 1288.84   5
  -5   6  -4 16656.6 1072.84   2
   5   6   4 18751.2 1129.35   1
  -5  -6  -4 18471.8 1330.86  17
   5   6   4 20552.2 1379.78  16
   5  -6   4 15756.1 1213.57   3
  -5  -6  -4 16948.7 1187.13  11
  -5   6  -5 18990.7 1399.12   5
  -5   6  -5 18148.7 1186.04   2
   5   6   5 16791.9 1150.33   1
  -5  -6  -5 19326.2 1422.80  17
   5   6   5 20354.5 1423.51  16
   5  -6   5 20079.8 1373.01   3
  -5  -6  -5 19533.3 1403.31  12
  -5  -6  -5 17386.9 1250.58  11
  -5  -6  -6 68.0904 219.015  11
  -5   6  -6 369.969 315.398   5
   5  -6   6 352.792 340.684  14
  -5  -6  -6 197.062 303.915  17
  -5   6  -6 325.449 255.607   2
   5  -6   6 217.106 270.792   3
   5   6   6 368.062 325.352   1
  -5  -6  -6 56.1614 333.024  12
  -5   6  -7 12435.8 1088.10   2
   5   6   7 15245.3 1219.85   1
   5  -6   7 13466.0 1267.26  14
   5  -6   7 12464.1 1144.44   3
  -5  -6  -7 15042.0 1365.13  17
  -5  -6  -7 13089.1 1217.80  12
  -5  -6  -7 13775.7 1202.56  11
  -5   6  -7 14970.8 1279.76   5
  -5   6  -8 7977.93 940.674   2
   5   6   8 10368.6 1060.40   1
   5  -6   8 9691.47 1118.63  14
   5  -6   8 8249.73 942.241   3
  -5  -6  -8 9535.27 1058.98  12
  -5  -6  -8 8081.71 960.263  11
  -5   6  -8 9971.43 1069.99   5
  -5  -6  -9 4745.85 780.304  11
  -5   6  -9 6120.72 853.943   2
  -5   6  -9 4784.90 760.167   5
   5   6   9 5096.67 776.310   1
   5  -6   9 5314.21 885.866  14
   5  -6   9 5707.93 797.350   3
  -5   6  -9 5528.34 846.249  12
  -5  -6  -9 4909.29 772.340  12
  -5  -6 -10-317.812 351.939  11
  -5   6 -10 235.152 258.318   5
   5   6  10 231.124 391.877   1
  -5   6 -10 137.617 288.521   2
   5  -6  10 446.253 363.486  14
   5  -6  10 18.6518 215.204   3
  -5   6 -10-303.434 371.717  12
  -5  -6 -10-480.873 361.680  12
  -5  -6 -11 3754.62 754.835  11
   5   6  11 2897.86 676.291   1
   5  -6  11 4039.86 859.909  14
  -5   6 -11 3391.23 699.913   2
  -5   6 -11 3021.63 664.779  12
  -5  -6 -12 1060.87 502.680  11
   5   6  12 443.301 375.819   1
  -5   6 -12 1186.63 491.502   2
   5  -6  12 2032.07 594.851  14
  -5   6 -12 1255.37 488.077  12
   5  -7 -16 128.939 235.726  10
  -5  -7  15 335.817 251.907  17
   5  -7 -15 286.759 262.759  10
   5   7 -15 1265.13 554.188   9
   5   7 -15 62.1284 257.961   2
  -5  -7  15 682.475 395.870  13
  -5   7  15 239.423 375.388   1
   5  -7 -14 3771.19 690.669  11
  -5   7  14 4496.87 850.922   1
   5  -7 -14 4354.28 765.002  10
   5   7 -14 4297.09 795.150   2
  -5  -7  14 3355.37 708.429  17
  -5  -7  14 5156.00 907.116  13
   5  -7 -13-302.408 300.551  11
   5  -7 -13-200.048 208.960  10
  -5   7  13 185.042 425.755   1
   5   7 -13 121.901 271.922   2
  -5  -7  13 26.8338 288.987  17
  -5  -7  13 82.0685 262.213  13
   5  -7 -12 18546.0 1465.87  10
  -5   7  12 18521.3 1547.79   1
  -5  -7  12 18859.8 1520.22  17
  -5  -7  12 20318.9 1657.47  13
   5   7 -12 20857.9 1620.44   2
   5  -7 -12 19455.0 1424.46  11
   5  -7 -11 536.636 315.569  11
   5   7 -11 760.019 390.864   5
   5  -7 -11 342.809 304.964  10
   5   7 -11 353.087 292.673   2
  -5  -7  11 592.956 347.549  17
  -5   7  11 610.489 453.836   1
  -5  -7  11 411.988 390.048  13
   5  -7 -10 24148.2 1585.89  10
  -5  -7  10 21395.0 1526.69  17
  -5   7  10 23876.1 1668.66   1
  -5  -7  10 27424.3 1762.73  13
   5   7 -10 23400.5 1532.78   5
   5   7 -10 22439.1 1578.94   2
   5  -7 -10 24987.9 1522.68  11
   5  -7  -9-131.929 158.418  11
   5   7  -9 675.060 351.112   5
   5  -7  -9 358.563 292.265  10
  -5   7   9-170.118 317.443   1
  -5  -7   9 264.637 238.172  17
  -5  -7   9 175.146 256.025  13
   5  -7  -8 3311.05 532.618  11
   5   7  -8 2619.42 562.927   5
   5  -7  -8 3702.74 613.104  10
   5  -7  -8 4353.84 576.140   3
  -5  -7   8 3249.04 594.764  17
  -5  -7   8 4277.03 675.426  13
  -5   7   8 2669.40 562.652   1
   5  -7  -7 3605.52 544.116  11
   5   7  -7 3297.28 592.348   5
   5  -7  -7 3964.92 630.964  10
  -5  -7   7 2398.55 485.477  17
   5  -7  -7 3539.70 548.708   3
  -5  -7   7 3384.81 586.269  13
  -5   7   7 2474.45 561.390   1
   5  -7  -6 3390.03 528.518  11
   5   7  -6 3064.65 581.997   5
  -5   7   6 3515.07 518.369   5
   5  -7  -6 3782.04 631.219  10
  -5  -7   6 3510.27 563.914  17
   5   7  -6 3806.88 516.466   7
   5  -7  -6 3323.37 540.083   3
  -5  -7   6 4383.22 633.458  13
   5  -7  -5 77.9563 178.107  11
   5   7  -5 580.740 354.836   5
  -5  -7   5-134.873 179.949  11
  -5   7   5-102.804 262.103   5
   5  -7  -5 73.7543 278.257  10
   5   7  -5-66.4679 178.952   7
  -5  -7   5 138.381 262.045  17
   5  -7  -5 324.365 221.093   3
  -5   7   5-427.761 250.259   8
  -5  -7   5-131.943 210.902  13
  -5  -7   4 28029.7 1463.40  11
   5  -7  -4 28703.3 1592.27  10
  -5  -7   4 28851.9 1577.46  17
  -5   7   4 28320.4 1379.78   8
   5   7  -4 26912.5 1410.90   7
   5  -7  -4 30657.8 1571.97   3
  -5  -7   4 30022.8 1584.74  13
   5   7  -4 27633.7 1609.91   5
  -5   7   4 28994.5 1554.29   5
   5  -7  -4 30080.6 1460.77  11
   5  -7  -3 16091.3 1190.60  10
   5  -7  -3 17196.0 1204.89   3
  -5  -7   3 15607.0 1157.30  17
  -5  -7   3 18620.3 1313.26   4
   5   7  -3 16558.1 1129.46   7
  -5  -7   3 17580.1 1190.48  13
   5   7  -3 16946.1 1260.28   5
  -5   7   3 15792.0 1048.10   8
  -5   7   3 15585.1 1165.33   5
  -5  -7   3 15910.8 1095.06  11
   5  -7  -3 16756.5 1104.32  11
   5  -7  -2 54714.5 1983.79  11
  -5  -7   2 50522.1 2128.12   4
  -5   7   2 54743.1 1958.06   8
   5  -7  -2 49996.8 2058.88   3
  -5  -7   2 57069.7 2096.14  13
  -5  -7   2 50672.3 2068.12  17
   5   7  -2 53088.7 2169.48   5
  -5   7   2 52807.9 2169.56   5
  -5  -7   2 53843.1 2004.28  11
  -5  -7   1-51.0309 208.244  11
   5   7  -1 285.384 309.884   5
   5  -7  -1 623.792 282.009  11
  -5   7   1 27.7546 294.869   5
  -5   7   1 64.9806 146.787   8
  -5  -7   1-162.540 245.418  17
  -5  -7   1 122.957 204.197   4
   5   7  -1 159.118 244.665  16
  -5  -7   1-179.885 225.368  13
   5  -7  -1-224.718 238.449   3
  -5  -7   0 39976.8 1877.65  17
  -5  -7   0 41934.6 1935.87   4
   5   7   0 44904.2 2032.40  16
   5  -7   0 42362.2 1952.85   3
  -5  -7   0 45062.9 1835.29  13
   5   7   0 40806.3 1887.35   5
  -5  -7   0 43944.1 1853.36  11
  -5   7   0 41281.0 2002.13   5
  -5  -7  -1 12118.7 1066.41   4
  -5  -7  -1 12491.7 1080.58  17
   5   7   1 13528.4 1150.45  16
   5  -7   1 12223.4 1099.08   3
  -5  -7  -1 12444.1 985.408  13
   5   7   1 12237.7 1056.29   5
  -5  -7  -1 13861.2 1066.50  11
  -5   7  -1 12240.9 1125.49   5
   5   7   2 14062.8 1191.57  16
   5  -7   2 12716.1 1113.82   3
  -5  -7  -2 13416.7 1022.87  13
  -5  -7  -2 12756.4 1084.57   4
  -5  -7  -2 13766.6 1156.67  17
   5   7   2 12516.7 1045.31   5
  -5  -7  -2 13317.4 1063.70  11
  -5   7  -2 13539.3 1196.24   5
  -5  -7  -3 447.828 282.243  11
   5   7   3 661.192 313.378   5
  -5   7  -3 578.427 392.426   5
  -5  -7  -3 840.745 343.675  17
   5   7   3 530.176 327.655  16
  -5  -7  -3 543.499 266.332  13
   5  -7   3 531.365 343.217   3
  -5  -7  -4 1429.58 419.017  11
  -5   7  -4 692.254 343.473   5
   5   7   4 1935.55 483.464  16
   5  -7   4 1751.15 445.251   3
   5   7   4 822.090 326.240   5
  -5  -7  -4 1567.44 456.442  17
  -5  -7  -5 2092.97 499.247  11
  -5   7  -5 719.015 365.976   5
  -5  -7  -5 2021.07 565.459  17
   5   7   5 2359.51 523.177  16
  -5   7  -5 1836.73 411.739   2
   5  -7   5 2209.98 525.933   3
  -5  -7  -6 2400.42 564.935  11
  -5   7  -6 2039.15 499.848   5
  -5  -7  -6 2205.14 581.329  17
  -5   7  -6 2024.17 463.973   2
   5   7   6 2314.66 513.508   1
   5   7   6 2243.74 586.085  16
   5  -7   6 1799.93 511.939   3
  -5  -7  -7-95.9031 241.649  11
  -5   7  -7 419.418 381.510   5
  -5  -7  -7 596.761 386.792  17
   5   7   7 530.595 416.232  16
   5   7   7 238.378 296.268   1
   5  -7   7 509.701 402.945  14
  -5   7  -7 172.488 244.063   2
   5  -7   7 311.161 269.026   3
  -5   7  -8 12641.9 1189.18   2
   5   7   8 13221.1 1211.14   1
   5   7   8 12475.1 1292.71  16
   5  -7   8 12062.1 1278.25  14
   5  -7   8 11994.6 1213.72   3
  -5  -7  -8 11735.5 1206.48  11
  -5   7  -8 11530.8 1211.60   5
  -5  -7  -9-92.1941 246.907  11
  -5   7  -9 90.3585 266.091   5
   5   7   9 684.801 388.256   1
   5  -7   9 35.9416 289.529  14
   5  -7   9-39.0877 255.700   3
  -5   7  -9 63.1466 179.801   2
  -5   7 -10 12884.7 1301.85   2
   5   7  10 13493.7 1306.67   1
   5  -7  10 14024.6 1455.68  14
   5  -7  10 13468.7 1322.82   3
  -5   7 -10 12763.1 1325.52  12
  -5  -7 -10 11399.2 1283.91  11
  -5   7 -10 13067.4 1318.52   5
  -5  -7 -11 616.297 397.992  11
   5   7  11 599.365 378.387   1
  -5   7 -11 201.894 303.694   2
   5  -7  11 179.120 335.915  14
  -5   7 -11 729.039 383.934  12
  -5   8  14 195.072 385.137   1
   5  -8 -14 844.766 374.896  10
   5   8 -14 163.005 241.024   2
  -5  -8  14 912.025 459.764  13
  -5  -8  14 424.601 268.837  17
   5  -8 -13 527.021 325.693  11
   5  -8 -13-10.8715 260.664  10
  -5   8  13-170.084 416.564   1
  -5  -8  13 154.154 235.923  17
   5   8 -13 476.383 302.646   2
  -5  -8  13-21.8470 296.487  13
   5  -8 -12 859.436 372.558  11
   5   8 -12 1343.14 493.759   5
   5  -8 -12 741.225 344.453  10
   5   8 -12 538.858 391.709   2
  -5  -8  12 1493.48 494.145  17
  -5   8  12-56.3105 426.730   1
  -5  -8  12 1502.33 567.468  13
   5  -8 -11 11748.6 1187.10  10
  -5   8  11 8673.81 1124.92   1
  -5  -8  11 10317.6 1141.54  17
  -5  -8  11 9576.55 1165.78  13
   5   8 -11 10789.4 1150.73   5
   5   8 -11 10877.4 1192.05   2
   5  -8 -11 9358.07 1031.05  11
  -5   8  10 565.094 389.208   1
   5  -8 -10 28.6022 206.603  11
   5   8 -10 567.530 417.676   5
   5  -8 -10 496.098 335.658  10
  -5  -8  10 519.003 398.355  13
  -5  -8  10-95.0119 235.483  17
   5  -8  -9 23003.0 1592.78  10
  -5  -8   9 22825.2 1594.94  17
  -5   8   9 20728.7 1599.61   1
  -5  -8   9 25168.3 1713.45  13
   5   8  -9 21740.5 1576.08   5
   5  -8  -9 20381.9 1426.68  11
   5  -8  -8 21.7555 203.072  11
   5   8  -8-429.701 380.352   5
   5  -8  -8 259.652 287.597  10
  -5  -8   8 182.115 228.645  17
  -5  -8   8-123.116 260.902  13
  -5   8   8-369.638 450.008   1
   5  -8  -7 11618.5 1104.76  10
   5  -8  -7 10675.4 967.066   3
  -5  -8   7 10470.8 1049.53  17
  -5   8   7 10751.1 1109.96   1
  -5  -8   7 12114.5 1126.40  13
   5   8  -7 12171.0 1185.81   5
   5  -8  -7 12502.3 1081.22  11
  -5   8   6 1061.30 389.028   1
   5  -8  -6 1303.76 386.909  11
   5   8  -6 1439.62 459.013   5
  -5   8   6 1499.86 404.434   5
   5  -8  -6 1212.35 428.919  10
  -5  -8   6 868.161 346.734  17
   5  -8  -6 753.101 315.553   3
  -5  -8   6 2111.35 471.672  13
   5  -8  -5 14136.9 1205.86  10
  -5  -8   5 12347.7 1139.47  17
   5  -8  -5 12121.1 1046.72   3
   5   8  -5 12298.7 989.044   7
  -5  -8   5 13631.7 1131.52  13
   5   8  -5 12307.6 1186.15   5
  -5   8   5 12719.7 1097.85   5
   5  -8  -5 11727.1 1015.72  11
   5  -8  -4-87.4712 225.003  11
  -5  -8   4 142.652 213.679  11
   5   8  -4 689.626 458.343   5
  -5   8   4 234.540 276.972   5
  -5  -8   4 399.520 274.551  17
  -5  -8   4 272.052 291.320   4
   5   8  -4 494.589 306.451   7
  -5  -8   4 173.661 267.753  13
   5  -8  -4-48.0976 195.639   3
  -5  -8   3 12445.9 1060.85  11
   5  -8  -3 14010.1 1098.08  11
   5  -8  -3 12092.0 1075.70   3
  -5  -8   3 13752.7 1213.32   4
  -5  -8   3 10085.7 973.521  17
  -5  -8   3 16277.7 1193.83  13
   5   8  -3 13037.4 1176.07   5
  -5   8   3 12314.6 1121.68   5
  -5  -8   2 2687.24 516.843  11
   5   8  -2 3505.30 656.994   5
   5  -8  -2 2406.32 488.439  11
  -5   8   2 2150.65 498.080   5
  -5  -8   2 3335.00 619.098   4
  -5  -8   2 3598.44 611.303  17
  -5   8   2 3200.02 510.770   8
  -5  -8   2 3701.48 596.968  13
   5  -8  -2 3917.59 654.393   3
   5  -8  -1 7477.45 816.129  11
  -5  -8   1 7659.68 870.664  17
  -5  -8   1 6457.97 823.384   4
   5  -8  -1 7403.42 868.315   3
  -5  -8   1 8193.18 837.840  13
   5   8  -1 9775.59 1047.30   5
  -5   8   1 7305.54 892.754   5
  -5  -8   1 8322.05 874.757  11
  -5  -8   0 448.967 271.003  11
   5   8   0 741.458 332.584   5
  -5   8   0-92.4353 395.880   5
  -5  -8   0 482.618 346.381   4
   5   8   0 767.176 394.222  16
  -5  -8   0 952.261 350.904  17
   5  -8   0 618.640 318.680   3
  -5  -8   0 728.143 300.407  13
  -5  -8  -1 7565.81 893.590  17
  -5  -8  -1 7226.35 875.922   4
   5   8   1 8994.14 1004.15  16
   5  -8   1 7142.48 898.006   3
  -5  -8  -1 6809.88 751.648  13
   5   8   1 7209.89 859.796   5
  -5  -8  -1 6954.93 830.670  11
  -5   8  -1 6993.42 903.554   5
  -5  -8  -2 259.290 266.094  11
   5   8   2-460.801 376.756   5
   5   8   2-0.62150 271.139  16
  -5  -8  -2-96.6845 295.040  17
  -5   8  -2 280.473 258.248   5
  -5  -8  -2 468.955 301.541   4
  -5  -8  -2-173.417 203.621  13
   5  -8   2 616.140 336.247   3
  -5  -8  -3 9975.97 1051.83  17
   5   8   3 12885.9 1230.72  16
   5  -8   3 11827.7 1165.49   3
  -5  -8  -3 11340.5 1006.34  13
   5   8   3 11491.0 1067.59   5
  -5  -8  -3 10617.7 1051.34  11
  -5   8  -3 13072.0 1262.60   5
   5   8   4 1248.25 381.811   5
  -5  -8  -4 1769.87 464.968  11
  -5   8  -4 890.144 427.349   5
  -5  -8  -4 894.210 391.935  17
   5   8   4 618.518 326.580  16
  -5  -8  -4 1443.98 398.246  13
   5  -8   4 1382.29 429.379   3
  -5  -8  -5 14060.4 1319.35  17
   5   8   5 15926.1 1428.57  16
   5  -8   5 17236.8 1451.25   3
  -5  -8  -5 15399.7 1325.71  11
  -5   8  -5 14905.9 1386.14   5
  -5  -8  -6-47.2299 273.884  11
  -5   8  -6 430.506 426.953   5
   5   8   6 3.68385 282.488  16
   5  -8   6 53.8252 267.341   3
  -5  -8  -6 582.655 345.685  17
  -5  -8  -7 10323.2 1184.03  17
   5   8   7 14287.2 1411.35  16
   5  -8   7 13274.3 1315.12   3
  -5  -8  -7 13261.3 1306.75  11
  -5   8  -7 10799.2 1230.23   5
  -5  -8  -8 1050.41 476.055  11
  -5   8  -8-111.401 340.917   5
   5   8   8 991.313 540.010  16
   5  -8   8 747.769 465.722  14
   5  -8   8 66.0185 321.130   3
  -5  -8  -9 3058.12 708.392  11
  -5   8  -9 3336.06 763.651   5
   5  -8   9 4315.52 783.453   3
   5   8   9 4462.98 837.675  16
   5  -8   9 5174.24 897.469  14
  -5  -8 -10 272.052 376.030  11
  -5   8 -10 54.5328 341.236   5
   5   8  10 420.048 380.666  16
   5  -8  10 131.356 295.256   3
  -5  -9  13 2308.42 596.317  17
  -5  -9  13 1873.06 572.150  13
   5  -9 -12 5306.88 832.550  11
   5   9 -12 4300.25 784.684   5
   5  -9 -12 4394.29 765.780  10
  -5  -9  12 5567.15 902.769  17
  -5  -9  12 7550.28 1080.67  13
  -5   9  12 4279.93 853.809   1
   5  -9 -11 626.783 342.010  11
   5   9 -11 20.2110 347.853   5
   5  -9 -11 179.425 256.238  10
  -5  -9  11 176.677 260.445  17
  -5  -9  11 43.2612 302.343  13
  -5   9  11 1190.01 563.316   1
   5   9 -10 5579.59 882.518   5
   5  -9 -10 5534.34 839.400  10
  -5  -9  10 4641.79 794.498  17
  -5  -9  10 5398.01 877.479  13
   5  -9 -10 5520.70 825.832  11
  -5   9  10 4426.67 843.644   1
   5   9  -9 6637.69 963.687   5
   5  -9  -9 6399.84 909.868  10
  -5   9   9 4710.79 868.126   1
  -5  -9   9 4888.87 808.095  17
  -5  -9   9 5742.72 874.761  13
   5  -9  -9 6784.58 874.511  11
   5  -9  -8 6177.85 864.817  10
  -5  -9   8 6612.41 913.149  13
  -5  -9   8 5695.79 819.311  17
  -5   9   8 5323.90 921.771   1
   5   9  -8 7222.26 995.346   5
   5  -9  -8 7091.50 892.788  11
   5  -9  -7 1734.24 471.908  11
   5   9  -7 1962.57 564.712   5
   5  -9  -7 1322.90 469.334  10
  -5   9   7 552.027 371.801   1
  -5  -9   7 1926.33 510.729  17
  -5  -9   7 1179.59 411.569   4
  -5  -9   7 770.218 325.102  13
   5  -9  -6 10759.9 1124.34  10
  -5  -9   6 9780.79 1054.37  17
  -5  -9   6 11418.4 1186.47   4
   5  -9  -6 11918.7 1076.22   3
  -5   9   6 9956.23 1135.28   1
  -5  -9   6 12759.1 1196.10  13
   5   9  -6 14390.1 1367.97   5
   5  -9  -6 12627.8 1149.87  11
   5  -9  -5 4893.22 712.880  11
   5   9  -5 5277.89 836.529   5
  -5   9   5 5276.26 784.686   5
  -5  -9   5 3894.85 658.876  17
  -5  -9   5 4255.60 738.592   4
  -5  -9   5 3614.38 627.307  13
   5  -9  -5 4055.06 655.895   3
  -5  -9   4 14204.3 1239.32  11
  -5  -9   4 12175.8 1220.34   4
   5  -9  -4 13026.3 1164.13   3
  -5  -9   4 12165.7 1134.55  17
   5   9  -4 12203.9 1064.92   7
  -5  -9   4 14275.6 1199.38  13
   5   9  -4 15381.1 1384.96   5
  -5   9   4 13383.4 1230.96   5
   5  -9  -4 12843.0 1148.43  11
  -5  -9   3 6582.02 855.661  11
   5  -9  -3 6319.40 807.890  11
   5   9  -3 6527.87 915.157   5
  -5  -9   3 5666.34 800.128  17
   5   9  -3 6302.80 827.036   7
  -5  -9   3 5457.71 735.020  13
  -5  -9   3 6532.93 890.527   4
   5  -9  -3 4874.54 716.431   3
  -5   9   3 6350.39 875.176   5
   5  -9  -2 5424.05 750.797  11
  -5  -9   2 4794.01 737.849  11
   5   9  -2 4603.28 807.422   5
  -5   9   2 5079.79 795.373   5
  -5  -9   2 4868.15 782.420   4
  -5  -9   2 5288.63 724.749  13
   5  -9  -2 4165.63 701.890   3
  -5  -9   2 4123.13 679.085  17
  -5  -9   1 17.2435 205.152  11
   5   9  -1-62.1522 339.478   5
  -5   9   1 237.424 327.618   5
  -5  -9   1-254.435 300.697  17
  -5  -9   1 95.1161 235.260   4
  -5  -9   1-199.340 239.611  13
   5  -9  -1 386.664 254.590   3
   5   9   0 5646.48 848.836   5
  -5  -9   0 7221.68 948.468   4
  -5  -9   0 6129.00 820.068  17
   5  -9   0 6963.33 894.727   3
  -5  -9   0 5810.17 736.791  13
  -5   9   0 7836.49 998.855   5
  -5  -9   0 6298.52 825.446  11
  -5  -9  -1 3366.15 637.705  11
   5   9   1 2861.93 644.509   5
  -5   9  -1 2752.94 624.305   5
  -5  -9  -1 3549.79 682.831   4
   5   9   1 3119.88 659.449  16
  -5  -9  -1 3237.04 642.681  17
   5  -9   1 2559.78 604.386   3
  -5  -9  -2 21413.8 1576.59  17
   5   9   2 22478.8 1703.23  16
   5  -9   2 22196.0 1654.56   3
   5   9   2 23540.9 1628.23   5
  -5   9  -2 21150.3 1679.86   5
  -5  -9  -2 24850.8 1672.59  11
   5   9   3 1661.62 485.524   5
  -5  -9  -3 1955.55 542.556  11
  -5   9  -3 1504.80 577.712   5
  -5  -9  -3 2460.87 554.950  17
   5   9   3 2136.27 603.536  16
   5  -9   3 2042.11 567.209   3
  -5  -9  -4 7113.90 964.656  17
   5   9   4 7762.94 1061.24  16
   5  -9   4 6167.61 908.220   3
   5   9   4 6432.89 875.920   5
  -5   9  -4 8356.39 1124.03   5
  -5  -9  -4 8064.86 1000.09  11
  -5  -9  -5 809.520 390.862  11
  -5   9  -5 326.702 328.024   5
  -5  -9  -5 679.835 325.426  17
   5   9   5 119.338 300.943  16
   5  -9   5 740.540 412.498   3
  -5  -9  -6 179.402 274.747  11
  -5   9  -6 1029.08 511.886   5
  -5  -9  -6 164.351 229.514  17
   5   9   6 1042.85 449.362  16
   5  -9   6 1192.66 463.963   3
  -5  -9  -7 1324.73 464.172  11
  -5   9  -7 2914.78 712.591   5
   5   9   7 3444.10 774.886  16
  -5  -9  -7 2350.20 632.997  17
   5  -9   7 2272.23 600.108   3
  -5  -9  -8 5138.18 887.619  11
  -5   9  -8 4815.94 893.495   5
   5   9   8 4371.12 865.979  16
   5  -9   8 3381.09 724.944  14
   5  -9   8 3944.50 771.934   3
   5  10 -11 4439.03 857.491   5
  -5 -10  11 4113.01 778.406  17
  -5 -10  11 5817.34 966.079   4
  -5 -10  11 5581.47 937.810  13
   5 -10 -11 5723.58 875.974  11
   5 -10 -10 1048.40 424.035  11
   5  10 -10 1612.67 598.020   5
  -5 -10  10 930.560 391.337  17
  -5 -10  10 1143.87 435.997   4
   5 -10 -10 1034.61 432.377  10
  -5 -10  10 352.862 307.998  13
  -5  10  10 1623.61 593.538   1
   5 -10  -9 3933.02 727.403  11
   5  10  -9 2872.73 685.041   5
  -5  10   9 2990.11 758.821   1
  -5 -10   9 3548.32 696.683  17
  -5 -10   9 3606.44 728.664   4
   5 -10  -9 3449.35 713.397  10
  -5 -10   9 4429.94 796.085  13
   5 -10  -8 1509.00 471.771  11
   5  10  -8 1369.01 490.713   5
  -5 -10   8 1943.35 523.355  17
  -5  10   8 933.461 490.246   1
   5 -10  -8 581.332 355.851  10
  -5 -10   8 406.400 347.647  13
  -5 -10   8 1044.20 459.108   4
  -5  10   7 3276.73 743.890   1
   5 -10  -7 4321.04 747.334  11
   5  10  -7 4082.45 809.903   5
  -5 -10   7 3473.41 689.035  17
  -5 -10   7 3954.01 748.832   4
  -5 -10   7 4204.32 736.331  13
   5 -10  -6 102.297 248.899  11
   5  10  -6 734.786 456.399   5
  -5 -10   6-357.604 404.705   4
  -5 -10   6 176.927 239.546  17
  -5 -10   6 16.7148 239.216  13
  -5  10   6-289.194 363.638   1
  -5  10   5 11063.9 1237.12   1
  -5 -10   5 11777.6 1274.34   4
   5 -10  -5 10457.7 1084.85   3
  -5 -10   5 12835.2 1223.07  13
  -5 -10   5 11295.0 1169.29  17
   5  10  -5 11181.7 1270.78   5
  -5  10   5 11287.7 1185.40   5
   5 -10  -5 11670.6 1184.00  11
   5 -10  -4 2187.09 549.773  11
   5  10  -4 1864.54 608.042   5
  -5 -10   4 2782.99 607.761  11
  -5  10   4 2438.41 616.486   5
  -5 -10   4 2064.65 560.677   4
  -5 -10   4 2116.11 517.436  17
  -5 -10   4 2624.65 566.997  13
   5 -10  -4 2228.88 532.159   3
  -5 -10   3 10159.9 1127.84  11
   5 -10  -3 9185.10 1050.34  11
   5  10  -3 9823.27 1054.51   7
  -5 -10   3 7383.23 933.483  17
  -5 -10   3 9610.33 1151.23   4
   5 -10  -3 7847.25 961.990   3
   5  10  -3 9137.11 1162.50   5
  -5  10   3 9529.69 1127.42   5
   5  10  -2 652.571 431.833   5
  -5 -10   2 335.497 312.385  11
   5 -10  -2 550.186 293.308  11
  -5  10   2 54.4088 329.803   5
  -5 -10   2 31.3384 216.729   4
  -5 -10   2 187.445 203.943  17
   5 -10  -2 426.993 296.896   3
   5  10  -1 4394.12 795.315   5
  -5 -10   1 3431.66 669.255  11
  -5  10   1 4212.53 802.388   5
  -5 -10   1 2678.14 601.396  17
  -5 -10   1 2639.86 596.990   4
   5 -10  -1 2017.36 511.278   3
   5  10   0 1579.09 535.540   5
  -5 -10   0 1215.22 441.997  11
  -5  10   0 1373.21 514.286   5
  -5 -10   0 1027.84 412.319  17
  -5 -10   0 809.262 403.302   4
   5 -10   0 1275.19 458.922   3
   5  10   1 6829.40 990.721   5
  -5  10  -1 7217.76 1053.87   5
   5  10   1 7519.49 1039.93  16
  -5 -10  -1 5911.34 874.368  17
   5 -10   1 6460.45 946.878   3
  -5 -10  -1 7153.85 971.006  11
   5  10   2 720.897 360.657   5
  -5 -10  -2 567.403 345.478  11
  -5  10  -2 489.501 375.281   5
   5 -10   2 676.698 393.775   3
  -5 -10  -2 285.056 303.745  17
   5  10   2 212.509 311.615  16
   5 -10   3 9265.33 1157.85   3
  -5 -10  -3 8784.40 1088.94  17
   5  10   3 7532.07 1072.50  16
   5  10   3 6663.58 938.430   5
  -5  10  -3 9542.11 1234.70   5
  -5 -10  -3 9047.33 1114.96  11
  -5 -10  -4 768.904 408.347  11
  -5  10  -4 398.394 502.733   5
   5  10   4 637.309 427.337  16
   5 -10   4 875.422 479.306   3
  -5 -10  -4 358.929 298.199  17
  -5 -10  -5 3146.90 702.890  11
  -5  10  -5 2034.98 646.364   5
  -5 -10  -5 2864.69 678.601  17
   5  10   5 2639.52 658.878  16
   5 -10   5 3841.61 800.663   3
  -5 -10  -6 226.031 244.536  11
  -5  10  -6 1200.47 533.089   5
  -5 -10  -6 1329.18 502.499  17
   5  10   6 605.614 436.101  16
   5 -10   6 550.177 405.083   3
   5 -11  -9 136.329 258.804  11
  -5 -11   9-62.9438 216.791  13
   5 -11  -8 1691.90 492.538  11
  -5 -11   8 1553.95 517.224   4
   5 -11  -7 430.868 286.722  11
   5  11  -7-577.216 430.750   5
  -5 -11   7 38.8031 239.761   4
  -5  11   7-337.756 450.516   1
  -5 -11   6 8355.37 1050.67  17
  -5 -11   6 9538.39 1204.70   4
  -5  11   6 5927.43 980.629   1
   5  11  -6 9936.88 1295.07   5
   5 -11  -6 10938.1 1221.68  11
   5 -11  -5-279.826 324.983  11
   5  11  -5 238.319 396.344   5
  -5 -11   5 506.190 354.555  17
  -5  11   5 297.349 394.653   1
  -5 -11   5-268.003 338.850   4
   5 -11  -4 11166.6 1239.34  11
  -5 -11   4 9843.41 1221.67   4
  -5 -11   4 10130.0 1137.52  17
   5 -11  -4 9264.61 1078.20   3
   5  11  -4 10247.1 1300.61   5
  -5  11   4 8099.55 1108.38   5
   5  11  -3 490.800 427.740   5
  -5 -11   3-76.0542 214.741  11
   5 -11  -3-177.011 257.617  11
  -5  11   3 11.3570 295.810   5
  -5 -11   3-150.251 308.022  17
  -5 -11   3-34.4819 283.025   4
   5 -11  -3 168.209 246.210   3
   5  11  -2 701.305 480.465   5
  -5 -11   2 569.098 383.759  11
  -5  11   2 1714.22 610.206   5
   5 -11  -2 529.090 334.006   3
  -5 -11   2 1362.89 482.259   4
  -5 -11   2 266.668 314.704  17
   5  11  -1-36.3982 353.984   5
  -5 -11   1-231.943 307.464  11
  -5  11   1 547.327 423.618   5
  -5 -11   1 287.673 318.668   4
  -5 -11   1 206.725 318.116  17
   5 -11  -1 173.081 296.637   3
   5  11   0 1791.50 566.302   5
  -5 -11   0 682.068 355.405  11
  -5  11   0 1554.98 612.045   5
  -5 -11   0 922.670 385.239  17
   5 -11   0 1415.68 459.564   3
   5  11   1-110.823 370.791   5
  -5 -11  -1 212.732 306.755  11
  -5  11  -1 421.132 363.293   5
  -5 -11  -1 347.183 316.276  17
   5 -11   1 125.236 258.039   3
   5 -11   2 8390.76 1112.00   3
  -5 -11  -2 9280.76 1144.69  17
   5  11   2 8677.78 1167.71  16
   5  11   2 8419.45 1117.28   5
  -5  11  -2 10941.8 1376.49   5
  -5 -11  -2 10557.5 1235.90  11
   5  11   3 212.915 348.920   5
  -5 -11  -3 123.872 283.961  11
  -5  11  -3 481.269 427.289   5
  -5 -11  -3 300.823 269.474  17
   5  11   3 619.900 393.169  16
   5 -11   3 581.418 374.063   3
  -5 -11  -4 7117.23 1049.43  17
   5 -12  -3 6475.49 956.811   3
  -6   0  19-90.8340 326.520   6
   6   0 -18-139.028 303.441  10
  -6   0  18 72.8692 274.958   6
   6   0 -17 579.032 403.511  10
  -6   0  17 400.517 323.966   6
   6   0 -16 28776.1 1881.93  10
   6   0 -16 26576.2 1709.86   9
  -6   0  16 27102.8 1797.82   6
   6   0 -15 661.975 428.856  10
   6   0 -15 34.7391 321.626   9
  -6   0  15-110.178 187.066  13
  -6   0  15-81.2475 294.010   6
   6   0 -14 51725.4 2321.18  10
   6   0 -14 50195.4 2202.01   9
  -6   0  14 52524.7 2180.38  13
  -6   0  14 51830.8 2308.73   6
   6   0 -13-567.562 335.480   9
   6   0 -13-415.634 252.710  10
  -6   0  13 34.1339 211.862  13
  -6   0  13 3.75692 285.654   6
   6   0 -12 15688.8 1186.15  10
  -6   0  12 14318.0 971.964   1
   6   0 -12 16243.2 1181.20   9
  -6   0  12 14429.7 1041.77  13
  -6   0  12 14947.3 1155.33   6
   6   0 -11 16.9406 254.426  10
   6   0 -11-166.343 216.778   9
   6   0 -11 241.920 149.375   2
  -6   0  11 211.959 228.173   1
  -6   0  11 847.079 283.732  13
  -6   0  11 458.044 252.747   6
   6   0 -10 9279.94 831.005  10
  -6   0  10 6816.44 606.953   1
   6   0 -10 8347.42 739.080   7
   6   0 -10 7749.45 769.492   9
  -6   0  10 9033.37 736.975  13
  -6   0  10 8413.01 840.305   6
   6   0 -10 9403.35 640.835   2
   6   0  -9 137.848 207.701  10
   6   0  -9 40.5753 102.777   2
  -6   0   9 103.498 194.428  17
   6   0  -9-80.1971 266.432   9
   6   0  -9 53.3182 216.326   7
  -6   0   9 11.2960 157.836  13
  -6   0   9 346.455 189.713   1
  -6   0   9-7.31466 233.550   6
   6   0  -8 35966.5 1433.37  10
  -6   0   8 37432.1 1120.94   1
  -6   0   8 39747.8 1490.16  17
   6   0  -8 38013.4 1496.80   7
  -6   0   8 38541.7 1387.63  13
  -6   0   8 36738.7 1518.38   6
   6   0  -8 37327.1 1525.84   9
   6   0  -8 39507.8 1098.94   2
   6   0  -7 302.535 246.875  10
   6   0  -7-43.7536 72.9748   2
   6   0  -7 19.1997 235.699   9
  -6   0   7-163.593 136.746   1
  -6   0   7 40.8218 131.641  17
   6   0  -7 178.052 235.317   7
  -6   0   7 192.524 171.547  13
  -6   0   7 129.716 193.069   6
   6   0  -6 59835.8 1654.50  10
   6   0  -6 58984.5 1761.11   9
  -6   0   6 61230.1 1629.99  17
   6   0  -6 61524.7 1817.99   7
  -6   0   6 60621.7 1605.00  13
  -6   0   6 59817.1 1747.21   6
  -6   0   6 58555.3 1109.46  12
  -6   0   5 30.4982 79.1026   1
   6   0  -5 3.91909 128.116  10
   6   0  -5-142.947 199.549   9
  -6   0   5 72.7371 122.390  17
   6   0  -5-18.7453 204.701   7
  -6   0   5-53.9894 134.154  13
  -6   0   5 49.6709 165.060   6
  -6   0   5 131.725 111.285  12
   6   0  -4 142634. 2278.08  10
   6   0  -4 136944. 2411.85   9
  -6   0   4 140547. 2253.49  17
  -6   0   4 142214. 2372.86  13
   6   0  -4 142831. 2652.26   7
  -6   0   4 140003. 2388.37   6
  -6   0   4 142446. 2097.26  12
   6   0  -3-21.0651 105.034  10
   6   0  -3 28.9072 26.5373  18
  -6   0   3 4.45853 113.411  17
   6   0  -3 175.585 139.622  14
   6   0  -3-93.4029 158.935   7
  -6   0   3 23.8340 112.954   6
  -6   0   3 22.0954 151.779  12
   6   0  -2 116747. 1939.07  10
  -6   0   2 116234. 1983.83  17
   6   0  -2 113583. 2315.12   7
   6   0  -2 118942. 2189.05  14
  -6   0   2 112652. 1877.72   6
  -6   0   2 119509. 2193.41  12
   6   0  -1-74.8611 98.2129  10
  -6   0   1-204.417 168.600   8
  -6   0   1 45.7816 100.740  17
   6   0  -1-9.67720 118.932  14
   6   0  -1 256.619 177.389   7
  -6   0   1 74.6140 96.9011   6
  -6   0   1-12.1144 161.999  12
  -6   0   0 1380.35 280.823   8
  -6   0   0 1241.56 217.731  17
   6   0   0 1505.92 308.695  14
   6   0   0 890.240 236.833   7
   6   0   0 1186.50 264.238   3
  -6   0   0 1312.37 296.656  12
  -6   0  -1 137.087 138.722  17
  -6   0  -1 32.9453 202.890   8
   6   0   1 204.108 212.361  14
   6   0   1-287.682 196.645   7
   6   0   1 176.589 165.820   3
  -6   0  -1 58.5223 189.904  12
   6   0   2 11904.3 506.859  16
   6   0   2 13364.7 737.701   3
   6   0   2 11650.5 752.678   7
   6   0   2 10706.3 812.668  14
  -6   0  -2 13271.3 923.908  12
  -6   0  -2 13803.4 785.562  17
  -6   0  -3 61.0731 170.605  17
   6   0   3 216.142 244.342  14
   6   0   3-276.995 209.448   7
   6   0   3 488.597 206.831   1
   6   0   3 53.9971 125.764   3
  -6   0  -3 234.368 295.745  12
   6   0   4 98181.1 1972.64   3
   6   0   4 95756.4 2182.48   7
   6   0   4 100548. 2675.49  14
  -6   0  -4 96586.7 2633.97  12
   6   0   4 103095. 2474.28   1
   6   0   5 374.321 332.525  14
   6   0   5-143.073 185.491   7
   6   0   5-208.402 287.564   1
  -6   0  -5-43.6894 266.844  12
  -6   0  -6 26107.9 1444.79   2
   6   0   6 26070.0 1188.02   7
   6   0   6 25830.8 1482.19  14
  -6   0  -6 26839.9 1504.81  12
   6   0   6 24292.2 1391.73   1
   6   0   7 787.469 381.093  14
   6   0   7-164.513 270.272   1
  -6   0  -7 77.1303 195.314   2
  -6   0  -7 219.156 263.078  12
  -6   0  -8 11002.2 1039.91   2
   6   0   8 11060.4 1066.35  14
  -6   0  -8 10629.3 1019.31  12
   6   0   8 9993.47 1014.58   1
   6   0   9 2.98451 255.428  14
  -6   0  -9-157.855 276.287   2
   6   0   9-137.087 239.270   1
  -6   0  -9 576.394 374.558  12
  -6   0 -10 14641.4 1324.81   2
   6   0  10 18255.2 1457.48  14
  -6   0 -10 19004.7 1457.79  12
   6   0  10 17028.3 1392.74   1
   6   0  11-103.040 263.719  14
  -6   0 -11 395.070 301.695   2
   6   0  11-401.973 409.604   1
  -6   0 -11-452.589 435.639  12
   6   0  12 5877.91 884.935  14
  -6   0 -12 5147.81 897.899   2
   6   0  12 5895.73 924.635   1
  -6   0 -12 6478.81 931.813  12
   6   0  13-82.5792 291.181  14
  -6   0 -13 23.2449 251.290   2
   6   0  13 166.243 315.821   1
  -6   0 -13 576.571 347.846  12
   6   0  14-32.3773 281.519  14
  -6  -1  19 3099.45 679.779   6
  -6   1  19 2332.93 618.494   6
   6   1 -18 273.847 338.034  10
   6  -1 -18-30.4991 292.746  10
   6   1 -18-305.787 362.102   9
  -6  -1  18-195.947 211.811  13
  -6  -1  18-101.142 303.318   6
  -6   1  18 5.48284 336.311   6
   6   1 -17 6019.21 919.701  10
   6  -1 -17 6121.11 902.942  10
   6   1 -17 5610.22 840.868   9
  -6  -1  17 6163.21 902.236  13
  -6  -1  17 5302.58 842.456   6
  -6   1  17 5193.28 864.486   6
   6   1 -16 207.876 343.734  10
   6  -1 -16 390.510 354.928  10
   6   1 -16 77.1897 282.585   9
  -6  -1  16 363.953 286.665  13
  -6  -1  16 715.559 361.303   6
  -6   1  16 118.697 301.982   6
   6   1 -15 11781.7 1196.07  10
   6  -1 -15 9721.74 1077.69  10
   6   1 -15 11717.0 1120.38   9
  -6  -1  15 10854.0 1075.39  13
  -6  -1  15 10552.1 1113.21   6
  -6   1  15 11212.9 1165.03   6
   6  -1 -14-10.4984 291.277  10
   6   1 -14-12.1847 272.503   9
   6   1 -14 156.777 159.864   2
  -6  -1  14 459.446 303.930  13
  -6  -1  14 154.774 269.134   6
  -6   1  14 336.397 278.219   1
  -6   1  14 132.016 247.457   6
   6   1 -13 3458.59 516.374   2
   6  -1 -13 3378.80 635.098  10
   6   1 -13 2443.22 511.389   9
  -6   1  13 2789.85 500.580   1
  -6  -1  13 2280.21 471.746  13
  -6  -1  13 3502.25 636.603   6
  -6   1  13 1962.49 518.833   6
   6  -1 -12 1309.87 409.434  10
   6   1 -12 186.163 234.596   9
   6   1 -12 688.028 272.512   2
  -6   1  12 919.982 327.353   1
  -6   1  12 119.668 142.065  13
  -6  -1  12 755.806 397.446   6
  -6   1  12 299.292 242.797   6
  -6  -1  12-9.52423 231.237  13
   6  -1 -11 24803.4 1421.21  10
  -6   1  11 20958.1 1127.65   1
   6   1 -11 23526.7 1368.31   9
  -6  -1  11 23209.1 1382.06  17
   6   1 -11 24668.2 1257.56   7
  -6  -1  11 22635.9 1288.87  13
  -6   1  11 23420.4 1194.74  13
  -6  -1  11 24924.1 1456.05   6
  -6   1  11 24621.3 1466.52   6
   6   1 -11 23717.6 1167.42   2
   6   1 -10 879.357 367.305  10
   6  -1 -10 511.398 291.736  10
   6   1 -10 73.9137 124.989   2
   6   1 -10 263.868 210.640   7
  -6  -1  10 301.361 281.686  17
  -6  -1  10 287.816 204.885  13
  -6   1  10 187.546 154.446  13
   6   1 -10 162.841 234.814   9
  -6  -1  10 384.232 319.816   6
  -6   1  10 118.315 226.155   6
  -6   1  10 116.289 177.592   1
   6   1  -9 92795.9 2432.52  10
   6  -1  -9 91594.6 2470.72  10
   6   1  -9 95623.8 2546.88   9
  -6   1   9 93026.1 2086.40   1
   6  -1  -9 100259. 2579.30   7
   6   1  -9 95899.2 2355.22   7
  -6  -1   9 92656.6 2496.95  17
  -6  -1   9 97860.8 2434.08  13
  -6   1   9 97302.8 2142.82  13
  -6  -1   9 93869.2 2553.82   6
  -6   1   9 88972.9 2553.63   6
   6   1  -9 93999.5 2039.52   2
   6   1  -8 7498.78 682.934  10
   6  -1  -8 7300.89 688.305  10
   6  -1  -8 7389.52 707.593   7
   6   1  -8 6246.13 645.557   9
  -6  -1   8 7081.36 671.811  17
  -6   1   8 7914.81 581.322   1
   6   1  -8 7616.96 667.956   7
  -6  -1   8 8042.87 674.467  13
  -6   1   8 7596.78 580.913  13
  -6  -1   8 7680.24 721.860   6
  -6   1   8 7181.39 697.234   6
   6  -1  -8 7159.48 438.151  11
   6   1  -8 7630.65 548.347   2
   6   1  -7 21994.8 1059.75  10
   6  -1  -7 21719.5 1096.02  10
   6   1  -7 21316.5 1112.99   9
  -6   1   7 20163.1 872.562   1
  -6   1   7 22220.5 1005.60  17
  -6  -1   7 21415.1 1078.99  17
   6  -1  -7 20862.2 1176.73   7
   6   1  -7 23781.4 1126.31   7
  -6  -1   7 21923.8 1063.93  13
  -6   1   7 23036.5 947.558  13
  -6  -1   7 20813.3 1147.69   6
  -6   1   7 20775.0 1105.97   6
   6   1  -7 21866.1 873.374   2
   6  -1  -7 21623.1 630.378  11
  -6   1   6 77.0308 120.382   1
   6   1  -6 286.327 167.085  10
   6  -1  -6 478.967 199.672  10
   6  -1  -6 48.9111 204.178   7
   6   1  -6 217.362 173.333   7
  -6   1   6 96.4963 110.844  17
  -6  -1   6 110.257 158.045   6
  -6  -1   6 202.467 173.645  13
  -6   1   6 195.881 141.122  13
   6   1  -6 128.406 195.513   9
  -6   1   6 283.589 187.718   6
  -6   1   6 495.832 134.003  12
  -6  -1   6 302.054 104.856  12
   6   1  -5 22688.6 920.000  10
   6  -1  -5 23556.2 1035.48  10
  -6   1   5 22347.1 783.828  12
  -6   1   5 21311.7 855.903  17
   6  -1  -5 22631.5 1099.05   7
   6   1  -5 22274.3 1061.05   7
   6   1  -5 21314.7 1012.00   9
  -6   1   5 20298.3 854.000  13
  -6  -1   5 19281.2 976.881  13
  -6  -1   5 20687.3 1009.09   6
  -6  -1   5 21625.6 997.427  17
  -6   1   5 20893.5 996.171   6
  -6  -1   5 22280.3 801.785  12
   6   1  -4 38489.7 1116.24  10
   6  -1  -4 36197.2 1285.80  10
   6   1  -4 37194.5 1261.14   9
  -6  -1   4 38231.5 1269.89  17
  -6   1   4 38183.5 1075.78  17
   6  -1  -4 36467.8 1366.84   7
   6   1  -4 38457.0 1387.40   7
   6  -1  -4 38499.3 1070.80  14
  -6   1   4 37759.7 1137.15  13
  -6  -1   4 36488.0 1288.96  13
  -6  -1   4 38731.1 1300.95   6
  -6   1   4 37659.5 1253.71   6
  -6   1   4 37393.5 1102.58  12
  -6  -1   4 38763.2 1137.84  12
   6   1  -3 126381. 1895.85  10
   6  -1  -3 131186. 2299.56  10
  -6   1   3 126046. 1863.86  17
   6  -1  -3 133123. 2500.42   3
   6  -1  -3 129019. 2504.29   7
   6   1  -3 131900. 2527.83   7
   6  -1  -3 129803. 2093.02  14
  -6  -1   3 123487. 2203.87   6
   6   1  -3 127076. 2198.65   9
  -6  -1   3 127007. 2291.00  17
  -6   1   3 126687. 2114.16   6
  -6   1   3 128121. 2180.29  12
  -6  -1   3 128805. 2205.54  12
   6   1  -2 2549.50 258.233  10
   6  -1  -2 2448.42 312.349  10
   6  -1  -2 2893.72 241.325  18
  -6   1   2 2465.89 379.627   8
  -6  -1   2 2944.03 351.955  17
   6  -1  -2 2115.12 296.053  14
   6  -1  -2 2566.41 364.166   7
   6   1  -2 2447.78 294.332   9
   6   1  -2 2822.21 406.674   7
   6  -1  -2 2211.56 356.373   3
  -6  -1   2 2792.76 331.330   6
  -6   1   2 2762.68 294.389   6
   6   1  -2 2473.02 352.841  14
  -6   1   2 2287.00 343.742  12
  -6   1   2 2630.60 273.588  17
  -6  -1   2 2521.49 348.601  12
  -6  -1   2 2125.10 146.289  11
   6   1  -1 52943.9 1103.42  10
   6  -1  -1 52643.2 1428.94  10
   6  -1  -1 52907.3 1163.78  18
  -6   1   1 51861.3 1186.79  17
  -6  -1   1 53478.1 1485.35  17
   6  -1  -1 54023.8 1577.00   7
   6   1  -1 49196.7 1542.47   7
   6  -1  -1 51056.1 1483.73  14
   6   1  -1 54856.5 1607.79  14
   6  -1  -1 53495.5 1569.91   3
  -6   1   1 49775.7 1099.15   6
  -6  -1   1 52429.1 1458.03   8
  -6   1   1 54411.7 1589.32  12
  -6  -1   1 53369.7 1567.99  12
  -6   1   1 55548.0 1659.97   8
  -6  -1   1 52850.0 936.794  11
   6  -1   0 28044.4 950.165  18
  -6  -1   0 28534.0 1124.32  17
  -6   1   0 29949.0 1247.38   8
   6  -1   0 26197.1 1096.51   3
   6  -1   0 26681.2 1098.53   7
   6   1   0 25657.3 1131.59   7
   6  -1   0 26565.2 1129.53  14
   6   1   0 28552.4 1208.59  14
  -6   1   0 25243.0 669.177   6
  -6   1   0 26031.3 878.731  17
  -6   1   0 27841.7 1203.03  12
  -6  -1   0 28674.9 1103.83   8
  -6  -1   0 26396.9 1163.08  12
  -6  -1   0 26544.3 802.417  11
   6  -1   1 15979.2 795.656  18
  -6  -1  -1 14545.7 838.136  17
  -6  -1  -1 16686.9 976.795  12
   6  -1   1 15666.9 843.847   3
   6  -1   1 14906.5 822.592   7
   6   1   1 14831.4 880.252   7
   6  -1   1 14131.1 881.730  14
   6   1   1 14681.4 922.509  14
  -6   1  -1 16076.6 962.368   8
  -6   1  -1 15730.9 725.172  17
   6   1   1 14733.2 672.949  16
  -6   1  -1 15890.7 956.269  12
   6   1   1 14773.3 722.557   1
  -6  -1  -2 2588.50 266.672   4
  -6  -1  -2 2496.45 366.287  17
  -6   1  -2 2881.22 346.317  17
   6  -1   2 3165.10 395.591   3
   6  -1   2 3017.97 451.039  14
   6   1   2 2663.67 448.310  14
   6  -1   2 2906.05 380.771   7
   6   1   2 2700.51 399.907   7
   6   1   2 3131.03 384.612   1
  -6   1  -2 2979.18 462.568  12
  -6  -1  -2 3287.68 504.068  12
   6   1   2 2503.72 292.727  16
   6   1   3 118230. 2077.92  16
  -6   1  -3 115052. 2469.09   2
   6  -1   3 122944. 2394.22   3
   6  -1   3 117932. 2306.38   7
   6  -1   3 122531. 2829.69  14
   6   1   3 116666. 2493.01   7
   6   1   3 120940. 2827.20  14
  -6  -1  -3 123958. 2656.10  17
  -6   1  -3 126963. 2900.47  12
  -6  -1  -3 120849. 2850.80  12
   6   1   3 121521. 2443.54   1
   6  -1   4 2899.24 378.087   7
  -6  -1  -4 2298.18 411.275  17
   6  -1   4 2612.89 516.302  14
   6   1   4 3029.95 502.431  14
   6   1   4 2987.11 444.498   7
   6  -1   4 2571.51 380.191   3
  -6   1  -4 3593.37 474.598   2
   6   1   4 2747.08 435.916   1
  -6   1  -4 2100.32 478.371  12
  -6  -1  -4 2941.70 521.124  12
   6   1   5 88659.5 2604.42  14
  -6   1  -5 84918.6 2416.92   2
  -6  -1  -5 90205.1 2658.76  12
   6  -1   5 85705.6 2046.03   3
   6  -1   5 83864.2 1989.51   7
   6  -1   5 85590.2 2611.58  14
   6   1   5 83270.9 2187.97   7
  -6   1  -5 93013.0 2692.65  12
   6   1   5 91118.4 2420.95   1
  -6   1  -6 7858.28 785.262   2
   6  -1   6 8441.43 869.235  14
   6   1   6 8134.69 843.948  14
   6   1   6 8588.49 730.388   7
   6  -1   6 6033.82 743.239   1
  -6   1  -6 8068.28 865.562  12
  -6  -1  -6 8376.28 862.884  12
   6   1   6 8106.08 798.354   1
   6  -1   7 66.0373 259.437  14
   6   1   7 171.154 244.053  14
   6  -1   7-226.576 283.659   1
   6   1   7 697.749 291.381   7
  -6   1  -7-98.5225 220.251   2
   6   1   7 39.7817 225.060   1
  -6   1  -7 324.742 267.198  12
  -6  -1  -7-151.235 241.611  12
   6  -1   8-213.367 246.343  14
   6   1   8-10.8602 250.780  14
   6  -1   8-316.446 383.239   1
  -6   1  -8-213.996 226.765   2
  -6  -1  -8 106.198 236.708   2
   6   1   8-24.7681 266.711   1
  -6   1  -8 384.717 291.468  12
  -6  -1  -8 221.988 312.278  12
   6  -1   9 707.255 298.724  14
   6   1   9 1159.77 421.504  14
  -6   1  -9 640.060 333.938   2
   6  -1   9 354.881 296.952   1
  -6  -1  -9 1196.43 436.411   2
   6   1   9 1080.96 412.318   1
  -6   1  -9 127.932 306.583  12
  -6  -1  -9 750.869 384.330  12
   6   1  10 5784.39 835.058  14
   6  -1  10 4741.64 780.889  14
  -6   1 -10 5048.67 790.370   2
   6  -1  10 3330.25 671.344   1
  -6  -1 -10 3930.10 713.018   2
   6   1  10 4728.75 769.805   1
  -6   1 -10 5711.11 828.935  12
  -6  -1 -10 5543.07 810.449  12
  -6   1 -11 17529.9 1498.39   2
  -6  -1 -11 17118.5 1495.55   2
   6  -1  11 15414.6 1408.18  18
   6  -1  11 18720.1 1558.92  14
   6   1  11 16999.2 1437.42  14
   6  -1  11 15488.5 1436.37   1
  -6   1 -11 17101.7 1428.22  12
  -6  -1 -11 17464.0 1463.05  12
   6   1  11 19195.8 1600.95   1
   6  -1  12 602.818 352.438  14
   6   1  12 1072.92 450.313  14
  -6   1 -12 1090.49 447.852   2
  -6  -1 -12 887.595 414.073   2
   6   1  12 325.622 327.113   1
   6  -1  12 54.7279 346.764   1
   6  -1  12 1396.39 502.967  18
  -6   1 -12 485.459 279.304  12
  -6  -1 -12 199.477 283.518  12
   6  -1  13 3933.42 790.457  18
   6  -1  13 3346.26 749.700  14
   6   1  13 4062.85 757.538  14
  -6   1 -13 4653.08 873.828   2
  -6  -1 -13 4148.71 832.406   2
   6   1  13 4846.20 978.669   1
   6  -1  13 4683.31 904.845   1
  -6  -1 -13 5978.77 900.301  12
  -6   1 -13 5008.30 836.260  12
   6   1  14 355.282 291.751  14
   6   2 -19-19.2679 241.798   9
  -6  -2  19 154.298 217.809  13
  -6  -2  19-524.986 394.790   6
   6  -2 -18 5080.59 887.870  10
   6   2 -18 4123.19 746.238   9
  -6  -2  18 5731.14 950.644  17
  -6   2  18 5002.39 897.551  15
  -6  -2  18 3877.25 763.201  13
  -6  -2  18 4468.51 793.537   6
  -6   2  18 4655.94 847.465   6
   6  -2 -17 95.5704 277.767  10
   6   2 -17 78.2622 358.458   9
  -6  -2  17 1276.36 539.844  17
  -6   2  17 641.724 325.642  15
  -6  -2  17 945.134 455.421  13
  -6  -2  17 445.620 343.011   6
  -6   2  17 938.507 475.979   6
  -6   2  16 12447.9 1195.69   1
   6  -2 -16 13321.5 1296.73  10
   6   2 -16 10669.9 1144.15   9
  -6  -2  16 12068.1 1235.43  13
  -6  -2  16 14320.9 1313.18   6
  -6   2  16 11540.9 1265.36   6
  -6  -2  16 11761.1 1266.87  17
   6   2 -16 14380.2 1241.01   2
   6  -2 -15 539.023 347.912  10
   6   2 -15 1075.83 372.668   2
  -6  -2  15 828.398 410.635  17
  -6   2  15 922.817 433.764   1
  -6  -2  15 872.809 360.459  13
   6   2 -15 422.140 299.219   9
  -6  -2  15 674.457 387.616   6
  -6   2  15 1111.17 456.756   6
   6  -2 -14 5240.26 762.075  10
   6   2 -14 5647.01 801.038   9
  -6  -2  14 6001.27 860.973  17
  -6   2  14 4527.46 733.237   1
  -6  -2  14 5586.97 781.024  13
  -6  -2  14 5499.81 778.326   6
  -6   2  14 5495.29 827.755   6
   6   2 -14 4510.44 631.908   2
   6  -2 -13 1791.84 478.684  10
   6   2 -13 1678.30 444.808   9
   6   2 -13 1618.19 383.946   2
  -6  -2  13 2069.52 517.450  17
  -6  -2  13 1025.97 352.976  13
  -6   2  13 2265.82 510.035   1
  -6  -2  13 2233.03 515.210   6
  -6   2  13 1233.68 418.485   6
   6  -2 -12 4089.31 641.130  10
   6   2 -12 3515.12 608.415   9
  -6  -2  12 3787.25 651.107  17
   6   2 -12 3621.95 484.628   7
  -6  -2  12 4823.45 661.167  13
  -6  -2  12 3404.22 606.711   6
  -6   2  12 3715.74 571.815   1
   6   2 -12 4416.42 580.245   2
   6  -2 -11 26929.0 1487.10  10
  -6   2  11 25816.3 1358.58   1
   6   2 -11 25766.5 1469.10   9
   6   2 -11 26998.2 1281.09   7
  -6  -2  11 24861.4 1483.67  17
  -6  -2  11 27983.0 1507.12  13
  -6  -2  11 23466.1 1435.60   6
   6   2 -11 26824.7 1315.09   2
   6  -2 -10 85003.4 2534.17  10
   6   2 -10 77789.8 2431.83   9
  -6   2  10 72719.5 2146.07   1
   6   2 -10 81735.7 2188.41   7
  -6  -2  10 77040.9 2476.40  17
  -6  -2  10 77798.6 2391.55  13
  -6  -2  10 78542.1 2473.71   6
   6  -2 -10 77174.5 1834.09  11
   6   2 -10 83180.7 2199.49   2
   6  -2  -9 412.732 149.915  11
   6  -2  -9 140.126 259.254  10
   6   2  -9 490.628 201.094   2
   6   2  -9 361.303 313.417   9
  -6  -2   9 361.124 252.966  17
   6   2  -9 1023.30 311.930   7
  -6   2   9 881.798 313.656   1
  -6  -2   9 375.418 236.334  13
  -6  -2   9 440.335 323.380   6
   6  -2  -8 92217.7 2451.06  10
  -6   2   8 82918.0 2059.87   1
   6   2  -8 89542.5 2408.17   9
  -6  -2   8 96856.2 2515.86  17
   6  -2  -8 98423.0 2597.18   7
   6   2  -8 94706.6 2259.56   7
  -6  -2   8 99225.0 2493.20  13
  -6   2   8 95087.8 1839.56  13
  -6  -2   8 92484.6 2487.94   6
   6   2  -8 98158.0 2157.04   2
   6  -2  -8 91155.1 1663.92  11
   6  -2  -7 54734.9 1804.05  10
  -6  -2   7 51350.2 1789.36  17
   6   2  -7 53851.8 1808.05   9
   6  -2  -7 54438.4 1875.52   7
   6   2  -7 54734.2 1708.11   7
  -6   2   7 52356.0 1580.68   1
  -6  -2   7 55872.2 1815.28  13
  -6   2   7 52573.6 1297.78  13
  -6  -2   7 53016.6 1804.59   6
   6   2  -7 56409.4 1559.26   2
   6  -2  -7 51730.4 1125.32  11
   6   2  -6 4977.60 482.959  10
   6  -2  -6 5519.56 576.345  10
   6   2  -6 5021.74 559.359   9
  -6  -2   6 5736.08 572.239  17
  -6   2   6 4856.16 417.723  17
   6  -2  -6 4746.57 568.083   7
   6   2  -6 4524.55 496.853   7
  -6  -2   6 5093.33 565.856  13
  -6   2   6 4957.07 385.259  13
  -6   2   6 4675.03 447.734   1
  -6  -2   6 4617.84 551.820   6
  -6   2   6 4660.40 357.447  12
   6  -2  -6 5393.50 326.087  11
   6   2  -5 9318.05 588.355  10
   6  -2  -5 9801.68 719.047  10
   6   2  -5 9485.03 698.956   9
  -6  -2   5 10121.6 737.058  17
  -6   2   5 10341.7 557.407  17
   6  -2  -5 10267.1 761.440   3
   6   2  -5 10011.6 742.555   7
   6  -2  -5 10461.3 485.298  14
  -6   2   5 10782.5 557.461  13
  -6  -2   5 10512.4 751.884  13
   6  -2  -5 9702.43 787.182   7
  -6  -2   5 10212.4 745.312   6
  -6  -2   5 11031.1 608.675  12
   6  -2  -5 10357.4 404.359  11
   6  -2  -4 22407.8 568.039  11
   6   2  -4 22655.3 820.920  10
   6  -2  -4 23559.5 1077.66  10
   6   2  -4 24270.4 1109.87   7
   6  -2  -4 22869.4 1125.73   7
   6  -2  -4 22858.5 1113.42   3
  -6   2   4 23210.1 817.285  13
  -6  -2   4 23293.1 1078.45  17
  -6  -2   4 24910.2 1138.12  13
   6   2  -4 22997.7 1005.99   9
  -6  -2   4 23350.8 1059.45   6
   6  -2  -4 23540.8 812.985  14
  -6  -2   4 23287.9 942.250  12
  -6   2   4 21744.4 724.066  17
   6   2  -3 4498.18 328.121  10
   6  -2  -3 4630.21 480.679  10
   6   2  -3 4306.51 422.243   9
  -6  -2   3 4484.73 486.024  17
   6  -2  -3 4526.67 505.243   7
   6  -2  -3 4321.28 502.787   3
   6  -2  -3 4634.93 394.764  14
  -6   2   3 4338.90 300.404  17
  -6  -2   3 5147.16 529.285  13
   6   2  -3 3190.88 437.128   7
  -6  -2   3 3696.28 431.619   6
  -6  -2   3 4665.42 457.774  12
  -6  -2   3 4343.56 266.673  11
   6   2  -2 121196. 1501.83  10
  -6   2   2 114136. 1236.91   2
   6  -2  -2 116253. 2338.08  10
   6   2  -2 120609. 2025.72   9
  -6   2   2 117033. 1462.96  17
  -6  -2   2 118658. 2395.72  17
  -6  -2   2 122768. 2092.25   8
   6  -2  -2 119854. 2429.10   7
   6  -2  -2 125648. 2543.54   3
   6  -2  -2 119877. 2132.89  14
  -6   2   2 121387. 2529.18   8
   6   2  -2 118689. 2467.02   7
  -6  -2   2 116905. 2339.51  12
  -6  -2   2 118303. 1507.13  11
   6  -2  -1 12569.3 762.724  10
   6   2  -1 12539.6 419.344  10
  -6   2   1 13291.0 536.527   2
   6   2  -1 13460.7 633.661   9
  -6   2   1 12925.7 496.705  17
  -6  -2   1 12655.3 794.677  17
  -6  -2   1 14478.7 723.832   8
   6  -2  -1 13455.4 806.203   7
   6   2  -1 13243.5 849.476   7
   6  -2  -1 14664.7 879.717   3
   6  -2  -1 12494.5 740.075  14
   6   2  -1 13800.4 865.250  14
  -6   2   1 12226.6 830.399   8
  -6   2   1 13109.5 579.470   6
  -6   2   1 13604.7 829.465  12
  -6  -2   1 14901.2 874.198  12
  -6  -2   1 13052.3 564.917  11
  -6   2   0 72605.9 1465.72   2
   6  -2   0 76485.8 1683.84  18
   6   2   0 70906.8 1329.54   9
  -6   2   0 73442.6 1248.15  17
  -6  -2   0 75884.4 1707.92   8
   6   2   0 76774.8 2044.51   7
   6  -2   0 75089.9 1851.07   7
   6  -2   0 75553.8 1979.57   3
   6  -2   0 73321.2 1909.68  14
   6   2   0 77238.2 2050.15  14
  -6  -2   0 76657.1 1978.62  17
   6   2   0 73819.7 1700.44  16
  -6   2   0 70681.5 1126.51   6
  -6   2   0 82849.9 2166.03   8
  -6   2   0 79925.3 2093.74  12
  -6  -2   0 76995.3 2054.90  12
   6   2   0 76634.9 1425.50   1
  -6  -2   0 76004.1 1495.66  11
  -6   2  -1 2600.86 318.382   2
  -6  -2  -1 2577.14 393.338  17
  -6   2  -1 2957.71 477.407   8
   6   2   1 2606.36 343.149  16
   6  -2   1 2142.86 369.782  14
   6  -2   1 2453.69 344.367  18
   6  -2   1 2474.41 348.960   7
   6   2   1 1647.73 331.449  14
   6   2   1 3089.78 460.931   7
  -6  -2  -1 2599.55 317.964   4
   6  -2   1 2521.69 408.149   3
  -6   2  -1 2577.00 437.874  12
   6   2   1 2181.66 297.498   1
  -6  -2  -1 2905.44 452.841  12
  -6  -2  -1 2438.02 313.546  11
  -6   2  -2 23019.7 1018.02   2
   6   2   2 22989.0 1176.05   7
   6  -2   2 24094.6 1098.49  18
  -6  -2  -2 22542.7 899.756   4
   6  -2   2 22522.6 988.072   7
   6  -2   2 23762.8 1127.89   3
   6  -2   2 23133.8 1193.20  14
   6   2   2 23872.8 1236.32  14
  -6  -2  -2 25384.3 1228.07  17
  -6   2  -2 23343.0 1238.83  12
  -6  -2  -2 22601.6 1222.72  12
   6   2   2 22438.2 987.876  16
   6   2   2 21171.4 972.986   1
  -6  -2  -2 22654.8 976.185  11
  -6  -2  -3 20.3233 85.4308   4
  -6  -2  -3 123.659 208.950  17
   6   2   3-1.32047 142.424  16
   6  -2   3 43.1666 216.972  14
   6   2   3 49.4818 193.868  14
   6  -2   3-134.311 145.143   7
   6  -2   3 349.937 210.836  18
   6   2   3 122.141 245.782   7
  -6   2  -3 118.054 150.779   2
   6  -2   3 67.9242 154.220   3
  -6   2  -3-63.7414 241.019  12
  -6  -2  -3-81.7031 257.039  12
   6   2   3 158.190 206.517   1
  -6   2  -4 23215.5 1182.65   2
   6  -2   4 25216.9 1276.50  18
  -6  -2  -4 24670.5 1322.54  17
   6   2   4 25086.2 1134.76  16
   6  -2   4 24427.6 1011.24   7
   6  -2   4 25141.9 1379.70  14
   6   2   4 24870.4 1344.60  14
   6   2   4 24601.2 1244.12   7
  -6   2  -4 25255.3 1402.79  12
  -6  -2  -4 27536.3 1452.16  12
   6  -2   4 23304.1 1167.99   3
   6   2   4 24432.9 1195.00   1
  -6   2  -5 8654.14 777.241   2
  -6  -2  -5 8579.13 838.418  17
   6  -2   5 8651.72 863.805  14
   6  -2   5 7241.14 657.281   3
   6   2   5 8745.17 782.658   7
   6   2   5 6651.40 743.022  14
  -6   2  -5 8963.62 877.179  12
  -6  -2  -5 8965.77 889.740  12
   6  -2   5 8575.00 797.282  18
   6   2   5 8014.00 791.353   1
  -6   2  -6 8599.03 836.251   2
   6   2   6 8925.35 890.296  14
   6  -2   6 9112.79 935.783  14
   6   2   6 10157.4 841.011   7
   6  -2   6 8737.06 854.743  18
   6  -2   6 8499.60 729.768   3
  -6   2  -6 9618.79 948.656  12
  -6  -2  -6 11339.8 1018.66  12
   6   2   6 8274.51 824.170   1
   6  -2   7 148.760 216.739  14
   6   2   7 880.379 308.691  14
  -6   2  -7 1215.83 384.414   2
   6   2   7 1045.04 366.484   7
   6  -2   7 570.504 325.945  18
  -6   2  -7 431.991 369.108  12
  -6  -2  -7 1409.29 452.120  12
   6   2   7 445.415 271.610   1
  -6   2  -8 9963.60 942.950   5
  -6   2  -8 9683.83 985.429   2
   6  -2   8 10179.7 1003.64  18
   6  -2   8 10024.6 1046.17  14
   6   2   8 10389.6 1039.41  14
   6   2   8 10318.7 883.687   7
  -6   2  -8 10737.2 1068.27  12
  -6  -2  -8 11284.6 1087.58  12
   6   2   8 9211.40 958.968   1
  -6   2  -9 7491.09 916.761   2
   6  -2   9 6993.81 896.893  18
   6   2   9 6908.64 858.628  14
   6  -2   9 6097.66 860.877  14
  -6   2  -9 9085.50 1014.80  12
  -6  -2  -9 8167.21 960.020  12
   6   2   9 6869.22 872.515   1
  -6   2 -10 27927.1 1826.46   2
   6  -2  10 22948.9 1661.29  18
   6  -2  10 24436.0 1754.93  14
   6   2  10 26556.7 1725.81  14
  -6  -2 -10 26302.8 1806.53   2
  -6   2 -10 28445.8 1800.63  12
  -6  -2 -10 27261.8 1761.51  12
   6   2  10 27897.5 1777.48   1
   6  -2  11 801.988 388.687  18
   6  -2  11 136.653 270.504  14
   6   2  11-47.3512 240.786  14
  -6   2 -11 642.493 413.902   2
  -6  -2 -11-514.851 434.604   2
   6   2  11 554.725 382.914   1
  -6   2 -11 87.9675 342.019  12
  -6  -2 -11 188.548 306.850  12
   6  -2  12 4634.31 810.100  14
  -6   2 -12 3714.31 751.576   2
   6   2  12 4933.12 807.756  14
   6  -2  12 3635.12 767.354  18
  -6  -2 -12 4658.21 867.991   2
   6   2  12 4307.29 869.320   1
  -6   2 -12 5160.53 831.252  12
  -6  -2 -12 5425.48 871.555  12
   6  -2  13 510.197 363.195  18
  -6   2 -13 920.408 442.666   2
   6  -2  13-122.266 320.419  14
   6   2  13-421.829 384.560  14
  -6  -2 -13 548.454 380.609   2
   6   2  13 344.134 325.823   1
  -6   2 -13 28.5569 297.211  12
   6  -3 -18 573.701 354.602  10
  -6  -3  18 1544.58 552.844  17
  -6   3  18 739.333 457.347  15
   6   3 -18 335.927 326.538   9
  -6  -3  18 270.681 303.584   6
  -6  -3  18 853.004 447.368  13
  -6   3  18 115.256 302.249   6
  -6   3  18 845.009 426.657   1
  -6   3  17 10574.2 1197.18   1
   6  -3 -17 6527.96 989.150  10
  -6  -3  17 8765.78 1156.46  17
  -6   3  17 8392.08 1136.77  15
  -6  -3  17 10316.6 1227.95  13
  -6  -3  17 9992.03 1155.79   6
  -6   3  17 10147.9 1228.71   6
   6   3 -17 8690.49 1069.29   9
   6   3 -17 8860.41 1046.57   2
   6  -3 -16 620.462 376.397  10
   6   3 -16 291.841 267.126   2
  -6  -3  16 79.3493 298.408  17
  -6   3  16 554.642 360.187  15
  -6   3  16 801.035 442.781   1
   6   3 -16-48.7301 318.219   9
  -6  -3  16 889.098 418.436  13
  -6  -3  16 932.047 446.191   6
  -6   3  16 643.157 351.850   6
   6  -3 -15 13881.1 1283.76  10
  -6   3  15 13874.6 1260.82   1
   6   3 -15 12582.0 1222.98   9
  -6  -3  15 14043.8 1353.64  17
  -6   3  15 14914.9 1384.36  15
  -6  -3  15 14096.4 1345.85  13
  -6  -3  15 14133.6 1285.73   6
   6   3 -15 12100.5 1134.25   2
   6  -3 -14 3710.05 674.678  10
  -6  -3  14 3392.76 658.409  17
   6   3 -14 3836.90 688.865   9
   6   3 -14 3308.04 566.729   2
  -6  -3  14 3709.89 688.009  13
  -6  -3  14 4027.90 690.162   6
  -6   3  14 3709.70 659.181  15
  -6   3  14 3922.89 691.480   1
   6  -3 -13 6863.47 851.830  10
  -6   3  13 8231.31 890.469   1
   6   3 -13 5969.38 804.778   9
  -6  -3  13 8161.33 959.487  17
  -6  -3  13 7221.75 882.670  13
  -6  -3  13 7394.37 885.109   6
   6   3 -13 7823.26 849.089   2
  -6   3  12 4068.85 635.945   1
   6  -3 -12 3735.51 644.930  10
  -6  -3  12 3266.23 603.320  13
  -6  -3  12 4360.40 715.259   6
  -6  -3  12 3766.62 647.637  17
   6   3 -12 4247.43 666.786   9
   6   3 -12 4466.74 612.659   2
   6  -3 -11 22675.4 1407.35  10
  -6   3  11 18851.8 1224.95   1
  -6  -3  11 20725.0 1398.94  17
   6   3 -11 22346.7 1406.03   9
   6   3 -11 21934.0 1141.36   7
  -6  -3  11 23066.2 1421.90  13
  -6  -3  11 22765.1 1414.68   6
   6  -3 -11 21470.7 1101.87  11
   6   3 -11 20939.1 1243.26   2
   6  -3 -10 131.440 141.560  11
   6  -3 -10 604.888 358.811  10
   6   3 -10 671.969 278.921   2
   6   3 -10 496.012 396.526   9
  -6  -3  10-55.6031 202.851  17
   6   3 -10 476.359 227.049   7
  -6   3  10-244.901 316.842   1
  -6  -3  10 425.355 295.175  13
  -6  -3  10 253.185 336.648   6
   6   3 -10-102.648 199.610   5
   6  -3  -9 39594.1 1740.80  10
   6   3  -9 37421.3 1690.17   9
  -6  -3   9 38921.1 1730.54  17
  -6   3   9 36398.0 1543.26   1
   6   3  -9 37674.7 1458.98   7
  -6  -3   9 36307.1 1663.61  13
  -6  -3   9 37354.3 1683.48   6
   6   3  -9 37805.9 1433.07   5
   6   3  -9 37559.3 1517.19   2
   6  -3  -9 36829.8 1254.66  11
   6  -3  -8 225.598 123.278  11
   6   3  -8-96.9166 239.106   5
   6  -3  -8 253.091 235.225  10
   6   3  -8 426.955 206.850   2
   6   3  -8 897.530 390.097   9
  -6  -3   8 153.519 250.512  17
  -6   3   8 169.232 179.651   1
   6   3  -8 294.132 184.476   7
  -6  -3   8 328.277 251.294  13
  -6  -3   8 62.0434 245.137   6
   6  -3  -7 8241.18 737.075  10
   6   3  -7 7765.75 746.503   9
  -6  -3   7 9155.71 798.682  17
   6  -3  -7 7967.82 700.811   3
   6   3  -7 7675.23 648.620   7
  -6   3   7 6779.22 650.300   1
  -6  -3   7 7776.89 732.650  13
  -6  -3   7 7591.24 729.087   6
   6   3  -7 7902.14 661.594   5
   6  -3  -7 7952.23 518.190  11
   6  -3  -6 8652.77 741.013  10
   6   3  -6 8010.89 721.753   9
  -6   3   6 8332.66 511.606  17
   6  -3  -6 8206.38 769.503   7
   6  -3  -6 8928.66 732.462   3
   6   3  -6 7863.85 665.460   7
  -6  -3   6 7711.50 708.580  13
  -6  -3   6 7624.96 702.379  17
  -6  -3   6 7522.08 713.796   6
   6   3  -6 8670.17 709.659   5
   6  -3  -6 8097.44 485.014  11
   6   3  -5 12876.4 669.071  10
   6  -3  -5 13800.4 909.571  10
   6   3  -5 13394.4 864.122   9
  -6  -3   5 13062.4 882.891  17
  -6   3   5 12370.2 545.213  17
   6  -3  -5 13454.2 922.085   7
  -6   3   5 13299.3 708.330  15
   6  -3  -5 12346.8 862.938   3
   6   3  -5 13572.7 875.580   7
  -6  -3   5 13825.3 917.234  13
  -6  -3   5 13025.9 876.949   6
   6   3  -5 13203.1 867.461   5
   6  -3  -5 12187.9 569.222  11
   6  -3  -4 13366.0 588.440  11
  -6  -3   4 12726.7 592.022  11
   6   3  -4 13491.0 621.366  10
   6  -3  -4 11697.9 823.454  10
  -6  -3   4 14217.8 919.911  17
   6   3  -4 13781.3 871.022   7
   6  -3  -4 13658.7 902.719   7
  -6   3   4 14839.6 669.813  15
   6  -3  -4 13783.2 899.773   3
   6  -3  -4 13309.4 603.044  14
  -6   3   4 13456.6 555.536  13
  -6  -3   4 12815.6 882.840  13
   6   3  -4 13988.6 843.608   9
   6   3  -4 13190.0 866.902   5
  -6  -3   4 13334.1 778.523  12
   6   3  -3 188325. 1970.53  10
   6  -3  -3 197341. 3303.84  10
   6   3  -3 202436. 3332.85   7
   6   3  -3 192145. 2890.24   9
   6  -3  -3 194410. 3287.34   7
  -6   3   3 191871. 2070.33  15
   6  -3  -3 201121. 3379.57   3
   6  -3  -3 201558. 2600.13  14
  -6  -3   3 205953. 3434.75  13
  -6  -3   3 199353. 3076.25  12
  -6  -3   3 195374. 3326.68  17
  -6  -3   3 194164. 2320.64  11
   6  -3  -2 10551.1 780.793  10
   6   3  -2 9470.20 614.420   9
  -6  -3   2 10121.8 562.986   8
   6  -3  -2 9616.56 731.765   7
   6  -3  -2 10174.8 785.398   3
   6  -3  -2 9550.88 629.085  14
   6   3  -2 10444.7 798.871   7
  -6   3   2 10024.3 759.453   8
  -6  -3   2 10104.6 774.610  17
  -6  -3   2 9594.80 706.866  12
  -6  -3   2 10080.5 552.178  11
   6  -3  -1 120610. 2584.50  10
   6   3  -1 120377. 2001.91   9
  -6  -3   1 121926. 2630.59  17
   6  -3  -1 120384. 2362.64  14
  -6  -3   1 124015. 1971.98   8
  -6   3   1 118367. 2657.31   8
   6  -3  -1 119771. 2453.61   7
   6  -3  -1 127265. 2729.04   3
   6   3  -1 124857. 2681.82   7
  -6  -3   1 123541. 2596.60  12
  -6  -3   1 123238. 2026.64  11
  -6   3   0 13178.0 613.397   2
   6   3   0 13621.3 610.539   9
  -6  -3   0 12922.3 879.147  17
  -6   3   0 13793.4 938.942   8
   6   3   0 13279.3 820.326  16
   6  -3   0 13082.2 795.391   7
   6  -3   0 13134.3 830.861  14
   6  -3   0 12991.9 898.459   3
   6   3   0 12611.6 908.246   7
  -6  -3   0 12217.1 858.079  12
   6   3   0 12186.8 586.745   1
  -6  -3   0 13902.5 729.008  11
  -6  -3  -1 389.396 179.771  11
   6  -3   1 382.969 183.841  18
  -6   3  -1 232.062 276.184   8
  -6  -3  -1 277.012 174.443   4
   6   3   1 355.750 182.307  16
  -6   3  -1 324.521 133.078   2
   6  -3   1 321.140 191.984  14
   6  -3   1 113.230 123.581   7
  -6  -3  -1 349.060 206.465  17
   6   3   1 50.3349 199.983  14
   6   3   1 878.994 367.192   7
   6  -3   1 492.703 249.563   3
  -6  -3  -1-117.519 226.182  12
   6   3   1 783.458 204.294   1
  -6   3  -2 6349.31 543.709   2
   6  -3   2 7208.95 649.455  18
   6  -3   2 6417.86 529.351   7
  -6  -3  -2 6970.30 701.044  17
  -6  -3  -2 6888.84 569.298   4
   6   3   2 6796.82 622.398  16
   6  -3   2 6439.66 689.230  14
   6  -3   2 7146.14 674.564   3
   6   3   2 7643.78 761.492   7
   6   3   2 6365.20 685.658  14
  -6  -3  -2 6665.16 718.132  12
  -6  -3  -2 7601.56 610.344  11
   6   3   2 5800.10 553.681   1
  -6   3  -3 8786.30 696.027   2
   6  -3   3 9096.03 767.420  18
  -6  -3  -3 7535.20 740.695  17
  -6  -3  -3 9478.42 664.720   4
   6   3   3 10235.8 771.088  16
   6  -3   3 8699.97 602.254   7
   6  -3   3 8312.89 783.747  14
   6  -3   3 9139.66 783.781   3
   6   3   3 8647.31 806.507  14
  -6   3  -3 9243.53 850.383  12
  -6  -3  -3 9951.66 900.828  12
  -6  -3  -3 9642.35 727.920  11
   6   3   3 7292.95 654.360   1
  -6  -3  -4 2869.88 466.709  11
   6   3   4 2607.13 441.540   1
   6   3   4 3387.63 463.675  16
  -6  -3  -4 2231.77 429.577  17
   6  -3   4 2774.93 532.643  14
  -6   3  -4 2297.76 403.158   2
   6   3   4 3019.10 498.555  14
   6  -3   4 2621.66 425.495   3
  -6   3  -4 2996.13 529.300  12
   6  -3   4 2773.60 438.035  18
  -6  -3  -4 2981.51 546.846  12
  -6   3  -5 24599.9 1338.00   2
   6   3   5 27024.9 1477.92  14
   6  -3   5 25198.8 1386.42  18
  -6  -3  -5 27371.7 1541.87  17
   6  -3   5 26886.3 1532.25  14
   6  -3   5 26626.9 1346.00   3
  -6   3  -5 28102.9 1568.33  12
  -6  -3  -5 28131.6 1566.81  12
  -6  -3  -5 23019.8 1270.50  11
   6   3   5 25024.2 1322.72   1
   6  -3   6 2792.06 557.278  14
  -6   3  -6 3480.44 569.672   5
  -6  -3  -6 3001.96 572.911  17
  -6   3  -6 3116.33 523.757   2
   6   3   6 3289.36 581.495  14
   6  -3   6 3204.02 538.125  18
   6  -3   6 2506.36 428.999   3
  -6   3  -6 3295.64 593.839  12
  -6  -3  -6 4087.77 658.482  12
  -6  -3  -6 2849.13 499.866  11
   6   3   6 4041.16 614.129   1
  -6   3  -7 24959.4 1507.40   5
  -6   3  -7 22924.4 1445.40   2
   6  -3   7 24795.1 1523.68  18
   6  -3   7 28127.9 1700.26  14
   6   3   7 24182.9 1500.59  14
   6  -3   7 25010.6 1347.21   3
  -6   3  -7 24877.4 1574.45  12
  -6  -3  -7 25412.0 1582.24  12
   6   3   7 25732.0 1486.70   1
  -6   3  -8-162.438 247.473   5
   6  -3   8-165.876 313.211  14
  -6   3  -8-110.571 220.121   2
   6   3   8 10.0020 241.178  14
   6  -3   8 34.3017 259.971  18
  -6   3  -8 264.400 283.780  12
  -6  -3  -8 55.7996 326.738  12
   6   3   8 819.480 404.421   1
  -6   3  -9 19064.6 1354.19   5
  -6   3  -9 19547.1 1459.30   2
   6  -3   9 17987.1 1430.68  18
   6  -3   9 17632.8 1475.06  14
   6   3   9 20247.5 1471.56  14
  -6   3  -9 21771.5 1576.35  12
  -6  -3  -9 18960.8 1449.48  12
   6   3   9 17303.5 1426.61   1
   6  -3  10-291.798 304.687  18
   6  -3  10-404.876 414.079  14
  -6   3 -10 292.604 296.191   2
   6   3  10 163.841 278.272  14
  -6   3 -10 749.289 460.294  12
  -6  -3 -10 213.664 258.239  12
   6   3  10-124.201 298.752   1
  -6   3 -11 5377.50 862.514   2
   6  -3  11 4373.13 812.318  14
   6  -3  11 6014.10 894.065  18
   6   3  11 5255.82 813.401  14
  -6  -3 -11 5152.89 870.946   2
  -6  -3 -11 6696.54 938.314  12
  -6   3 -11 5258.60 848.005  12
   6   3  11 4204.75 850.113   1
   6  -3  12 623.402 352.783  18
  -6   3 -12 214.216 238.405   2
   6  -3  12 554.675 384.906  14
   6   3  12 895.982 398.261  14
  -6  -3 -12 573.688 345.934   2
  -6   3 -12 1259.66 537.184  12
   6   3  12 488.147 366.046   1
  -6  -3 -12 586.956 425.161  12
  -6  -3 -12 610.291 374.404  11
  -6   3 -13 533.059 393.354   2
   6  -3  13 600.175 438.624  14
   6  -3  13-264.444 283.752  18
  -6  -3 -13-21.6211 264.816   2
   6   3  13 490.337 357.675   1
  -6   3 -13 305.329 263.233  12
  -6  -3 -13 649.152 363.327  11
   6  -4 -18 4471.39 824.358  10
   6   4 -18 3079.34 663.890   9
   6   4 -18 2682.50 640.372   2
  -6   4  18 2971.01 713.893   1
  -6  -4  18 4328.89 796.845   6
  -6  -4  18 4422.59 902.613  13
   6  -4 -17 4012.91 766.249  10
   6   4 -17 3031.85 679.050   9
   6   4 -17 2716.27 633.898   2
  -6   4  17 3273.63 762.521  15
  -6   4  17 2254.84 613.970   1
  -6  -4  17 3660.71 783.211  17
  -6  -4  17 3846.42 788.783   6
  -6  -4  17 3348.09 762.286  13
  -6   4  17 3152.36 765.913   6
   6  -4 -16 8427.43 1080.23  10
  -6   4  16 7581.27 1008.49   1
  -6  -4  16 8716.23 1121.05  17
  -6   4  16 6732.58 1002.63  15
  -6  -4  16 8414.48 1101.54  13
  -6  -4  16 7848.94 1044.98   6
   6   4 -16 6258.10 929.843   9
   6   4 -16 7645.83 1006.10   2
   6  -4 -15 168.338 263.628  10
   6   4 -15 483.437 276.877   2
   6   4 -15-468.611 391.895   9
  -6  -4  15 564.815 323.854  17
  -6   4  15 66.6222 252.162  15
  -6  -4  15-112.753 322.361  13
  -6  -4  15 394.096 322.417   6
  -6   4  15 769.972 422.739   1
   6  -4 -14 3178.09 652.428  10
   6   4 -14 3641.88 635.631   2
   6   4 -14 5132.37 814.845   9
  -6   4  14 4753.40 793.865  15
  -6  -4  14 3726.63 724.307  17
  -6  -4  14 3678.09 710.098  13
  -6  -4  14 4711.01 770.774   6
  -6   4  14 3772.06 702.106   1
  -6   4  13 5009.30 766.486   1
   6  -4 -13 3980.84 684.810  10
   6   4 -13 3851.40 642.002   2
   6   4 -13 3513.19 675.740   9
  -6   4  13 4880.90 765.914  15
  -6  -4  13 4109.68 723.567  17
  -6  -4  13 4154.09 719.797  13
  -6  -4  13 5554.93 799.699   6
   6  -4 -12 1701.75 497.375  10
  -6   4  12 1563.16 447.367   1
   6   4 -12 1941.45 420.329   2
  -6   4  12 1435.66 442.773  15
  -6  -4  12 1275.99 433.775  17
   6   4 -12 2271.23 554.281   9
  -6  -4  12 1311.47 401.795  13
  -6  -4  12 1064.84 415.947   6
   6  -4 -11 1737.62 357.415  11
   6   4 -11 1288.44 323.853   5
   6  -4 -11 1584.51 457.201  10
   6   4 -11 1477.91 364.937   2
   6   4 -11 2479.33 554.554   9
  -6   4  11 2038.48 485.778  15
  -6  -4  11 1452.40 419.191  17
  -6   4  11 663.732 335.405   1
  -6  -4  11 1613.24 459.081  13
  -6  -4  11 1929.64 476.435   6
   6  -4 -10 30447.1 1631.80  10
   6   4 -10 29720.9 1630.18   9
  -6  -4  10 30025.9 1661.02  17
  -6   4  10 31934.9 1618.32  15
  -6   4  10 31391.9 1610.19   1
   6   4 -10 28467.6 1291.17   7
  -6  -4  10 32157.1 1721.89  13
  -6  -4  10 28751.3 1613.88   6
   6   4 -10 31256.1 1428.95   5
   6   4 -10 29635.7 1513.51   2
   6  -4 -10 29546.2 1296.76  11
   6  -4  -9 1316.21 281.831  11
   6   4  -9 2083.44 395.224   5
   6  -4  -9 1377.52 402.440  10
  -6   4   9 1659.28 396.448   1
   6   4  -9 1839.67 397.851   2
  -6  -4   9 1106.72 345.895  17
  -6   4   9 1445.44 352.350  15
   6   4  -9 1234.18 290.460   7
  -6  -4   9 1699.68 449.270  13
  -6  -4   9 1547.82 382.211   6
   6  -4  -8 73577.2 2382.76  10
  -6  -4   8 70624.5 2368.08  17
   6  -4  -8 72068.2 2144.47   3
  -6   4   8 71308.2 2159.30  15
   6   4  -8 72688.6 2039.38   7
  -6  -4   8 76118.3 2451.86  13
  -6  -4   8 69699.3 2342.02   6
  -6   4   8 65805.9 2161.96   1
   6   4  -8 72778.1 2154.50   5
   6   4  -8 73743.3 2214.78   2
   6  -4  -8 72572.8 1836.94  11
   6   4  -7 2819.22 425.132   7
   6   4  -7 2579.10 430.843   5
   6  -4  -7 2034.50 414.042  10
  -6   4   7 3006.80 408.188   5
  -6  -4   7 2630.05 484.649  17
  -6   4   7 1857.37 395.769   1
  -6   4   7 2766.61 414.106  15
   6  -4  -7 2294.00 425.676   3
  -6  -4   7 3160.84 502.415  13
   6  -4  -7 2691.77 347.421  11
  -6   4   6 39889.4 1500.51   5
   6  -4  -6 36039.3 1596.79  10
  -6  -4   6 39213.1 1669.83  17
   6  -4  -6 41328.7 1623.60   3
  -6   4   6 38524.0 1393.07  15
   6   4  -6 42367.5 1551.88   7
  -6  -4   6 39672.5 1677.52  13
   6   4  -6 39163.4 1579.80   5
   6  -4  -6 39551.5 1232.29  11
   6   4  -5 1843.12 378.313   5
   6  -4  -5 1325.02 231.543  11
  -6   4   5 1926.82 361.550   5
   6  -4  -5 1561.92 348.662  10
  -6  -4   5 1430.98 367.604  17
  -6   4   5 1845.19 290.033  15
   6   4  -5 1147.85 274.180   7
   6  -4  -5 2375.70 419.863   3
  -6  -4   5 1674.63 401.426  13
  -6  -4   4 14037.3 740.278  11
   6  -4  -4 14280.5 981.926  10
  -6  -4   4 13827.6 964.581  17
  -6   4   4 14896.9 711.819  15
   6  -4  -4 15199.0 994.168   3
   6  -4  -4 14486.5 657.973  14
  -6  -4   4 15501.4 1013.87  13
   6   4  -4 15847.8 965.431   7
   6   4  -4 14997.2 979.132   5
   6  -4  -4 14818.0 732.380  11
   6  -4  -3 6323.60 487.287  11
   6   4  -3 5381.49 595.729   5
   6  -4  -3 5379.76 602.283  10
   6  -4  -3 6620.59 686.588   3
  -6  -4   3 5510.70 632.998  17
  -6   4   3 6283.03 624.285   8
   6  -4  -3 6456.77 490.126  14
  -6  -4   3 6067.84 645.273  13
   6   4  -3 7826.67 717.171   7
  -6  -4   3 5886.25 611.231  12
  -6  -4   3 6111.33 497.866  11
   6  -4  -2 11802.6 888.151  10
  -6   4   2 12323.1 899.819   8
   6  -4  -2 10913.9 794.287   7
  -6  -4   2 11202.4 864.657  17
   6  -4  -2 11008.3 693.814  14
   6  -4  -2 11662.1 883.154   3
   6   4  -2 12263.1 908.901   7
  -6  -4   2 12127.0 888.372  13
  -6  -4   2 9681.84 759.035  12
   6   4  -2 11619.0 882.587   5
  -6  -4   2 11782.4 693.782  11
   6  -4  -1 31253.6 1448.74   3
  -6  -4   1 30565.6 1412.98  17
   6  -4  -1 29629.8 1262.60   7
   6   4  -1 30637.9 1426.84   7
   6  -4  -1 28659.0 1204.22  14
  -6   4   1 29740.9 1395.45   8
  -6  -4   1 29481.2 1353.47  12
   6   4  -1 31608.1 1446.85   5
  -6  -4   1 29648.8 1129.37  11
   6   4   0 40133.0 1139.46   9
  -6  -4   0 39011.5 1481.75   4
   6  -4   0 38636.3 1410.19   7
   6   4   0 40191.8 1552.76  16
   6  -4   0 40654.7 1523.27  14
   6  -4   0 42636.3 1697.24   3
   6   4   0 42019.8 1687.50   7
  -6  -4   0 40934.6 1663.23  12
  -6   4   0 40490.8 1670.63   8
  -6  -4   0 40849.7 1681.81  17
  -6  -4   0 44016.0 1433.42  11
  -6   4  -1 10416.7 627.505   2
  -6  -4  -1 10993.2 903.349  17
  -6  -4  -1 10226.2 764.633   4
  -6   4  -1 9822.94 870.501   8
   6   4   1 9669.17 786.041  16
   6  -4   1 10664.1 720.947   7
   6  -4   1 9493.69 775.064  14
   6  -4   1 12365.9 936.859   3
  -6  -4  -1 11936.0 950.363  12
  -6  -4  -1 10644.6 738.627  11
   6   4   2 85799.7 1944.28   1
  -6   4  -2 83484.8 2003.24   2
  -6  -4  -2 87546.7 2569.96  17
   6   4   2 86101.2 2364.23  16
   6  -4   2 82411.1 1919.77   7
  -6  -4  -2 86598.0 2213.10   4
   6  -4   2 82556.8 2405.31  14
   6  -4   2 85418.3 2458.97   3
  -6  -4  -2 84461.7 2514.16  12
  -6  -4  -2 88019.5 2216.75  11
   6   4   3 19312.8 997.691   1
  -6   4  -3 17124.9 1238.06   5
  -6   4  -3 17907.6 996.613   2
  -6  -4  -3 16473.2 1166.24  17
   6   4   3 18091.5 1123.75  16
   6  -4   3 17265.2 1171.46  14
   6  -4   3 15526.2 1076.80   3
  -6  -4  -3 16683.9 988.453   4
  -6  -4  -3 19430.2 1256.47  12
  -6  -4  -3 16074.0 1002.15  11
   6   4   4 55445.4 1846.79   1
  -6   4  -4 53602.9 2166.22   5
  -6   4  -4 57451.9 1901.55   2
   6  -4   4 51971.2 1986.09  18
  -6  -4  -4 55899.4 2194.57  17
   6   4   4 56132.9 2006.91  16
   6  -4   4 54825.7 2173.30  14
   6   4   4 55478.4 2124.26  14
   6  -4   4 53663.1 2018.64   3
  -6  -4  -4 58376.8 2219.23  12
  -6  -4  -4 55739.2 1942.44  11
  -6   4  -5 6934.65 823.304   5
  -6   4  -5 5997.84 670.501   2
   6  -4   5 7203.39 798.957  18
  -6  -4  -5 6130.62 815.337  17
   6   4   5 8605.03 838.203  16
   6   4   5 7600.38 834.423  14
   6  -4   5 6512.94 740.917   3
  -6   4  -5 9093.97 939.197  12
  -6  -4  -5 7727.51 863.602  12
   6  -4   5 8331.86 891.757  14
  -6  -4  -5 7490.38 777.983  11
   6   4   5 6677.93 700.580   1
  -6  -4  -6 1818.27 418.147  11
   6   4   6 2008.07 459.191   1
  -6   4  -6 2206.26 457.765   2
   6  -4   6 2279.97 523.122  14
  -6  -4  -6 2233.47 504.634  17
   6   4   6 2803.81 539.692  14
  -6   4  -6 1941.36 457.644   5
   6  -4   6 1649.19 425.291  18
   6  -4   6 2100.45 424.729   3
  -6   4  -6 2748.38 552.956  12
  -6  -4  -6 2831.27 606.904  12
  -6  -4  -7 2043.35 495.254  11
   6   4   7 2136.38 444.184   1
  -6   4  -7 1989.45 462.193   5
   6  -4   7 1869.05 434.991  18
  -6   4  -7 1405.95 388.620   2
   6  -4   7 1859.76 484.312  14
   6   4   7 2104.24 474.917  14
   6  -4   7 1267.87 353.372   3
  -6   4  -7 1972.50 532.079  12
  -6  -4  -7 1832.48 486.965  12
  -6  -4  -8 302.854 275.937  11
   6   4   8 43.1779 317.025   1
  -6   4  -8-36.4292 220.275   5
   6  -4   8-70.9206 334.453  18
  -6   4  -8 685.452 368.483   2
   6  -4   8-153.899 288.277  14
   6   4   8-203.416 275.399  14
   6  -4   8-84.5563 179.462   3
  -6   4  -8-285.506 289.144  12
  -6  -4  -8 569.372 373.643  12
  -6  -4  -9 3053.60 604.732  11
   6   4   9 3246.13 631.607   1
   6  -4   9 2602.56 573.786  18
  -6   4  -9 3451.15 632.438   2
  -6   4  -9 3465.72 633.712   5
   6  -4   9 3088.78 672.951  14
   6   4   9 3717.61 663.784  14
  -6   4  -9 2797.39 609.355  12
  -6  -4  -9 3963.42 730.202  12
  -6   4 -10 9453.17 1092.96   2
   6  -4  10 10037.3 1177.21  18
   6  -4  10 11790.3 1286.80  14
   6   4  10 10034.2 1095.73  14
  -6   4 -10 10582.0 1165.66  12
  -6  -4 -10 11354.1 1195.50  12
  -6  -4 -10 9663.93 1103.24  11
   6   4  10 9347.82 1107.86   1
  -6  -4 -11 1050.89 454.916  11
   6  -4  11 730.513 382.556  18
  -6   4 -11 474.455 362.057   2
   6  -4  11 478.942 351.394  14
   6   4  11 114.012 238.743  14
  -6   4 -11 116.791 269.381  12
  -6  -4 -11 825.217 411.273  12
   6   4  11 1465.26 583.671   1
  -6   4 -12 7588.81 1060.64   2
   6  -4  12 7657.61 1077.16  18
   6  -4  12 7786.45 1093.53  14
  -6  -4 -12 8676.01 1171.80   2
  -6   4 -12 8284.45 1087.17  12
  -6  -4 -12 9560.67 1145.75  12
   6   4  12 9744.49 1184.48   1
  -6  -4 -12 9246.13 1167.58  11
  -6   4 -13 948.825 460.810  12
   6  -5 -17 3068.19 684.252  10
   6   5 -17 3014.58 671.050   9
  -6  -5  17 2273.27 642.521  17
  -6   5  17 2276.26 629.020  15
  -6   5  17 2374.49 646.688   1
   6   5 -17 2724.92 652.494   2
  -6  -5  17 2767.63 716.081  13
   6  -5 -16 747.138 375.722  10
  -6   5  16 768.203 393.736  15
   6   5 -16 1375.25 515.145   9
  -6  -5  16 879.735 459.554  17
  -6   5  16 1759.32 611.902   1
  -6  -5  16 1148.59 443.062  13
   6   5 -16 1302.90 502.041   2
   6  -5 -15 15519.3 1413.69  10
  -6   5  15 13074.1 1309.28   1
   6   5 -15 14292.5 1362.72   9
  -6  -5  15 13603.7 1385.46  17
  -6   5  15 14126.4 1423.01  15
  -6  -5  15 14696.8 1446.71  13
   6   5 -15 14117.7 1333.18   2
  -6   5  14 1681.21 537.569   1
   6  -5 -14 1237.24 434.593  10
   6   5 -14 747.125 381.856   2
   6   5 -14 1270.64 510.816   9
  -6   5  14 247.126 270.819  15
  -6  -5  14 1276.53 448.923  13
  -6  -5  14 871.333 371.479  17
   6  -5 -13 19924.6 1506.70  10
  -6   5  13 17931.7 1458.62   1
  -6  -5  13 20236.5 1600.64  17
  -6   5  13 22144.3 1602.41  15
   6   5 -13 21821.8 1607.95   9
  -6  -5  13 20720.8 1582.81  13
   6   5 -13 19674.4 1463.69   2
   6  -5 -12 5565.15 784.478  10
   6   5 -12 4764.87 720.473   2
  -6  -5  12 4414.68 732.926  17
   6   5 -12 5496.34 850.556   9
  -6   5  12 4597.81 688.733   1
  -6   5  12 6143.26 824.349  15
  -6  -5  12 5703.49 838.007  13
   6  -5 -11 13258.1 1141.65  10
  -6  -5  11 12845.0 1171.88  17
  -6   5  11 13025.9 1149.57   1
  -6   5  11 12759.7 1121.89  15
  -6  -5  11 13835.3 1227.23  13
   6   5 -11 11895.2 968.022   5
   6   5 -11 13129.6 1111.40   2
  -6   5  10 3652.90 614.446   1
   6   5 -10 3072.35 497.863   5
   6  -5 -10 4476.36 679.859  10
  -6   5  10 3898.92 596.078  15
  -6  -5  10 5773.52 789.749  13
  -6  -5  10 4312.61 660.677  17
   6   5 -10 4684.55 654.354   2
   6  -5 -10 3751.63 506.965  11
   6  -5  -9 7517.26 862.411  10
  -6  -5   9 7871.43 861.483  17
  -6   5   9 7699.40 786.110  15
   6   5  -9 7463.56 669.548   7
  -6   5   9 8248.87 865.367   1
  -6  -5   9 9663.07 948.558  13
   6   5  -9 7650.15 763.951   5
   6   5  -9 8544.99 859.737   2
   6  -5  -9 7346.75 663.143  11
   6  -5  -8 16450.3 1178.75  10
  -6  -5   8 14371.7 1135.49  17
   6  -5  -8 15713.9 1039.31   3
  -6   5   8 15525.2 1037.42  15
  -6   5   8 14369.1 1112.34   1
  -6  -5   8 15924.5 1209.61  13
   6   5  -8 16036.1 981.362   7
   6   5  -8 14248.8 1048.27   5
   6  -5  -8 13266.0 866.405  11
  -6   5   7 13986.6 921.443   5
   6  -5  -7 14863.7 1113.81  10
  -6  -5   7 14445.5 1098.47  17
   6  -5  -7 15140.3 1026.59   3
  -6   5   7 14681.9 949.849  15
   6   5  -7 14090.8 934.642   7
  -6   5   7 12474.8 1009.14   1
  -6  -5   7 14546.3 1111.84  13
   6   5  -7 13302.8 1008.14   5
   6  -5  -7 14257.0 866.179  11
  -6   5   6 3567.47 491.492   5
   6   5  -6 2411.59 523.129   5
   6  -5  -6 2508.75 473.670  10
  -6  -5   6 2962.87 515.649  17
  -6   5   6 3053.03 418.688  15
   6   5  -6 2858.00 424.133   7
   6  -5  -6 2650.93 459.246   3
  -6  -5   6 2650.15 455.112  13
   6  -5  -6 3158.45 408.779  11
  -6   5   5 67481.5 2114.98   5
   6  -5  -5 65960.0 2263.78  10
  -6  -5   5 66726.1 2258.71  17
   6  -5  -5 65756.8 2152.08   3
   6   5  -5 67351.6 2065.32   7
  -6  -5   5 68781.7 2274.40  13
   6   5  -5 65501.6 2189.76   5
   6  -5  -5 66277.2 1783.48  11
  -6  -5   4 10615.1 736.550  11
  -6   5   4 10606.8 881.215   5
   6  -5  -4 10690.0 920.802  10
  -6  -5   4 9244.16 842.483  17
  -6   5   4 11456.8 883.286   8
   6  -5  -4 8586.74 799.191   3
   6   5  -4 10838.3 858.107   7
  -6  -5   4 11321.3 917.331  13
   6   5  -4 10179.7 887.936   5
   6  -5  -4 9763.95 688.900  11
   6  -5  -3 68053.4 1808.17  11
  -6   5   3 70493.1 2279.98   5
   6  -5  -3 76256.7 2364.66  10
   6  -5  -3 71930.4 1733.14  14
   6  -5  -3 68301.4 2219.70   3
   6   5  -3 72401.0 2218.22   7
  -6  -5   3 69434.8 2251.48  17
  -6  -5   3 77302.9 2341.52  13
  -6   5   3 71946.0 2195.92   8
   6   5  -3 67195.5 2218.66   5
  -6  -5   3 73676.2 1927.63  11
   6   5  -2 1285.96 363.497   5
  -6  -5   2 1289.68 268.562  11
   6  -5  -2 1481.86 362.905  10
  -6   5   2 810.655 328.292   5
  -6  -5   2 1824.64 439.791  17
  -6   5   2 1350.39 314.908   8
   6  -5  -2 1745.88 322.257  14
   6   5  -2 2421.44 492.829   7
  -6  -5   2 1149.59 304.185  13
   6  -5  -2 1131.16 369.417   3
  -6   5   1 8085.76 835.400   5
  -6  -5   1 7462.23 756.543  17
  -6   5   1 7511.62 734.265   8
   6  -5  -1 8413.85 689.638  14
   6  -5  -1 8082.64 796.042   3
   6   5  -1 9057.78 857.961   7
  -6  -5   1 8698.49 805.057  13
  -6  -5   1 7739.00 753.636  12
   6   5  -1 7393.87 737.941   5
  -6  -5   1 8254.11 673.769  11
   6   5   0 55.2689 288.684   5
  -6  -5   0 413.281 204.736  11
  -6   5   0 120.968 277.741   5
  -6  -5   0 977.522 321.015  17
  -6   5   0 881.108 331.991   8
  -6  -5   0 279.389 170.506   4
   6   5   0 432.743 197.886  16
   6  -5   0 463.377 203.673  14
   6  -5   0 1002.45 311.395   3
  -6  -5   0-46.4232 295.495  12
  -6  -5  -1 1660.11 343.759  11
  -6   5  -1 1335.63 336.200   5
  -6  -5  -1 1120.54 363.526  17
  -6  -5  -1 1042.48 281.388   4
   6   5   1 1229.01 342.726  16
   6  -5   1 1241.92 304.272  14
   6  -5   1 1639.46 424.427   3
  -6  -5  -1 1649.86 383.938  12
  -6  -5  -2 946.690 271.059  11
  -6   5  -2 265.942 284.135   5
  -6  -5  -2 1720.58 387.288   4
   6   5   2 1070.03 337.227  16
   6  -5   2 1026.54 324.113  14
   6  -5   2 1147.45 355.626   3
  -6  -5  -2 877.961 333.401  17
  -6  -5  -2 1225.39 405.075  12
  -6   5  -3 20784.3 1396.87   5
  -6   5  -3 20133.8 1091.72   2
   6   5   3 20117.9 1295.92  16
   6  -5   3 20487.6 1336.34  14
   6  -5   3 19552.3 1293.43   3
  -6  -5  -3 20026.4 1353.85  17
  -6  -5  -3 20848.3 1354.56  12
  -6  -5  -3 19703.3 1182.54   4
  -6  -5  -3 22856.3 1272.45  11
  -6  -5  -4 13.8130 190.977  11
  -6   5  -4-18.7559 257.647   5
   6   5   4 328.137 250.436   1
  -6  -5  -4 225.513 235.301  17
   6   5   4 318.375 250.601  16
  -6   5  -4-36.4873 163.253   2
   6  -5   4-8.70142 261.452  14
   6  -5   4 593.302 305.064   3
  -6  -5  -4 265.253 300.876  12
  -6   5  -5 36488.1 1915.71   5
   6   5   5 36562.8 1631.96   1
  -6   5  -5 38636.5 1724.44   2
  -6  -5  -5 34533.9 1885.96  17
   6   5   5 40313.1 1905.57  16
   6  -5   5 41478.1 2028.10  14
   6  -5   5 36198.4 1797.63   3
  -6  -5  -5 39357.6 1984.78  12
  -6  -5  -5 37441.4 1759.63  11
  -6   5  -6 7585.77 917.991   5
   6   5   6 6824.36 793.915   1
  -6   5  -6 7198.66 797.689   2
  -6  -5  -6 7690.98 937.224  17
   6   5   6 9497.50 976.925  16
   6  -5   6 7115.43 890.450  14
   6  -5   6 6812.73 809.064   3
  -6  -5  -6 8537.66 974.191  12
  -6  -5  -6 8025.03 866.910  11
  -6   5  -7 12444.5 1165.80   5
   6   5   7 11958.5 1074.64   1
  -6   5  -7 12389.9 1097.32   2
   6  -5   7 13215.6 1246.01  14
   6  -5   7 14074.6 1162.43   3
  -6  -5  -7 12584.9 1231.87  17
  -6   5  -7 12602.8 1213.70  12
  -6  -5  -7 12731.8 1191.55  12
  -6  -5  -7 11117.9 1066.74  11
  -6  -5  -8 1248.02 377.333  11
   6   5   8 826.050 327.533   1
  -6   5  -8 1586.57 489.868   5
   6  -5   8 875.934 314.919  18
  -6   5  -8 1470.81 446.139   2
   6  -5   8 1677.85 491.909  14
   6  -5   8 943.634 330.976   3
  -6   5  -8 1295.62 457.638  12
  -6  -5  -8 1494.70 448.303  12
  -6   5  -9 5705.00 829.659   2
   6   5   9 4226.47 699.156   1
  -6   5  -9 4906.33 766.459   5
   6  -5   9 5052.79 813.638  18
   6  -5   9 5309.51 869.177  14
  -6   5  -9 5237.29 845.131  12
  -6  -5  -9 4364.67 779.026  12
  -6  -5  -9 6660.25 919.376  11
  -6  -5 -10 2288.19 593.275  11
   6   5  10 2497.32 606.844   1
   6  -5  10 2066.31 565.154  18
  -6   5 -10 3577.98 700.940   2
   6  -5  10 3256.17 715.240  14
  -6   5 -10 3384.42 712.778  12
  -6  -5 -10 2533.47 655.968  12
  -6  -5 -11 5015.21 857.244  11
   6  -5  11 4604.32 827.641  18
  -6   5 -11 4807.44 824.966   2
   6  -5  11 5038.96 894.417  14
  -6   5 -11 4236.63 802.251  12
  -6  -5 -11 6121.35 933.164  12
   6   5  11 5911.12 942.661   1
  -6  -5 -12 418.392 357.816  11
  -6   5 -12 147.569 300.783   2
  -6   5 -12 147.785 312.635  12
  -6  -5 -12 291.862 307.229  12
   6   5  12 1398.09 563.119   1
   6  -6 -16 3782.40 759.929  10
   6   6 -16 4527.42 853.828   9
  -6  -6  16 3861.24 774.322  17
  -6   6  16 3679.18 792.187  15
   6   6 -16 3989.35 772.354   2
  -6  -6  16 2766.54 716.319  13
  -6   6  16 2644.23 663.360   1
   6  -6 -15-452.987 379.791  10
   6   6 -15 181.467 250.838   2
   6   6 -15 866.304 509.663   9
  -6  -6  15 150.035 302.446  17
  -6   6  15 228.021 261.774  15
  -6  -6  15 720.027 421.988  13
  -6   6  15-291.954 447.478   1
   6  -6 -14 9469.59 1083.71  10
  -6   6  14 10600.7 1217.98   1
   6   6 -14 9975.63 1176.55   9
  -6  -6  14 10107.4 1173.20  17
  -6   6  14 10419.2 1195.20  15
  -6  -6  14 10417.8 1234.96  13
   6   6 -14 9979.57 1128.96   2
   6  -6 -13 1103.01 445.778  10
   6   6 -13 767.889 334.859   2
   6   6 -13 2672.79 700.745   9
  -6  -6  13 974.018 443.311  17
  -6   6  13 1954.34 544.827  15
  -6   6  13 1429.71 513.516   1
  -6  -6  13 1504.08 477.763  13
   6  -6 -12 13982.5 1264.49  10
  -6  -6  12 15081.1 1338.58  17
  -6   6  12 13782.3 1271.65   1
  -6   6  12 15915.0 1343.55  15
  -6  -6  12 15843.1 1426.44  13
   6   6 -12 13790.8 1255.33   2
   6   6 -11 307.608 273.094   5
   6  -6 -11 68.0289 285.408  10
   6   6 -11 823.484 391.993   2
  -6  -6  11 207.992 248.080  17
  -6   6  11-191.577 260.126  15
  -6  -6  11 438.246 382.961  13
  -6   6  11 250.425 336.683   1
   6   6 -10 3355.61 589.804   5
  -6   6  10 3286.67 612.899   1
   6  -6 -10 3184.09 614.398  10
  -6  -6  10 4001.09 687.003  17
  -6   6  10 3941.28 619.615  15
  -6  -6  10 4295.98 729.435  13
   6   6 -10 4687.69 690.208   2
   6  -6 -10 4821.58 616.386  11
   6  -6  -9 1392.82 352.091  11
   6   6  -9 825.783 332.121   5
   6  -6  -9 461.055 289.762  10
  -6   6   9 1146.10 357.767  15
  -6   6   9 203.844 335.832   1
  -6  -6   9 657.196 347.638  17
   6  -6  -9 985.754 354.711   3
  -6  -6   9 1292.45 417.659  13
   6  -6  -8 7688.36 858.388  10
  -6  -6   8 6903.33 813.289  17
   6  -6  -8 7820.55 787.373   3
  -6   6   8 7551.76 756.099  15
   6   6  -8 7412.98 697.151   7
  -6   6   8 6591.00 859.059   1
  -6  -6   8 7654.48 870.298  13
   6   6  -8 7347.43 822.817   5
   6  -6  -8 7089.62 696.826  11
   6  -6  -7 1443.65 337.065  11
   6   6  -7 603.866 360.892   5
  -6   6   7 2028.11 390.647   5
   6  -6  -7 1785.95 451.254  10
  -6   6   7 1393.60 451.519   1
   6   6  -7 1461.68 345.792   7
   6  -6  -7 1122.34 363.575   3
  -6  -6   7 1147.27 358.486  13
  -6  -6   7 1635.36 457.930  17
   6  -6  -6 31008.7 1660.45  10
   6   6  -6 29302.4 1415.22   7
  -6  -6   6 30767.6 1651.88  17
   6  -6  -6 30282.4 1534.17   3
  -6  -6   6 30494.5 1653.99  13
   6   6  -6 28715.3 1576.90   5
   6  -6  -6 30094.1 1358.11  11
  -6   6   6 31737.0 1511.80   5
  -6   6   5 11370.3 924.274   5
  -6  -6   5 12737.8 911.776  11
   6  -6  -5 10786.0 976.547  10
  -6  -6   5 11819.5 1016.04  17
  -6   6   5 12108.2 945.539   8
   6  -6  -5 10842.0 948.769   3
   6   6  -5 11367.9 911.057   7
  -6  -6   5 11917.5 1007.52  13
   6   6  -5 11298.1 1019.32   5
   6  -6  -5 11633.9 835.181  11
  -6  -6   4 33152.9 1450.54  11
  -6   6   4 32583.6 1606.74   5
   6  -6  -4 33018.9 1666.33  10
  -6  -6   4 33019.0 1665.52  17
   6  -6  -4 31841.2 1595.91   3
   6   6  -4 30525.8 1498.99   7
  -6   6   4 32732.3 1545.92   8
  -6  -6   4 33793.8 1656.55  13
   6   6  -4 30409.1 1619.66   5
   6  -6  -4 32396.2 1387.31  11
   6   6  -3 3003.53 520.214   5
  -6  -6   3 3090.29 449.426  11
   6  -6  -3 2470.34 416.706  11
  -6   6   3 3750.98 593.034   5
   6  -6  -3 4107.59 637.947  10
  -6   6   3 3561.65 528.030   8
  -6  -6   3 3497.64 557.996  13
   6   6  -3 4030.32 600.299   7
  -6  -6   3 3404.06 554.212  17
   6  -6  -3 3583.25 591.420   3
  -6   6   2 19859.9 1307.37   5
  -6  -6   2 20125.2 1304.52  17
  -6   6   2 19135.8 1206.92   8
   6  -6  -2 20991.7 1083.83  14
   6  -6  -2 18351.6 1269.74   3
  -6  -6   2 21135.0 1290.37  13
   6   6  -2 18746.6 1226.34   7
   6   6  -2 19166.3 1289.96   5
  -6  -6   2 21194.6 1168.26  11
  -6   6   1 18987.8 1314.71   5
  -6  -6   1 20932.6 1326.60  17
  -6  -6   1 19274.3 1257.40   4
  -6   6   1 18730.2 1210.03   8
   6  -6  -1 19611.3 1115.11  14
   6  -6  -1 19193.0 1286.83   3
  -6  -6   1 21404.5 1296.00  13
   6   6  -1 18640.4 1251.64   5
  -6  -6   1 19331.1 1124.27  11
  -6   6   0 10989.3 1033.84   5
  -6   6   0 12718.8 1023.34   8
   6  -6   0 11219.0 888.557  14
   6   6   0 13432.2 1082.70  16
   6  -6   0 11648.3 1009.79   3
  -6  -6   0 11269.3 964.208   4
  -6  -6   0 10832.9 935.188  13
  -6  -6   0 12002.2 1033.23  17
   6   6   0 10766.5 949.152   5
  -6  -6   0 12225.1 917.848  11
   6   6   1 4703.66 662.938   5
  -6   6  -1 3760.54 639.161   5
  -6  -6  -1 4382.14 664.116  17
  -6  -6  -1 3969.14 576.414   4
   6   6   1 3803.32 616.088  16
   6  -6   1 4949.31 630.443  14
  -6  -6  -1 4384.59 607.230  13
   6  -6   1 4679.67 681.569   3
  -6  -6  -1 4972.53 598.555  11
  -6   6  -2 31422.0 1764.79   5
  -6  -6  -2 29228.4 1662.67  17
  -6  -6  -2 29193.0 1537.39   4
   6   6   2 30354.0 1650.80  16
   6  -6   2 31592.9 1649.71  14
   6  -6   2 27514.5 1596.10   3
  -6  -6  -2 29471.2 1506.69  11
  -6   6  -3 4810.18 740.448   5
  -6  -6  -3 4287.51 614.893   4
  -6  -6  -3 5268.98 734.231  17
   6   6   3 5286.84 737.619  16
   6  -6   3 5086.20 700.468  14
   6  -6   3 4479.73 689.029   3
  -6  -6  -3 4044.93 657.995  12
  -6  -6  -3 5380.68 672.825  11
  -6   6  -4 23326.7 1591.76   5
  -6  -6  -4 22993.9 1560.75  17
   6   6   4 24085.7 1551.73  16
   6  -6   4 23096.0 1522.34  14
   6  -6   4 21227.1 1451.26   3
  -6  -6  -4 25505.1 1613.17  12
  -6  -6  -4 23767.2 1438.09  11
  -6  -6  -5 2277.39 500.107  11
  -6   6  -5 1580.50 464.921   5
  -6  -6  -5 1790.40 512.523  17
   6   6   5 2187.14 521.724  16
   6  -6   5 2279.96 543.263  14
   6  -6   5 1746.14 451.724   3
  -6  -6  -5 2391.08 584.583  12
  -6   6  -6 7370.70 933.049   5
  -6  -6  -6 8047.45 1016.98  17
   6   6   6 8212.12 951.729  16
   6  -6   6 9229.94 1043.00  14
   6  -6   6 8562.38 966.980   3
  -6  -6  -6 8859.21 1031.43  12
  -6  -6  -6 7245.81 862.755  11
  -6  -6  -7 60.5491 255.897  11
  -6   6  -7 63.4077 253.161   5
   6   6   7 671.723 397.385   1
  -6  -6  -7 37.5432 286.810  17
  -6   6  -7 453.650 297.605   2
   6  -6   7 380.402 398.561  14
   6  -6   7 185.719 247.024   3
   6   6   7 637.303 383.980  16
  -6  -6  -7-230.004 347.250  12
   6   6   8 7654.71 918.138   1
  -6   6  -8 6503.51 850.696   2
   6   6   8 7136.53 956.351  16
   6  -6   8 6515.16 932.769  14
   6  -6   8 5461.68 792.825   3
  -6  -6  -8 7352.56 973.841  12
  -6   6  -8 7159.03 966.348  12
  -6  -6  -8 6948.52 926.153  11
  -6   6  -8 5917.26 864.549   5
  -6  -6  -9-64.9512 241.141  11
   6   6   9-258.057 347.030   1
  -6   6  -9 40.8678 261.261   5
  -6   6  -9 23.8091 209.776   2
   6  -6   9 414.556 407.629  14
   6  -6   9 14.2924 194.546   3
  -6   6  -9 11.3341 263.924  12
  -6  -6  -9-667.414 502.851  12
  -6  -6 -10 3418.75 711.565  11
   6   6  10 3105.70 652.008   1
  -6   6 -10 2462.92 576.758   2
   6  -6  10 3017.48 665.886  14
  -6   6 -10 2986.40 673.834  12
  -6  -6 -10 4047.28 818.324  12
  -6  -6 -11 1743.77 528.105  11
   6   6  11 1960.09 561.478   1
  -6   6 -11 1415.64 522.244   2
   6  -6  11 2387.22 668.818  14
  -6   6 -11 2392.70 640.820  12
  -6  -6 -11 1654.90 537.622  12
  -6   7  15-200.011 401.494   1
   6  -7 -15-223.152 252.199  10
   6   7 -15-423.829 399.244   2
  -6  -7  15-1.69320 243.312  17
  -6  -7  15-455.914 451.575  13
  -6   7  14 35.4727 280.014   1
   6  -7 -14 508.014 342.205  10
   6   7 -14 757.569 534.904   9
   6   7 -14 441.823 335.060   2
  -6  -7  14 1309.79 502.269  13
  -6  -7  14 841.588 469.572  17
   6  -7 -13 1930.12 551.784  10
   6   7 -13 871.677 372.538   2
  -6   7  13 542.657 350.478   1
  -6  -7  13 993.070 418.307  17
  -6  -7  13 916.544 418.867  13
   6  -7 -12 4788.64 785.379  10
   6   7 -12 4173.83 729.143   2
  -6  -7  12 4451.18 771.984  17
  -6   7  12 3940.77 745.900   1
  -6  -7  12 6297.67 943.747  13
   6  -7 -11 25742.5 1730.08  10
  -6  -7  11 25979.9 1771.79  17
  -6   7  11 25625.6 1782.47   1
  -6  -7  11 30535.7 1945.24  13
   6   7 -11 26581.7 1664.67   5
   6   7 -10 3712.71 690.304   5
  -6   7  10 2645.33 608.081   1
   6  -7 -10 2575.65 584.031  10
  -6  -7  10 2702.51 600.927  17
  -6  -7  10 2689.00 616.424  13
   6  -7  -9 42713.5 2134.13  10
  -6  -7   9 41639.8 2123.49  17
   6  -7  -9 42227.6 1873.08   3
  -6   7   9 39121.1 2106.90   1
   6   7  -9 38944.2 1991.66   5
   6  -7  -9 44952.1 1921.42  11
   6  -7  -8 10887.4 1073.44  10
  -6  -7   8 10839.0 1071.90  17
   6  -7  -8 9242.97 907.454   3
  -6   7   8 7396.47 955.320   1
  -6  -7   8 10388.8 1084.41  13
   6   7  -8 9274.32 989.672   5
   6  -7  -8 10596.5 916.965  11
   6  -7  -7 13649.6 1184.65  10
  -6  -7   7 13528.1 1182.11  17
   6  -7  -7 11641.3 1003.24   3
   6   7  -7 12411.8 954.353   7
  -6   7   7 11928.4 1177.40   1
  -6  -7   7 14404.7 1210.29  13
   6   7  -7 11655.0 1105.87   5
   6  -7  -7 14819.2 1063.96  11
   6  -7  -6 12377.3 1107.22  10
  -6  -7   6 12647.8 1123.01  17
  -6   7   6 11008.9 948.232   8
   6  -7  -6 11802.8 1018.75   3
   6   7  -6 11210.0 925.706   7
  -6  -7   6 13238.1 1137.87  13
   6   7  -6 11196.2 1070.44   5
  -6   7   6 10471.9 931.688   5
   6  -7  -6 11812.0 943.222  11
   6   7  -5 1840.55 486.460   5
   6  -7  -5 1834.33 393.108  11
  -6  -7   5 1146.24 336.050  11
  -6   7   5 1210.71 321.880   5
   6  -7  -5 1746.06 457.770  10
  -6  -7   5 1880.12 451.360  17
  -6   7   5 1205.59 345.430   8
   6   7  -5 1304.77 336.318   7
  -6  -7   5 2194.35 479.063  13
   6  -7  -5 1973.02 469.276   3
   6  -7  -4 3713.46 527.226  11
   6   7  -4 2062.01 487.081   5
  -6  -7   4 3616.23 535.032  11
  -6   7   4 4079.64 647.525   5
   6  -7  -4 3025.51 590.131  10
  -6  -7   4 3348.53 594.980  17
  -6   7   4 4404.32 589.652   8
   6   7  -4 4286.96 631.440   7
  -6  -7   4 4380.94 652.160  13
   6  -7  -4 3798.38 617.035   3
   6  -7  -3 4634.94 594.150  11
   6   7  -3 4151.80 670.302   5
  -6  -7   3 3326.32 510.211  11
  -6  -7   3 4813.39 716.980   4
  -6  -7   3 3734.21 628.931  17
  -6   7   3 2998.69 516.877   8
   6   7  -3 4053.07 643.450   7
  -6  -7   3 4509.52 647.810  13
   6  -7  -3 4231.02 634.823   3
  -6   7   3 4798.74 698.750   5
   6   7  -2 2297.01 536.526   5
  -6  -7   2 1892.02 414.807  11
  -6   7   2 1803.63 447.855   5
  -6  -7   2 1532.45 408.407  17
  -6  -7   2 2083.68 505.660   4
   6   7  -2 3047.17 619.366   7
  -6  -7   2 1452.77 389.982  13
   6  -7  -2 2367.66 510.248   3
  -6   7   2 2340.98 464.933   8
  -6   7   1 30234.9 1753.21   5
  -6  -7   1 29497.7 1660.94  17
  -6  -7   1 31136.1 1695.34   4
  -6   7   1 31432.5 1633.82   8
   6  -7  -1 29359.4 1433.21  14
   6  -7  -1 29557.1 1691.71   3
  -6  -7   1 31638.1 1644.89  13
   6   7  -1 29709.4 1664.24   5
  -6  -7   1 30765.6 1559.25  11
   6   7   0-174.608 343.791   5
  -6  -7   0 39.5114 173.790  11
  -6   7   0 444.165 389.299   5
  -6  -7   0 166.332 259.891  17
  -6  -7   0-19.2901 224.361   4
   6   7   0 442.957 353.817  16
  -6  -7   0-202.588 267.546  13
   6  -7   0-360.061 360.744   3
  -6   7  -1 37744.1 2030.28   5
  -6  -7  -1 37198.3 1873.57   4
   6   7   1 40101.9 2023.43  16
  -6  -7  -1 35386.3 1883.45  17
   6  -7   1 36277.3 1918.90   3
  -6  -7  -1 36834.1 1794.40  13
   6   7   1 37803.7 1879.01   5
  -6  -7  -1 38184.9 1781.44  11
   6   7   2 1510.23 428.205   5
  -6  -7  -2 1695.81 407.986  11
  -6   7  -2 1924.14 549.106   5
  -6  -7  -2 1298.67 454.524  17
  -6  -7  -2 1518.24 422.217   4
   6   7   2 1538.26 450.774  16
   6  -7   2 2097.07 485.656  14
  -6  -7  -2 1919.95 443.132  13
   6  -7   2 1219.21 418.351   3
  -6  -7  -3 7865.37 967.326  17
   6   7   3 9358.59 1020.39  16
   6  -7   3 8045.30 897.359  14
   6  -7   3 9057.25 1003.61   3
  -6  -7  -3 8840.93 925.050  11
  -6   7  -3 8453.41 1013.68   5
  -6  -7  -4 641.703 298.311  11
  -6   7  -4 516.338 322.688   5
  -6  -7  -4 682.098 316.637  17
   6   7   4 309.285 284.173  16
   6  -7   4-249.170 294.658  14
   6  -7   4 271.714 281.382   3
  -6  -7  -5 2715.91 560.116  11
  -6   7  -5 2591.03 619.849   5
  -6  -7  -5 3337.53 686.693  17
   6   7   5 3649.85 675.168  16
   6  -7   5 3194.99 624.363  14
   6  -7   5 2986.19 632.138   3
  -6  -7  -6 187.978 247.148  11
  -6   7  -6 407.589 286.512   5
   6   7   6 1086.36 444.813  16
   6  -7   6 140.319 286.179  14
  -6  -7  -6 967.503 510.957  17
   6  -7   6 1666.81 509.453   3
  -6  -7  -7 3889.66 720.944  11
  -6   7  -7 3786.16 706.328   5
  -6  -7  -7 3797.66 741.221  17
   6   7   7 6153.67 948.008  16
   6  -7   7 4972.54 848.274  14
   6  -7   7 5068.96 805.849   3
  -6  -7  -8 555.465 306.715  11
  -6   7  -8 487.793 399.257   5
   6   7   8 537.608 377.129  16
   6  -7   8 812.615 449.295  14
   6  -7   8 223.101 239.947   3
  -6   7  -9 4380.08 777.874   5
   6  -7   9 4334.05 825.227  14
   6   7   9 4439.52 811.032  16
   6  -7   9 5193.02 859.358   3
  -6   7  -9 3342.38 711.412  12
  -6  -7  -9 5595.91 895.815  11
  -6  -7 -10-126.756 303.468  11
   6   7  10-260.827 327.170  16
   6  -7  10 41.6069 259.093  14
  -6   7 -10 157.098 291.055  12
  -6   8  14 5694.91 1017.32   1
   6  -8 -14 5057.32 887.834  10
  -6  -8  14 6927.90 1033.95  17
  -6  -8  14 7327.07 1098.79  13
   6   8 -14 6617.00 1019.50   2
   6  -8 -13 1538.66 514.187  10
  -6   8  13 266.426 382.284   1
  -6  -8  13 1318.26 524.412  17
  -6  -8  13 1067.11 501.394  13
   6   8 -12 4993.40 798.555   5
   6  -8 -12 5248.28 843.305  10
  -6  -8  12 4201.08 778.183  17
  -6   8  12 4169.37 818.115   1
  -6  -8  12 6484.31 989.988  13
   6   8 -11 424.924 362.871   5
   6  -8 -11 115.284 248.980  10
  -6  -8  11 99.7288 240.414  17
  -6  -8  11 615.755 376.334  13
  -6   8  11 757.122 462.531   1
   6   8 -10 1612.38 475.114   5
  -6   8  10 1500.70 495.896   1
   6  -8 -10 757.298 285.348  10
  -6  -8  10 2395.48 566.841  17
  -6  -8  10 2305.60 563.838  13
   6  -8  -9 939.284 324.377  11
   6   8  -9-202.525 354.106   5
   6  -8  -9 400.107 319.640  10
  -6  -8   9 466.609 339.610  17
  -6   8   9 191.081 352.899   1
  -6  -8   9 156.089 265.427  13
   6  -8  -8 3116.49 549.691  11
   6   8  -8 2510.39 594.053   5
  -6   8   8 1731.97 516.515   1
   6  -8  -8 2556.61 565.087  10
  -6  -8   8 2899.26 623.886  17
   6  -8  -8 2524.74 518.005   3
  -6  -8   8 2456.04 540.517  13
   6  -8  -7 150.632 188.479  11
   6   8  -7-205.635 351.956   5
   6  -8  -7-11.7366 249.013  10
  -6  -8   7-71.4798 255.508  17
  -6   8   7-198.074 399.705   1
   6  -8  -7 41.8228 215.449   3
  -6  -8   7 448.333 380.404  13
   6  -8  -6 14720.3 1265.92  10
  -6  -8   6 14327.0 1250.71  17
   6  -8  -6 14420.2 1195.70   3
  -6  -8   6 16855.4 1331.98  13
   6   8  -6 16908.1 1391.12   5
  -6   8   6 14586.2 1200.48   5
   6  -8  -6 14406.3 1119.45  11
   6   8  -5 276.793 378.915   5
   6  -8  -5 340.583 241.118  11
  -6   8   5-11.2073 270.837   5
   6  -8  -5 156.980 273.283  10
  -6  -8   5-148.081 270.095  17
  -6   8   5-45.5098 206.212   8
   6   8  -5 563.733 363.896   7
  -6  -8   5-12.0028 223.512  13
   6  -8  -5-12.0758 218.082   3
   6  -8  -4 25651.7 1479.46  11
  -6  -8   4 22860.1 1445.98  11
  -6  -8   4 23315.9 1544.90  17
  -6  -8   4 21906.4 1556.76   4
  -6   8   4 23801.2 1419.90   8
   6  -8  -4 21497.0 1473.06   3
   6   8  -4 25905.4 1541.72   7
  -6  -8   4 24503.8 1559.41  13
   6   8  -4 24259.3 1644.97   5
  -6   8   4 21904.8 1497.18   5
   6   8  -3 836.862 389.888   5
  -6  -8   3 140.127 228.195  11
   6  -8  -3 337.021 226.946  11
  -6   8   3 392.760 297.864   5
  -6  -8   3-78.2211 251.579  17
  -6   8   3 137.815 207.113   8
  -6  -8   3 214.915 268.292   4
   6   8  -3 933.948 400.597   7
  -6  -8   3 277.264 239.138  13
   6  -8  -3 509.091 299.046   3
   6   8  -2 17117.9 1316.06   7
  -6  -8   2 15706.4 1317.25   4
  -6   8   2 16434.9 1208.24   8
   6  -8  -2 16647.6 1331.70   3
  -6  -8   2 16968.6 1335.91  17
  -6  -8   2 16518.1 1272.03  13
   6   8  -2 15749.9 1316.75   5
  -6   8   2 16111.5 1347.25   5
  -6  -8   2 16231.3 1220.63  11
   6   8  -1-61.0825 361.592   5
  -6  -8   1 147.536 197.630  11
  -6   8   1-335.119 440.503   5
  -6  -8   1-272.947 296.240  17
  -6  -8   1 223.000 253.219   4
  -6  -8   1-257.997 286.714  13
   6  -8  -1 16.0782 242.416   3
  -6  -8   0 17563.9 1380.15   4
   6   8   0 16572.3 1374.37  16
   6  -8   0 16328.6 1345.66   3
  -6  -8   0 18044.5 1395.90  17
  -6  -8   0 18699.4 1332.83  13
   6   8   0 16729.1 1338.11   5
  -6  -8   0 18846.7 1350.91  11
  -6   8   0 16744.8 1412.59   5
   6   8   1 2398.39 574.621   5
  -6  -8  -1 2343.78 524.794  11
  -6   8  -1 1434.09 441.234   5
  -6  -8  -1 1700.83 504.220  17
   6   8   1 2801.66 598.670  16
  -6  -8  -1 2520.99 532.820  13
   6  -8   1 2406.57 537.856   3
  -6  -8  -1 2183.63 516.381   4
   6   8   2 5013.83 776.830   5
  -6   8  -2 5757.58 867.384   5
  -6  -8  -2 5148.18 746.282   4
  -6  -8  -2 4747.38 771.809  17
  -6  -8  -2 6191.79 775.252  13
   6  -8   2 4015.57 729.972   3
   6   8   2 6734.94 897.156  16
  -6  -8  -2 5649.06 771.969  11
  -6  -8  -3 455.148 305.462  11
  -6   8  -3-121.614 343.346   5
  -6  -8  -3 501.814 316.281  17
   6   8   3 36.7445 287.965  16
  -6  -8  -3 443.189 270.056  13
   6  -8   3-39.9160 267.849   3
   6   8   3-153.938 315.686   5
  -6  -8  -4 1059.40 376.900  11
  -6   8  -4 907.260 407.184   5
  -6  -8  -4 940.918 398.940  17
   6   8   4 705.782 367.370  16
   6  -8   4 309.660 240.986  14
  -6  -8  -4 668.083 317.788  13
   6  -8   4 961.199 388.080   3
  -6  -8  -5 3412.15 668.146  11
  -6   8  -5 2921.60 659.260   5
   6   8   5 3455.74 716.172  16
  -6  -8  -5 2308.06 591.646  17
   6  -8   5 2879.14 624.461  14
  -6  -8  -5 2444.31 508.764  13
   6  -8   5 3374.73 694.313   3
  -6  -8  -6 7538.74 1060.24  17
   6   8   6 9432.88 1141.57  16
   6  -8   6 9428.48 1147.31  14
   6  -8   6 9020.26 1119.26   3
  -6  -8  -6 8976.79 1066.61  11
  -6   8  -6 8393.92 1108.58   5
  -6  -8  -7 598.163 376.237  11
  -6   8  -7 177.293 319.959   5
  -6  -8  -7 391.679 354.005  17
   6   8   7 870.997 442.237  16
   6  -8   7 800.713 434.498  14
   6  -8   7 675.116 351.532   3
   6   8   8 14319.8 1484.88  16
   6  -8   8 13890.8 1456.68  14
   6  -8   8 11627.9 1278.42   3
  -6  -8  -8 12907.1 1347.49  11
  -6   8  -8 11497.7 1320.90   5
  -6  -8  -9 1107.16 464.188  11
  -6   8  -9 1146.17 509.778   5
  -6   8  -9 597.296 297.574  12
   6  -8   9 1012.54 393.803   3
   6  -9 -13 1786.53 538.362  10
  -6  -9  13 2258.17 612.740  17
   6   9 -12 1688.49 554.629   5
   6  -9 -12 769.917 392.613  10
  -6  -9  12 1443.38 523.318  17
  -6  -9  12 1544.67 546.136  13
   6   9 -11 4203.55 803.942   5
   6  -9 -11 5286.73 866.730  10
  -6  -9  11 3806.58 741.703  17
  -6  -9  11 4407.64 839.630  13
  -6   9  11 4295.49 834.882   1
   6   9 -10 853.380 469.418   5
  -6   9  10 1388.15 589.174   1
   6  -9 -10 479.537 324.313  10
  -6  -9  10 279.957 276.662  17
  -6  -9  10 1554.94 528.547  13
   6   9  -9 5739.42 953.060   5
   6  -9  -9 5845.51 889.407  10
  -6  -9   9 7002.16 967.846  17
  -6   9   9 4553.39 839.536   1
  -6  -9   9 5212.19 831.637  13
   6  -9  -8-221.620 293.669  11
   6   9  -8-113.374 333.529   5
   6  -9  -8 345.628 308.111  10
  -6  -9   8 27.4893 236.181  17
  -6  -9   8-114.158 308.867  13
  -6   9   8-237.355 401.836   1
   6  -9  -7 13497.5 1325.18  10
  -6  -9   7 13603.9 1322.01  17
   6  -9  -7 11498.4 1092.74   3
  -6   9   7 8722.65 1088.67   1
  -6  -9   7 13326.0 1286.79  13
   6   9  -7 11981.4 1257.79   5
   6  -9  -7 13199.1 1176.44  11
   6   9  -6 3679.06 728.442   5
  -6   9   6 3996.69 687.736   5
  -6  -9   6 3296.44 677.061   4
  -6   9   6 4255.27 772.531   1
   6  -9  -6 4328.79 745.106  10
  -6  -9   6 3614.21 676.591  17
   6  -9  -6 3339.93 613.337   3
  -6  -9   6 3814.52 698.440  13
   6  -9  -6 4458.63 704.985  11
   6  -9  -5 9831.97 989.250  11
  -6  -9   5 8975.86 1032.19  17
  -6  -9   5 9507.90 1117.64   4
   6  -9  -5 7807.88 940.285   3
  -6  -9   5 8464.40 969.776  13
   6   9  -5 10742.3 1202.08   5
  -6   9   5 8282.06 990.217   5
   6   9  -4 516.138 483.923   5
   6  -9  -4 420.536 249.813  11
  -6  -9   4 723.445 343.849  11
  -6   9   4-30.2796 299.382   5
  -6  -9   4 229.839 275.421  17
  -6  -9   4 96.9931 299.161   4
   6   9  -4 573.303 397.181   7
  -6  -9   4 477.407 304.126  13
   6  -9  -4 350.823 200.283   3
   6   9  -3 3976.56 775.747   5
  -6  -9   3 3599.31 650.660  11
   6  -9  -3 3240.94 583.505  11
  -6   9   3 2683.44 616.748   5
  -6  -9   3 3919.79 697.134  17
   6   9  -3 3437.72 647.967   7
  -6  -9   3 4174.93 760.294   4
  -6  -9   3 3814.99 654.897  13
   6  -9  -3 3278.15 616.788   3
  -6  -9   2 5580.21 811.461  17
  -6  -9   2 8074.63 1015.90   4
   6  -9  -2 7220.46 924.853   3
   6   9  -2 7347.71 936.833   7
  -6  -9   2 7777.59 915.123  13
   6   9  -2 7280.19 958.965   5
  -6   9   2 8673.89 1062.04   5
  -6  -9   2 8177.27 931.975  11
  -6  -9   1 7462.88 972.398   4
  -6  -9   1 7810.37 971.359  17
   6  -9  -1 7972.52 986.832   3
  -6  -9   1 7752.00 900.630  13
   6   9  -1 8965.42 1084.42   5
  -6   9   1 6805.04 966.633   5
  -6  -9   1 7695.75 921.650  11
   6   9   0 1952.37 515.713   5
  -6  -9   0 2242.19 536.663  11
  -6   9   0 1701.07 552.049   5
  -6  -9   0 2481.77 598.925  17
  -6  -9   0 1784.33 513.916   4
  -6  -9   0 1808.12 456.009  13
   6  -9   0 1707.25 499.014   3
  -6  -9  -1 14827.3 1351.97  17
  -6  -9  -1 14274.2 1335.07   4
   6  -9   1 15413.8 1390.13   3
  -6  -9  -1 15751.1 1273.98  13
   6   9   1 17212.6 1496.24  16
   6   9   1 14111.6 1292.18   5
  -6   9  -1 14904.9 1465.79   5
  -6  -9  -1 16127.3 1352.06  11
   6   9   2 2633.97 599.088   5
  -6  -9  -2 2786.87 603.225  11
  -6   9  -2 2268.12 656.657   5
   6   9   2 3998.58 766.898  16
  -6  -9  -2 2875.10 655.285  17
   6  -9   2 2431.47 593.704   3
  -6   9  -3 6558.47 999.703   5
   6  -9   3 6931.24 993.776   3
  -6  -9  -3 6998.32 1004.07  17
   6   9   3 8685.80 1115.76  16
   6   9   3 8371.92 1014.67   5
  -6  -9  -3 8125.23 1008.06  11
  -6  -9  -4 1467.34 470.591  11
  -6   9  -4 951.480 451.189   5
   6   9   4 2285.52 589.347  16
   6  -9   4 1846.95 534.980  14
   6  -9   4 1326.42 470.127   3
  -6  -9  -4 1376.21 492.315  17
  -6  -9  -5 2240.53 566.275  11
  -6   9  -5 3499.09 785.069   5
  -6  -9  -5 1643.23 538.608  17
   6   9   5 2886.79 694.487  16
   6  -9   5 1624.28 553.516  14
   6  -9   5 1668.15 540.880   3
  -6  -9  -6-325.370 391.796  11
  -6   9  -6-72.2408 334.645   5
  -6  -9  -6 72.5574 300.929  17
   6   9   6-676.052 416.621  16
   6  -9   6 200.080 228.717  14
   6  -9   6 226.923 240.155   3
  -6  -9  -7 3564.73 779.422  11
  -6   9  -7 3172.37 708.253   5
   6   9   7 3339.43 720.624  16
   6  -9   7 2758.46 677.931  14
   6  -9   7 3260.62 709.690   3
   6  10 -11 343.906 366.666   5
   6 -10 -11 638.259 346.352  10
  -6 -10  11 390.541 391.384  17
   6  10 -10 322.657 342.622   5
  -6  10  10 354.574 456.001   1
   6 -10 -10 1103.33 473.010  10
  -6 -10  10 919.668 418.338  17
  -6 -10  10 1416.76 505.417   4
  -6 -10  10 1091.30 455.387  13
  -6 -10   9-378.320 333.887  13
   6  10  -9 140.386 296.456   5
   6 -10  -9 539.459 366.648  10
  -6 -10   9 485.109 333.222  17
  -6  10   9 591.198 463.951   1
  -6 -10   9 392.350 324.794   4
   6  10  -8 3030.02 711.734   5
   6 -10  -8 2903.69 680.199  10
  -6 -10   8 2245.79 588.766  17
  -6 -10   8 3314.95 735.937   4
  -6 -10   8 3761.46 756.832  13
  -6  10   8 2739.70 714.129   1
   6  10  -7 319.210 402.394   5
  -6 -10   7 1047.65 420.668  17
  -6 -10   7 870.128 446.048   4
  -6  10   7-181.832 420.805   1
  -6 -10   7 649.425 364.629  13
  -6 -10   6 16170.9 1450.23  17
  -6 -10   6 18141.5 1605.89   4
   6 -10  -6 16174.1 1373.13   3
  -6 -10   6 20186.9 1601.74  13
   6  10  -6 16470.1 1556.85   5
   6 -10  -6 16686.8 1398.51  11
   6  10  -5-68.5186 306.477   5
   6 -10  -5 176.859 243.592  11
  -6  10   5 12.2355 263.824   5
  -6 -10   5 118.857 259.228  17
  -6 -10   5 169.082 292.017   4
   6 -10  -5 366.603 334.692   3
  -6 -10   5 883.574 411.030  13
   6 -10  -4 8503.17 1001.34  11
  -6 -10   4 8466.14 1043.93  11
   6  10  -4 7041.96 1019.68   5
  -6 -10   4 8398.15 1043.52  17
  -6 -10   4 8537.66 1112.53   4
   6 -10  -4 8192.84 1009.46   3
  -6 -10   4 7089.94 923.039  13
  -6  10   4 7782.83 1033.35   5
   6  10  -3 458.070 378.445   5
  -6 -10   3 363.095 330.917  11
   6 -10  -3 532.904 330.479  11
  -6  10   3 350.677 360.887   5
  -6 -10   3 474.938 341.780  17
  -6 -10   3 835.763 441.961   4
   6  10  -3 1418.01 484.669   7
  -6 -10   3 698.020 354.985  13
   6 -10  -3 938.141 400.269   3
   6  10  -2 352.231 390.214   5
  -6 -10   2 720.787 354.283  11
  -6  10   2 140.132 404.833   5
  -6 -10   2 475.978 361.539   4
  -6 -10   2 16.4844 239.779  17
   6  10  -2 1486.25 557.894   7
   6 -10  -2-227.881 353.338   3
   6  10  -1 153.363 302.697   5
  -6 -10   1 469.974 333.685  11
  -6  10   1 1183.34 548.109   5
  -6 -10   1 247.329 283.162   4
   6 -10  -1 974.204 456.356   3
  -6 -10   1-92.8829 321.286  17
   6  10   0 3557.03 728.948   5
  -6 -10   0 4098.97 726.777  11
  -6  10   0 5170.30 895.741   5
  -6 -10   0 2866.41 638.667  17
  -6 -10   0 5771.90 892.724   4
   6 -10   0 4240.86 778.915   3
   6  10   1 893.079 452.295   5
  -6 -10  -1 342.767 317.972  11
  -6  10  -1 699.490 465.348   5
  -6 -10  -1 329.311 284.729  17
   6 -10   1 59.6290 299.444   3
  -6 -10  -2 8066.54 1067.71  17
   6  10   2 9640.15 1213.58  16
   6 -10   2 7761.93 1076.02   3
   6  10   2 9439.35 1156.77   5
  -6  10  -2 9594.22 1263.24   5
  -6 -10  -2 8603.96 1075.13  11
  -6 -10  -3 88.2393 323.471  11
  -6  10  -3 362.860 322.791   5
  -6 -10  -3 223.803 239.991  17
   6  10   3 648.231 432.967  16
   6 -10   3 533.380 371.121   3
   6  10   3-82.7468 301.838   5
  -6 -10  -4 4369.09 781.944  11
  -6  10  -4 4993.66 942.667   5
  -6 -10  -4 3632.48 780.902  17
   6  10   4 4705.02 895.334  16
   6 -10   4 4782.29 824.379  14
   6 -10   4 4758.61 872.185   3
  -6 -10  -5 517.265 442.275  11
  -6 -10  -5 853.968 406.416  17
   6  10   5 1764.01 569.779  16
   6 -10   5 918.867 377.995  14
  -6 -11   8 552.566 354.497  17
  -6 -11   8 504.305 338.824  13
  -6 -11   7 2129.68 577.158  17
  -6 -11   7 1627.18 526.540  13
   6  11  -6-465.610 433.076   5
  -6 -11   6-55.4339 212.037  17
  -6 -11   6-8.91840 220.365   4
  -6  11   6-581.444 432.883   1
   6 -11  -5 7645.52 1021.41  11
   6  11  -5 7149.69 1081.24   5
  -6 -11   5 6813.35 972.785  17
  -6 -11   5 8094.75 1128.48   4
   6 -11  -5 6235.38 927.894   3
  -6  11   5 5998.72 999.502   1
   6  11  -4-178.334 443.795   5
   6 -11  -4 770.921 374.919  11
  -6  11   4 1182.54 526.826   5
  -6 -11   4 111.798 289.282   4
  -6 -11   4 78.5778 206.781  17
   6 -11  -4 556.362 324.942   3
  -6 -11   3 6694.01 984.838  11
   6  11  -3 6042.69 984.616   5
  -6 -11   3 6801.64 1039.96   4
  -6 -11   3 6066.46 918.808  17
   6 -11  -3 5781.67 926.698   3
  -6  11   3 8412.68 1156.64   5
   6  11  -2 306.816 367.013   5
  -6 -11   2-134.478 259.923  11
  -6  11   2-33.1714 342.632   5
  -6 -11   2 100.282 317.355   4
  -6 -11   2 16.4709 235.722  17
   6  11  -2 1016.92 479.998   7
   6 -11  -2 164.913 269.417   3
   6  11  -1 2101.39 582.871   5
  -6 -11   1 5285.59 879.084  11
  -6  11   1 5262.18 977.576   5
  -6 -11   1 4549.91 831.013  17
   6  11  -1 5088.45 884.604   7
   6 -11  -1 3113.33 681.438   3
  -6 -11   1 5505.35 928.352   4
   6  11   0 234.014 388.969   5
  -6 -11   0 1031.18 436.447  11
  -6  11   0 1303.22 539.673   5
  -6 -11   0 1244.61 504.170  17
   6 -11   0 754.954 402.768   3
   6  11   1 2260.18 638.308   5
  -6 -11  -1 2627.71 666.204  11
  -6  11  -1 1945.59 631.960   5
  -6 -11  -1 3300.73 723.139  17
   6 -11   1 2920.76 661.501   3
   6  11   2 70.5612 310.389   5
  -6 -11  -2-1.65158 276.584  11
  -6 -11  -2-103.530 262.066  17
  -7   0  19 1426.32 520.326   6
   7   0 -18 105.494 338.968  10
  -7   0  18 196.454 331.895   6
   7   0 -17 2089.48 604.063  10
  -7   0  17 2038.76 614.909   6
   7   0 -16 370.138 385.854  10
  -7   0  16 21.1918 298.404   6
   7   0 -15 3167.70 652.186  10
   7   0 -15 2835.57 575.209   9
  -7   0  15 3164.52 618.256   6
   7   0 -14 173.760 403.261  10
   7   0 -14 39.0437 304.965   9
  -7   0  14 67.9155 197.188  13
  -7   0  14-51.4270 329.486   6
   7   0 -13 41628.7 2049.71  10
   7   0 -13 37688.4 1909.29   9
  -7   0  13 39715.8 1814.45  13
  -7   0  13 39340.0 1996.87   6
   7   0 -12-235.998 268.159  10
   7   0 -12-295.417 267.711   9
  -7   0  12-300.059 346.136  17
  -7   0  12 379.910 258.383  13
  -7   0  12-157.724 260.196   6
   7   0 -11 111166. 3011.36  10
   7   0 -11 104856. 2969.23   9
   7   0 -11 104541. 2828.51   7
  -7   0  11 108742. 2960.83  17
  -7   0  11 110799. 2739.66  13
  -7   0  11 106734. 3068.24   6
   7   0 -10 139.183 257.111  10
   7   0 -10 84.9963 245.108   9
  -7   0  10 277.846 211.014  17
   7   0 -10-117.943 257.621   7
  -7   0  10-63.7456 161.208  13
  -7   0  10 100.961 255.966   6
   7   0  -9 4010.17 532.302  10
   7   0  -9 3067.53 495.029   9
  -7   0   9 3461.50 485.779  17
   7   0  -9 3185.37 513.503   7
  -7   0   9 3912.70 493.704  13
  -7   0   9 3487.34 540.838   6
   7   0  -8-32.1254 181.566  10
   7   0  -8-54.0128 201.611   9
  -7   0   8-84.2018 174.759  17
   7   0  -8 46.3486 210.758   7
  -7   0   8-46.1203 146.462  13
  -7   0   8 32.0850 208.956   6
   7   0  -7 5012.85 533.270  10
   7   0  -7 4637.69 564.524   9
  -7   0   7 6101.58 580.698  17
   7   0  -7 6175.89 655.985   7
  -7   0   7 4217.12 475.822  13
  -7   0   7 5636.30 615.523   6
   7   0  -6-124.156 184.544  10
   7   0  -6 0.00000 205.447   9
  -7   0   6-28.7271 129.988  17
   7   0  -6 234.595 261.312   7
  -7   0   6-32.5814 140.034  13
  -7   0   6 224.220 216.727   6
  -7   0   6 17.6532 91.1434  12
   7   0  -5 80806.7 1916.99  10
  -7   0   5 82402.3 1904.62  17
   7   0  -5 81591.5 2210.23   7
  -7   0   5 83450.8 1994.71  13
  -7   0   5 80564.7 2019.35   6
  -7   0   5 84581.3 1719.94  12
   7   0  -4 14.5871 121.569  10
  -7   0   4-156.904 161.009  17
   7   0  -4-43.4767 201.935   7
   7   0  -4 116.041 178.101  14
  -7   0   4-158.895 152.329  13
  -7   0   4 368.912 206.321   6
  -7   0   4-20.5497 149.009  12
   7   0  -3 188241. 2710.63  10
  -7   0   3 184074. 2732.57  17
   7   0  -3 181346. 3206.66   7
   7   0  -3 189730. 2919.07  14
  -7   0   3 181675. 2684.75   6
  -7   0   3 194766. 2942.10  12
   7   0  -2 223.584 133.833  10
  -7   0   2 70.1762 116.889  17
  -7   0   2 183.249 168.962   8
   7   0  -2 20.2440 145.490  14
   7   0  -2-150.723 190.784   7
   7   0  -2 9.64580 55.6790  18
  -7   0   2-140.925 153.714   6
  -7   0   2-75.7656 157.693  12
   7   0  -1 13658.4 711.780  10
  -7   0   1 13631.1 755.244  17
  -7   0   1 14083.5 873.291   8
   7   0  -1 12508.8 834.370  14
   7   0  -1 14337.7 904.688   7
  -7   0   1 12982.0 627.672   6
  -7   0   1 13372.0 859.597  12
  -7   0   0 43.2404 103.760  17
  -7   0   0-0.95424 180.527   8
   7   0   0 369.607 214.372  14
   7   0   0 199.039 199.217   7
  -7   0   0-58.0089 225.977  12
  -7   0  -1 9778.11 685.414  17
  -7   0  -1 10134.9 801.331   8
   7   0   1 9809.74 704.161   3
   7   0   1 10183.8 766.869   7
   7   0   1 10096.3 805.115  14
  -7   0  -1 10210.1 833.919  12
  -7   0  -2 176.137 159.936  17
   7   0   2 243.354 284.380  14
   7   0   2 90.0534 183.163   7
   7   0   2 79.2803 183.548   3
  -7   0  -2-15.4119 255.639  12
  -7   0  -3 82503.6 2182.57  17
   7   0   3 86472.2 2223.98   7
   7   0   3 86385.6 2018.38   3
   7   0   3 91702.6 2618.03  14
  -7   0  -3 81256.0 2507.64  12
   7   0   4 271.855 282.962  14
   7   0   4-170.309 230.024   7
   7   0   4-206.390 240.626   1
  -7   0  -4-622.811 416.985  12
   7   0   5 10069.7 778.483   7
   7   0   5 10244.1 970.559  14
   7   0   5 7797.80 792.752   1
  -7   0  -5 10828.8 1009.79  12
   7   0   6-242.261 256.458  14
   7   0   6-104.870 190.149   1
  -7   0  -6 49.9062 222.499   2
  -7   0  -6 270.045 335.216  12
   7   0   7 3453.93 648.820  14
   7   0   7 2109.82 517.696   1
  -7   0  -7 2446.62 537.432   2
  -7   0  -7 3039.07 606.899  12
   7   0   8 258.481 328.772  14
   7   0   8-363.366 352.476   1
  -7   0  -8 71.2435 202.893   2
  -7   0  -8 52.0225 298.012  12
  -7   0  -9 20234.6 1545.53   2
   7   0   9 20181.1 1561.37  14
  -7   0  -9 21113.7 1575.69  12
   7   0   9 16902.8 1418.19   1
   7   0  10-166.676 265.927  14
   7   0  10-92.0356 331.443   1
  -7   0 -10-291.388 302.366   2
  -7   0 -10-944.602 532.489  12
  -7   0 -11 6810.57 987.208   2
   7   0  11 6217.29 931.298  14
   7   0  11 5073.65 895.273   1
  -7   0 -11 6916.33 960.874  12
   7   0  12 578.873 403.177  14
  -7   0 -12 62.8279 301.334   2
   7   0  12-387.103 425.452   1
  -7   0 -12-202.073 284.457  12
  -7   0 -13 2974.62 702.804  12
   7   1 -18 9532.21 1202.25  10
   7  -1 -18 8831.92 1111.12  10
   7   1 -18 7752.65 1014.07   9
  -7  -1  18 8999.65 1173.68  17
  -7   1  18 8604.74 1155.21   6
  -7  -1  18 5872.35 947.148   6
   7   1 -17 1343.97 531.004  10
   7  -1 -17 773.301 414.164  10
   7   1 -17 294.873 245.462   9
  -7  -1  17 1006.97 458.237  17
  -7  -1  17 1120.79 462.606  13
  -7  -1  17 1021.65 465.868   6
  -7   1  17 438.426 328.187   6
   7   1 -16 19610.3 1572.46  10
   7  -1 -16 20092.6 1582.27  10
   7   1 -16 17064.9 1427.29   9
  -7  -1  16 18576.4 1570.18  17
  -7  -1  16 18877.1 1494.23  13
  -7  -1  16 19087.5 1535.63   6
  -7   1  16 17243.6 1496.78   6
   7   1 -15 370.977 333.915  10
   7  -1 -15 230.796 294.899  10
  -7  -1  15 898.049 405.437  17
   7   1 -15 367.017 314.991   9
  -7  -1  15 183.234 221.501  13
  -7   1  15-57.2206 295.518   6
   7   1 -14 2818.36 588.143  10
   7  -1 -14 3371.36 619.455  10
   7   1 -14 3755.60 667.158   9
  -7  -1  14 2947.77 612.498  17
  -7  -1  14 4402.04 682.835  13
  -7  -1  14 3310.66 640.474   6
  -7   1  14 2988.52 578.206   6
   7   1 -13 5800.94 784.983  10
   7  -1 -13 6888.73 857.769  10
  -7  -1  13 6322.92 820.629  17
   7   1 -13 6043.82 786.879   9
  -7  -1  13 6089.91 763.107  13
  -7  -1  13 6506.48 850.327   6
  -7   1  13 7307.93 914.292   6
   7   1 -12 2477.19 536.320  10
   7  -1 -12 2934.21 570.975  10
   7   1 -12 2231.65 473.845   9
  -7  -1  12 3009.31 563.873  17
   7   1 -12 3880.52 575.354   7
  -7  -1  12 3354.24 543.906  13
  -7  -1  12 2684.72 585.028   6
  -7   1  12 3033.12 598.814   6
   7   1 -11 4421.66 621.533  10
   7  -1 -11 4606.50 656.226  10
  -7  -1  11 4169.13 635.025  17
   7   1 -11 4372.44 635.246   9
   7   1 -11 4529.53 593.790   7
  -7  -1  11 3776.76 570.222  13
  -7   1  11 5170.80 572.619  13
  -7  -1  11 3792.87 637.889   6
  -7   1  11 4235.48 653.085   6
   7   1 -10 25412.7 1371.55  10
   7  -1 -10 27151.8 1439.84  10
   7   1 -10 23803.3 1387.83   9
  -7   1  10 24888.0 1136.47   1
  -7  -1  10 23875.1 1367.91  17
  -7   1  10 25625.5 1328.56  17
   7  -1 -10 23683.4 1359.90   7
   7   1 -10 26426.0 1354.43   7
  -7  -1  10 26051.9 1349.28  13
  -7   1  10 24485.8 1164.78  13
  -7  -1  10 25848.6 1461.88   6
  -7   1  10 27228.3 1530.17   6
   7   1 -10 25426.9 1104.85   2
   7   1  -9 4487.67 570.520  10
   7  -1  -9 4125.57 535.019  10
  -7  -1   9 5130.76 618.349  17
  -7   1   9 4646.65 545.666  17
  -7   1   9 3684.41 414.839   1
   7  -1  -9 5099.80 642.094   7
   7   1  -9 6063.71 663.932   7
  -7  -1   9 5071.46 598.529  13
  -7   1   9 4805.00 507.677  13
  -7  -1   9 5550.92 685.023   6
   7   1  -9 3972.53 539.941   9
  -7   1   9 3781.14 563.191   6
   7   1  -9 4541.08 443.227   2
   7   1  -8 34948.0 1424.60  10
   7  -1  -8 34153.9 1482.85  10
   7   1  -8 33328.7 1520.37   9
  -7  -1   8 36862.3 1531.05  17
  -7   1   8 34930.8 1375.65  17
  -7   1   8 29513.4 1147.23   1
   7  -1  -8 36442.2 1635.15   7
   7   1  -8 34844.3 1536.81   7
  -7  -1   8 33605.9 1436.26  13
  -7   1   8 35631.7 1289.25  13
  -7  -1   8 35413.1 1578.93   6
  -7   1   8 33086.2 1526.30   6
   7   1  -7 10979.0 748.689  10
   7  -1  -7 11793.4 836.136  10
   7   1  -7 11333.2 846.647   9
  -7  -1   7 10630.3 833.440  17
  -7   1   7 10602.2 711.497  17
   7  -1  -7 11535.4 890.520   7
   7   1  -7 10201.0 808.859   7
  -7   1   7 9128.54 619.887   1
  -7  -1   7 10675.7 778.500  13
  -7   1   7 11367.0 705.438  13
  -7  -1   7 11383.5 867.099   6
  -7   1   7 9869.60 806.674   6
   7   1  -6 93457.2 2072.37  10
   7  -1  -6 95162.8 2287.69  10
   7   1  -6 90051.1 2254.36   9
  -7  -1   6 93528.7 2240.20  17
  -7   1   6 90593.0 1966.16  17
   7  -1  -6 101781. 2539.98   7
   7   1  -6 98225.1 2418.88   7
  -7   1   6 88450.9 1785.27   1
  -7  -1   6 94399.0 2280.31  13
  -7   1   6 92485.3 1986.53  13
  -7  -1   6 89398.4 2296.79   6
  -7   1   6 93183.2 2296.68   6
  -7   1   6 88793.3 1654.09  12
  -7  -1   6 91837.4 1685.70  12
   7   1  -5 546.100 159.127  10
   7  -1  -5 693.863 256.416  10
   7   1  -5 606.287 216.824   9
  -7  -1   5 925.715 252.235  17
  -7   1   5 816.834 180.205  17
   7  -1  -5 791.711 346.553   7
   7   1  -5 767.335 269.200   7
  -7   1   5 557.751 175.879  13
  -7  -1   5 731.374 236.899  13
  -7  -1   5 775.491 257.006   6
  -7   1   5 678.260 230.335   6
  -7   1   5 1019.01 228.662  12
  -7  -1   5 782.099 205.203  12
   7   1  -4 138007. 2237.39  10
   7  -1  -4 140561. 2589.00  10
  -7  -1   4 136311. 2574.01  17
  -7   1   4 137983. 2179.13  17
   7   1  -4 133258. 2500.87   9
   7  -1  -4 138658. 2886.70   7
   7   1  -4 144345. 2890.52   7
   7  -1  -4 136653. 2293.38  14
  -7   1   4 140315. 2439.73  13
  -7  -1   4 138428. 2727.04  13
  -7  -1   4 136037. 2555.12   6
  -7   1   4 135085. 2453.35   6
  -7   1   4 138400. 2388.21  12
  -7  -1   4 140937. 2434.98  12
   7   1  -3 22105.1 850.117  10
   7  -1  -3 22967.0 1034.05  10
   7   1  -3 21067.2 945.952   9
  -7   1   3 22262.3 871.167  17
  -7  -1   3 21443.8 1013.03  17
   7  -1  -3 23432.0 1149.02   3
   7  -1  -3 22146.2 1128.93   7
   7   1  -3 22423.1 1152.23   7
   7  -1  -3 21495.2 957.947  14
  -7  -1   3 22558.8 995.715   6
  -7   1   3 21182.7 915.982   6
  -7   1   3 22361.1 1030.32  12
  -7  -1   3 22063.8 1039.10  12
   7   1  -2 8085.97 493.436  10
   7  -1  -2 7866.97 603.159  10
   7  -1  -2 8483.09 444.953  18
  -7   1   2 8784.93 539.899  17
  -7  -1   2 8045.22 628.916  17
  -7   1   2 9205.44 733.029   8
  -7  -1   2 7555.38 617.702   8
   7  -1  -2 8671.66 704.086   3
   7  -1  -2 7876.51 686.274   7
   7   1  -2 7821.07 693.941   7
   7  -1  -2 8726.14 646.209  14
   7   1  -2 7614.20 641.089  14
  -7   1   2 7607.84 507.733   6
  -7   1   2 7722.33 655.686  12
  -7  -1   2 8582.89 678.448  12
  -7  -1   1 725.291 227.430  17
   7  -1  -1 936.253 183.052  18
  -7   1   1 731.340 237.680   8
  -7   1   1 399.790 116.227  17
   7  -1  -1 750.753 210.450  14
   7   1  -1 450.497 224.463  14
   7  -1  -1 1002.20 275.749   7
  -7  -1   1 658.616 227.340   8
   7   1  -1 455.825 199.661   7
   7  -1  -1 1072.37 278.307   3
  -7   1   1 508.707 135.032   6
   7  -1  -1 381.378 192.521  10
  -7   1   1 936.628 263.717  12
  -7  -1   1 575.943 238.933  12
   7  -1   0 3489.11 371.109  18
  -7   1   0 4186.51 392.912  17
  -7   1   0 4411.10 548.119   8
  -7  -1   0 4079.17 475.202  17
   7  -1   0 3983.54 486.344   3
   7  -1   0 3270.44 444.354  14
  -7  -1   0 3752.92 465.523   8
   7   1   0 3462.83 468.489  14
   7  -1   0 3575.60 458.604   7
   7   1   0 3434.16 486.436   7
  -7   1   0 3705.79 501.766  12
  -7  -1   0 3532.34 507.763  12
   7  -1   1 10170.0 680.214  18
  -7   1  -1 9825.56 631.708  17
  -7  -1  -1 9557.83 725.200  17
  -7   1  -1 10608.1 855.667   8
   7  -1   1 9492.78 732.855   3
   7  -1   1 9502.75 725.473   7
   7   1   1 9553.38 772.755   7
   7  -1   1 10549.7 828.672  14
   7   1   1 10665.8 846.414  14
  -7   1  -1 10791.8 866.901  12
  -7  -1  -1 10062.9 846.003  12
  -7   1  -2 66206.1 1872.93   2
  -7   1  -2 67540.5 1740.37  17
  -7  -1  -2 68002.4 2005.04  17
   7   1   2 67571.3 1531.03  16
   7  -1   2 67910.9 1913.54   3
   7  -1   2 67924.1 1920.99   7
   7   1   2 67480.2 2035.43   7
   7  -1   2 67923.9 2173.17  14
   7   1   2 69194.6 2213.61  14
   7   1   2 70653.0 1849.55   1
  -7   1  -2 68792.8 2237.28  12
  -7  -1  -2 70981.5 2261.54  12
  -7   1  -3 14122.6 929.617   2
  -7  -1  -3 14546.0 970.614  17
   7  -1   3 15047.5 919.689   3
   7  -1   3 14918.9 907.586   7
   7   1   3 15777.0 995.532   7
   7  -1   3 15749.3 1120.61  14
   7   1   3 15549.0 1100.21  14
  -7   1  -3 15875.6 1120.15  12
  -7  -1  -3 15506.5 1129.68  12
   7   1   3 17612.6 987.423   1
  -7   1  -4 37834.2 1607.48   2
  -7  -1  -4 34462.9 1567.54  17
   7  -1   4 37789.5 1448.33   3
   7  -1   4 37513.6 1435.28   7
   7   1   4 37675.1 1557.50   7
   7  -1   4 39879.5 1830.29  14
   7   1   4 37754.6 1767.38  14
  -7   1  -4 35834.2 1758.12  12
  -7  -1  -4 38200.7 1815.83  12
   7   1   4 37390.3 1555.96   1
   7  -1   5-362.043 319.259  14
   7   1   5 368.278 323.213  14
   7   1   5 216.045 228.651   7
  -7   1  -5 17.7141 162.405   2
   7   1   5 9.22184 184.681   1
  -7   1  -5-254.363 308.799  12
  -7  -1  -5 344.092 291.761  12
  -7   1  -6 4966.06 673.415   2
   7   1   6 4702.31 585.537   7
   7   1   6 5171.85 727.168  14
   7  -1   6 4697.40 686.876  14
   7   1   6 3443.48 559.680   1
  -7   1  -6 5933.16 813.522  12
  -7  -1  -6 6167.53 817.419  12
  -7   1  -7 15435.4 1221.16   2
   7  -1   7 14920.1 1282.71  14
   7   1   7 15321.3 1267.68  14
  -7   1  -7 15467.5 1296.85  12
  -7  -1  -7 16439.0 1316.84  12
   7   1   7 12673.3 1118.55   1
  -7   1  -8 11110.6 1094.67   2
  -7  -1  -8 11895.3 1157.22   2
   7  -1   8 13838.3 1290.11  14
   7   1   8 10551.6 1101.08  14
  -7   1  -8 12410.3 1182.70  12
  -7  -1  -8 13376.5 1237.10  12
   7   1   8 10086.5 1078.33   1
   7  -1   9 741.242 381.375  14
   7  -1   9 433.064 243.824  18
   7   1   9 504.442 312.772  14
  -7   1  -9 971.528 428.272   2
  -7  -1  -9 610.606 333.849   2
   7   1   9 67.6271 253.970   1
  -7   1  -9 686.698 407.246  12
  -7  -1  -9 1531.12 522.276  12
  -7   1 -10 9223.92 1110.15   2
  -7  -1 -10 7864.66 1025.87   2
   7  -1  10 9001.61 1083.06  18
   7  -1  10 9477.17 1125.99  14
   7   1  10 9045.94 1086.88  14
  -7   1 -10 8972.13 1095.38  12
  -7  -1 -10 10430.2 1181.70  12
   7   1  10 7893.87 1014.38   1
   7  -1  11 1489.72 523.949  18
   7  -1  11 731.629 394.538  14
   7   1  11 1056.89 424.676  14
  -7   1 -11 1763.97 561.041   2
  -7  -1 -11 1598.07 527.036   2
   7   1  11 514.964 378.881   1
  -7   1 -11 1428.96 555.033  12
  -7  -1 -11 1825.22 565.372  12
   7  -1  12-32.4361 261.683  14
   7   1  12 633.544 342.447  14
  -7   1 -12-85.5796 227.580   2
  -7  -1 -12 345.187 335.742   2
   7   1  12 44.9253 285.158   1
   7  -1  12 14.9833 244.316  18
  -7   1 -12 652.601 392.025  12
  -7  -1 -12 560.936 359.572  12
  -7   1 -13-232.103 322.117  12
  -7  -1 -13 376.635 284.308  12
  -7  -2  19 4393.44 838.881  13
   7   2 -18 1419.16 518.611  10
   7  -2 -18 1422.64 495.239  10
   7   2 -18 1599.64 484.746   9
  -7  -2  18 667.954 333.445  17
  -7   2  18 1481.11 537.181  15
  -7  -2  18 1639.55 537.489  13
  -7  -2  18 1350.77 479.365   6
  -7   2  18 555.606 389.127   6
   7   2 -17 12259.5 1304.87  10
   7  -2 -17 12294.0 1318.14  10
  -7  -2  17 10863.6 1276.58  17
   7   2 -17 9406.02 1109.39   9
  -7  -2  17 12830.5 1331.53  13
  -7  -2  17 10155.8 1181.72   6
  -7   2  17 11777.2 1301.57   6
   7   2 -16 3776.63 727.708  10
   7  -2 -16 2960.03 694.403  10
   7   2 -16 2391.66 577.259   9
  -7  -2  16 2547.77 620.109  17
  -7  -2  16 2581.65 593.052  13
  -7  -2  16 4469.32 788.765   6
  -7   2  16 2764.26 627.785   6
   7   2 -15 4186.73 770.319  10
   7  -2 -15 1989.21 538.864  10
   7   2 -15 2543.24 565.780   9
  -7  -2  15 2801.28 645.878  17
  -7  -2  15 2684.05 589.565  13
  -7  -2  15 3074.50 650.219   6
  -7   2  15 3603.07 700.454   6
   7  -2 -14 11407.7 1133.57  10
   7   2 -14 10731.4 1087.20   9
  -7  -2  14 9108.70 1047.99  17
  -7  -2  14 9891.65 1030.45  13
  -7  -2  14 9086.03 1048.53   6
  -7   2  14 10020.8 1075.74   6
   7  -2 -13 6322.16 838.526  10
  -7   2  13 7019.22 781.370   1
  -7  -2  13 6782.15 879.362  17
   7   2 -13 7429.78 896.118   9
  -7  -2  13 5937.42 774.651  13
  -7   2  13 6223.72 862.393   6
  -7  -2  13 6343.15 836.752   6
   7   2 -13 6892.98 750.955   2
   7  -2 -12-302.449 316.226  10
   7   2 -12-123.352 143.253   2
   7   2 -12 69.1545 254.631   9
  -7  -2  12-60.3435 239.359  17
   7   2 -12 378.717 218.551   7
  -7  -2  12-12.1177 234.654  13
  -7  -2  12-209.420 301.254   6
  -7   2  12-127.166 349.886   6
  -7   2  12 58.2532 205.928   1
   7   2 -11 58813.4 2172.10  10
   7  -2 -11 58586.1 2274.19  10
   7   2 -11 57704.1 2237.31   9
  -7   2  11 58516.1 2000.26   1
  -7  -2  11 58349.0 2275.99  17
   7   2 -11 55795.5 1969.31   7
  -7  -2  11 56412.6 2172.83  13
  -7  -2  11 56445.3 2249.43   6
  -7   2  11 57804.8 2314.23   6
   7   2 -11 59095.9 1946.76   2
   7   2 -10 8007.50 779.450  10
   7  -2 -10 7148.51 790.416  10
  -7  -2  10 6415.15 754.603  17
  -7   2  10 4931.07 595.909   1
   7   2 -10 7142.64 781.531   9
   7   2 -10 7981.49 742.789   7
  -7  -2  10 6570.21 737.388  13
  -7  -2  10 7345.27 843.620   6
   7   2 -10 6115.53 594.323   2
   7   2  -9 46187.6 1715.95  10
   7  -2  -9 47092.7 1892.39  10
  -7   2   9 42867.8 1566.50   1
   7   2  -9 44680.1 1831.49   9
  -7  -2   9 43512.4 1826.19  17
  -7   2   9 45946.7 1616.12  17
   7  -2  -9 44430.8 1881.85   7
   7   2  -9 46153.1 1744.12   7
  -7  -2   9 45632.5 1820.46  13
  -7  -2   9 44626.5 1871.06   6
   7   2  -9 45602.4 1547.90   2
   7   2  -8 387.358 235.132  10
   7  -2  -8 326.227 236.382  10
   7   2  -8 7.72303 208.974   9
  -7   2   8 429.741 223.811   1
  -7  -2   8 285.046 235.538  17
  -7   2   8 379.689 180.880  17
   7  -2  -8 833.745 331.702   7
   7   2  -8 612.591 254.029   7
  -7  -2   8 221.131 203.597  13
  -7  -2   8 697.766 341.862   6
   7   2  -7 2471.46 359.644  10
   7  -2  -7 1695.43 379.067  10
   7   2  -7 1584.31 377.738   9
  -7   2   7 1651.31 323.052   1
  -7  -2   7 1791.93 367.347  17
  -7   2   7 2099.69 298.427  17
   7  -2  -7 2279.38 468.941   7
   7   2  -7 1803.64 374.011   7
  -7  -2   7 2679.42 438.289  13
  -7   2   7 1879.59 273.666  13
  -7  -2   7 1891.86 424.763   6
   7   2  -6 176.338 154.624  10
   7  -2  -6-58.4516 158.335  10
   7   2  -6 31.5077 218.676   9
  -7  -2   6-93.3237 216.366  17
  -7   2   6-34.9007 86.4037  17
   7  -2  -6 228.567 245.880   7
   7   2  -6 77.8771 185.364   7
  -7  -2   6 264.803 243.117  13
  -7   2   6 53.3183 96.5385  13
  -7  -2   6 70.4340 240.944   6
  -7   2   6-31.0449 95.9601  12
  -7  -2   6 58.4097 141.939  12
   7   2  -5 35975.6 1152.69  10
   7  -2  -5 35137.4 1422.28  10
   7   2  -5 35354.5 1370.40   9
  -7  -2   5 34894.8 1438.38  17
  -7   2   5 33922.9 1037.84  17
   7  -2  -5 36782.9 1510.63   3
   7  -2  -5 31891.5 1437.10   7
   7   2  -5 36801.3 1492.68   7
   7  -2  -5 33736.5 1025.86  14
  -7   2   5 34259.5 1103.60  13
  -7  -2   5 37029.9 1495.59  13
  -7  -2   5 33552.9 1396.54   6
  -7   2   5 33380.8 1337.32   6
  -7   2   5 33878.7 1165.01  12
  -7  -2   5 34699.1 1203.33  12
   7   2  -4 8958.95 533.182  10
   7  -2  -4 7905.38 682.819  10
  -7  -2   4 9111.06 721.357  17
   7   2  -4 9281.27 680.489   9
  -7   2   4 8969.75 496.515  17
   7  -2  -4 10249.0 797.892   3
   7  -2  -4 8241.19 744.691   7
   7   2  -4 9207.10 763.268   7
   7  -2  -4 8855.06 567.690  14
  -7   2   4 8534.33 570.389  13
  -7  -2   4 8697.47 748.448  13
  -7  -2   4 9033.13 712.796   6
  -7   2   4 8621.76 647.862   6
  -7   2   4 9601.53 668.710  12
  -7  -2   4 9737.62 675.505  12
   7   2  -3 75636.6 1418.58  10
   7  -2  -3 74824.3 2003.77  10
   7   2  -3 73837.4 1799.29   9
  -7   2   3 79177.0 2205.04   8
  -7  -2   3 75977.5 2043.33  17
   7  -2  -3 77440.7 2161.82   3
   7  -2  -3 73342.8 2086.58   7
   7   2  -3 79596.2 2208.25   7
   7  -2  -3 75588.5 1764.36  14
  -7  -2   3 77234.8 2142.06  13
  -7   2   3 78058.7 1777.93   6
  -7   2   3 76121.8 1948.37  12
  -7  -2   3 75438.3 1959.55  12
  -7   2   2 7289.08 687.734   8
   7  -2  -2 7310.66 624.193  10
  -7  -2   2 6809.16 623.336  17
  -7  -2   2 8100.14 604.020   8
   7  -2  -2 6625.95 638.886   7
   7  -2  -2 7165.16 668.521   3
   7   2  -2 7095.43 663.802   7
   7  -2  -2 8040.78 615.867  14
   7   2  -2 7118.71 534.059   9
  -7   2   2 7926.06 522.012   6
  -7   2   2 7536.12 666.895  12
  -7  -2   2 7383.04 670.930  12
   7  -2  -1 17456.1 969.477  10
   7   2  -1 16606.1 747.419   9
   7   2  -1 17174.1 1046.29   7
  -7  -2   1 17145.5 878.112   8
  -7   2   1 17218.5 1058.46   8
   7  -2  -1 15854.8 948.504   7
   7  -2  -1 18257.0 1049.35   3
   7  -2  -1 16398.9 930.959  14
   7   2  -1 19085.3 1088.96  14
  -7  -2   1 16562.7 975.383  17
  -7   2   1 15940.1 986.811  12
  -7  -2   1 17336.7 1037.63  12
  -7   2   0 10430.1 602.876   2
  -7  -2   0 11157.1 817.202  17
  -7   2   0 11798.1 898.100   8
   7  -2   0 10819.9 770.416   7
   7  -2   0 10579.8 800.719  14
   7   2   0 12021.0 908.604  14
   7  -2   0 10772.7 672.200  18
  -7  -2   0 11247.3 737.791   8
   7  -2   0 9860.69 781.488   3
  -7   2   0 11086.1 859.572  12
  -7  -2   0 12819.4 919.277  12
   7   2   0 9858.91 815.814   7
  -7   2  -1 40442.1 1312.94   2
   7  -2   1 44488.7 1465.39  18
  -7  -2  -1 42023.5 1626.60  17
   7   2   1 40013.0 1338.27  16
   7  -2   1 39842.1 1459.44   7
   7  -2   1 42381.0 1613.93   3
   7  -2   1 39227.6 1602.05  14
   7   2   1 40130.8 1628.54   7
   7   2   1 40997.6 1672.10  14
  -7   2  -1 40948.6 1692.33  12
   7   2   1 39915.2 1244.21   1
  -7  -2  -1 40931.4 1704.44  12
  -7  -2  -1 41254.7 1276.82   4
  -7   2  -1 45022.4 1803.00   8
  -7  -2  -1 39832.3 1246.55  11
  -7   2  -2 6228.72 570.819   2
   7  -2   2 6101.77 593.156  18
  -7  -2  -2 6707.97 680.377  17
   7   2   2 6524.02 555.610  16
   7  -2   2 6932.30 615.025   7
   7  -2   2 7063.91 673.187   3
   7  -2   2 6052.62 682.560  14
   7   2   2 5590.78 649.009   7
   7   2   2 6490.24 729.003  14
  -7   2  -2 6170.87 726.354  12
  -7  -2  -2 5658.47 690.159  12
   7   2   2 6416.48 563.412   1
  -7  -2  -2 6095.19 536.700  11
  -7   2  -3 47898.1 1671.30   2
   7  -2   3 48311.1 1745.52  18
  -7  -2  -3 46941.5 1833.96  17
   7   2   3 46458.0 1514.25  16
   7  -2   3 47149.0 1554.53   7
   7  -2   3 47680.1 1732.31   3
   7  -2   3 44110.3 1881.24  14
   7   2   3 48484.9 1821.09   7
   7   2   3 47645.1 1925.23  14
  -7   2  -3 48391.7 1988.66  12
  -7  -2  -3 48500.2 1991.90  12
   7   2   3 49197.3 1632.25   1
  -7  -2  -3 45590.8 1567.24  11
   7  -2   4-44.7981 185.526  18
  -7  -2  -4-179.952 230.447  17
   7   2   4 147.194 141.615  16
   7  -2   4 433.261 291.247  14
   7   2   4 12.6220 215.519  14
   7   2   4 279.993 286.873   7
  -7   2  -4-58.3574 135.010   2
   7  -2   4 132.575 204.232   3
   7   2   4-65.7836 163.798   1
  -7   2  -4-26.0791 285.006  12
  -7  -2  -4-109.053 353.209  12
  -7   2  -5 6397.14 706.135   2
  -7  -2  -5 7809.35 833.617  17
   7  -2   5 8754.81 843.483  18
   7  -2   5 8316.33 744.302   3
   7  -2   5 7002.62 822.098  14
   7   2   5 8685.47 817.844   7
   7   2   5 8574.66 901.940  14
  -7   2  -5 9098.72 954.708  12
  -7  -2  -5 8493.88 915.634  12
   7   2   5 8067.29 764.439   1
   7  -2   6 57.0423 231.909  18
   7  -2   6 99.6505 222.821  14
   7   2   6-345.251 294.905  14
  -7   2  -6 53.4851 178.942   2
   7   2   6 336.978 261.090   7
   7   2   6 238.138 270.185   1
  -7   2  -6 722.571 414.972  12
  -7  -2  -6-154.765 260.980  12
  -7   2  -7 8006.90 896.148   2
   7  -2   7 8328.69 918.856  18
   7  -2   7 7503.81 913.603  14
   7   2   7 7624.59 804.638   7
   7   2   7 7557.22 921.964  14
  -7   2  -7 6981.04 898.903  12
  -7  -2  -7 9327.03 1036.45  12
   7   2   7 8450.81 910.922   1
   7  -2   8-160.875 234.202  18
   7  -2   8-223.804 360.810  14
   7   2   8 149.564 228.949  14
  -7   2  -8 164.911 246.297   2
   7   2   8 385.745 351.140   1
  -7   2  -8 478.815 391.407  12
  -7  -2  -8 304.763 349.222  12
  -7   2  -9 18426.4 1465.04   2
  -7  -2  -9 18107.0 1511.16   2
   7  -2   9 15810.0 1379.40  18
   7  -2   9 17874.7 1516.22  14
   7   2   9 18139.5 1468.85  14
  -7   2  -9 19076.1 1527.67  12
  -7  -2  -9 17491.9 1459.42  12
   7   2   9 16847.1 1403.91   1
   7  -2  10 592.547 316.658  18
   7  -2  10 1263.67 514.654  14
   7   2  10 980.338 413.580  14
  -7   2 -10 940.490 453.324   2
  -7  -2 -10 483.091 379.254   2
   7   2  10 603.088 344.863   1
  -7   2 -10 628.617 424.701  12
  -7  -2 -10 265.949 325.176  12
   7  -2  11 2894.93 681.856  18
   7  -2  11 3016.38 666.515  14
  -7   2 -11 4473.67 806.837   2
   7   2  11 4687.09 819.238  14
  -7  -2 -11 4305.35 805.362   2
   7   2  11 3743.99 725.918   1
  -7   2 -11 4127.44 774.316  12
  -7  -2 -11 4740.36 831.809  12
   7  -2  12 219.446 270.257  18
  -7   2 -12 28.7377 243.276   2
   7  -2  12 594.795 468.382  14
   7   2  12 405.597 309.804  14
  -7  -2 -12 316.139 338.727   2
   7   2  12-114.245 298.837   1
  -7   2 -12 108.140 362.247  12
  -7  -2 -12 440.946 373.732  12
  -7   2 -13 524.331 312.618  12
  -7  -2 -13 1508.79 569.054  12
   7   3 -18 3967.93 813.529  10
   7  -3 -18 8292.20 1118.35  10
  -7  -3  18 6092.79 1004.76  17
  -7   3  18 5000.13 921.703  15
  -7   3  18 6751.60 1039.40   6
  -7  -3  18 6110.70 947.772   6
  -7  -3  18 5037.95 892.595  13
   7   3 -18 4081.86 790.138   9
   7  -3 -17 83.5687 263.715  10
  -7  -3  17 478.465 401.777  17
  -7   3  17 118.640 263.141  15
  -7  -3  17-92.9248 229.266  13
  -7  -3  17-210.786 328.689   6
   7   3 -17-365.059 398.755   9
  -7   3  17-347.842 355.644   6
   7  -3 -16 8856.53 1113.72  10
  -7  -3  16 5445.07 912.196  17
  -7   3  16 7854.56 1083.90  15
  -7  -3  16 7879.92 1026.10  13
   7   3 -16 7399.57 963.503   9
  -7   3  16 7305.52 1031.45   6
  -7  -3  16 6610.31 945.937   6
   7  -3 -15 485.114 327.279  10
   7   3 -15 160.752 270.842   9
   7   3 -15 517.975 260.382   2
  -7  -3  15-51.8846 263.225  17
  -7   3  15 841.153 410.050  15
  -7   3  15 833.311 395.617   1
  -7  -3  15 1212.82 453.303  13
  -7  -3  15 708.618 274.585   6
  -7   3  15 425.011 274.598   6
   7  -3 -14 1452.75 459.954  10
  -7  -3  14 1290.66 448.595  17
   7   3 -14 1033.19 398.737   9
   7   3 -14 1285.83 389.054   2
  -7  -3  14 566.889 268.987  13
  -7  -3  14 1376.95 500.761   6
  -7   3  14 1580.01 459.487   1
   7  -3 -13 2545.12 571.013  10
   7   3 -13 2172.34 454.074   2
   7   3 -13 2035.95 529.347   9
  -7  -3  13 2921.47 629.874  17
  -7  -3  13 3979.43 663.123  13
  -7  -3  13 2384.52 622.125   6
  -7   3  13 2773.67 539.385   1
   7  -3 -12 18693.5 1367.63  10
   7   3 -12 19905.7 1416.23   9
  -7   3  12 18479.8 1271.62   1
  -7  -3  12 19914.1 1441.02  17
  -7  -3  12 21154.1 1465.38  13
  -7  -3  12 18303.6 1375.00   6
   7   3 -12 20453.3 1265.86   2
   7  -3 -11 418.764 335.503  10
   7   3 -11 415.000 254.821   2
   7   3 -11 197.920 279.781   9
  -7  -3  11 722.869 356.149  17
  -7   3  11 156.068 208.422   1
   7   3 -11 532.552 244.593   7
  -7  -3  11 117.344 222.660  13
  -7  -3  11 323.887 277.188   6
   7  -3 -10 75610.8 2521.36  10
   7   3 -10 68793.6 2420.01   9
   7   3 -10 67995.2 2187.03   7
  -7  -3  10 74981.3 2529.89  13
  -7  -3  10 70847.8 2538.39  17
  -7  -3  10 69312.8 2479.36   6
  -7   3  10 67079.0 2186.20   1
   7   3 -10 68275.3 2138.94   2
   7  -3  -9 8329.66 824.827  10
   7   3  -9 7639.64 816.298   9
  -7  -3   9 6757.84 780.661  17
  -7   3   9 7749.94 736.607   1
   7   3  -9 8413.52 757.446   7
  -7  -3   9 9437.28 900.879  13
  -7  -3   9 8385.36 878.229   6
   7   3  -9 8576.72 741.427   2
   7   3  -8 34319.2 1399.11  10
   7  -3  -8 35117.3 1629.65  10
   7   3  -8 34258.4 1593.74   9
  -7  -3   8 31303.9 1554.77  17
   7   3  -8 34684.6 1489.34   7
  -7   3   8 30132.1 1396.05   1
  -7  -3   8 35381.7 1661.09  13
  -7  -3   8 35437.1 1662.44   6
   7   3  -7 2039.66 343.980  10
   7  -3  -7 1818.24 410.099  10
  -7  -3   7 1190.16 357.301  17
   7   3  -7 1833.30 426.513   9
   7  -3  -7 1939.52 429.434   7
   7   3  -7 2277.73 421.693   7
  -7   3   7 1229.18 322.187   1
  -7  -3   7 1879.75 416.517  13
  -7  -3   7 1861.15 421.164   6
   7   3  -6 5394.09 485.932  10
   7  -3  -6 5564.91 631.738  10
   7   3  -6 5921.00 646.443   9
  -7  -3   6 5156.25 615.562  17
   7  -3  -6 4839.16 646.962   7
   7  -3  -6 5328.33 625.379   3
   7   3  -6 5151.56 577.480   7
  -7  -3   6 6027.33 666.510   6
  -7  -3   6 4217.86 560.245  13
   7   3  -5 12873.5 664.612  10
   7  -3  -5 13788.0 978.741  10
   7   3  -5 14282.9 922.880   9
   7  -3  -5 13833.4 989.710   7
   7  -3  -5 12870.6 942.680   3
  -7   3   5 13207.7 698.420  15
   7   3  -5 14177.6 960.879   7
  -7  -3   5 13736.4 982.892  13
  -7  -3   5 14313.2 847.644  12
  -7  -3   5 14848.0 1012.10  17
   7  -3  -4 4372.41 542.118  10
   7   3  -4 3762.90 471.838   9
  -7  -3   4 4576.39 565.576  17
   7  -3  -4 4104.78 565.296   7
   7  -3  -4 5182.32 610.995   3
   7  -3  -4 3936.58 383.573  14
   7   3  -4 2949.17 417.702   7
  -7  -3   4 3652.72 533.827  13
  -7  -3   4 4577.58 497.358  12
   7  -3  -3 2442.64 428.156  10
   7   3  -3 2685.06 370.304   9
  -7  -3   3 3563.32 497.424  17
  -7  -3   3 3022.44 353.462   8
  -7   3   3 2601.54 433.935   8
   7  -3  -3 2662.48 351.228  14
   7  -3  -3 3058.91 461.611   7
   7   3  -3 2365.80 413.553   7
  -7  -3   3 2438.90 410.671  13
   7  -3  -3 2736.17 459.670   3
  -7  -3   3 2554.58 393.566  12
   7  -3  -2 45102.6 1663.70  10
   7   3  -2 42831.5 1327.06   9
  -7  -3   2 46074.8 1704.66  17
  -7   3   2 41710.9 1680.21   8
  -7  -3   2 45055.4 1319.51   8
   7  -3  -2 44755.1 1653.74   7
   7  -3  -2 43556.8 1700.95   3
   7   3  -2 44090.3 1718.30   7
   7  -3  -2 42481.3 1422.48  14
  -7  -3   2 43589.9 1605.28  12
   7   3  -1 4571.30 417.719   9
  -7  -3   1 4654.05 560.975  17
  -7   3   1 4782.01 591.128   8
   7  -3  -1 4867.05 546.983   7
   7  -3  -1 5961.70 669.730   3
   7  -3  -1 4529.17 518.040  14
  -7  -3   1 5244.90 470.691   8
   7   3  -1 4136.95 572.795   7
  -7  -3   1 4536.84 578.847  12
  -7  -3   0 101404. 2609.53  17
  -7   3   0 99893.6 2719.51   8
   7  -3   0 99312.9 2359.45   7
   7  -3   0 97779.7 2569.10   3
   7  -3   0 100673. 2472.63  14
   7   3   0 97087.2 2571.65   7
  -7   3   0 94775.1 2587.58  12
  -7  -3   0 97337.9 2592.47  12
  -7  -3   0 100193. 2001.47  11
  -7  -3  -1 1378.18 267.715  11
   7  -3   1 1742.36 319.008  18
  -7   3  -1 3087.91 571.692   8
  -7  -3  -1 2219.13 352.185   4
   7   3   1 1727.07 332.958  16
   7  -3   1 2270.06 442.523  14
   7  -3   1 2048.62 351.189   7
   7   3   1 2839.15 502.546  14
   7   3   1 1615.09 433.774   7
   7  -3   1 2139.19 439.758   3
  -7  -3  -1 2053.04 419.437  17
  -7   3  -1 2230.58 467.951  12
  -7  -3  -1 2705.37 521.132  12
  -7   3  -2 77569.8 1960.83   2
   7  -3   2 79701.9 2194.51  18
  -7  -3  -2 78816.8 2439.92  17
  -7  -3  -2 76283.6 1937.89   4
   7   3   2 78517.7 2130.61  16
   7  -3   2 77841.5 2011.79   7
   7  -3   2 78696.2 2344.90   3
   7  -3   2 79587.4 2456.78  14
   7   3   2 75941.4 2358.13   7
   7   3   2 79318.6 2494.83  14
  -7   3  -2 76200.8 2486.03  12
  -7  -3  -2 82195.9 2551.10  12
   7   3   2 80480.9 1915.83   1
  -7  -3  -2 77398.0 2006.70  11
  -7  -3  -3 1241.65 301.082  11
   7  -3   3 1464.75 329.576  18
   7   3   3 1676.81 328.095  16
  -7  -3  -3 991.765 346.191  17
   7  -3   3 1276.63 366.164  14
  -7   3  -3 1077.91 260.115   2
   7   3   3 1906.07 470.409  14
   7   3   3 1508.38 422.587   7
   7  -3   3 706.731 317.705   3
  -7   3  -3 1020.53 389.566  12
   7   3   3 1739.61 362.502   1
  -7  -3  -3 1554.58 425.219  12
  -7  -3  -4 2403.79 420.583  11
   7  -3   4 2439.23 442.402  18
  -7  -3  -4 2501.88 510.088  17
   7   3   4 2979.97 445.793  16
   7  -3   4 2804.83 542.697  14
  -7   3  -4 2236.60 394.901   2
   7   3   4 3149.42 556.080  14
   7   3   4 2452.34 523.399   7
   7  -3   4 2653.94 457.027   3
  -7   3  -4 2542.62 497.467  12
  -7  -3  -4 3315.65 618.694  12
   7   3   4 2250.23 447.495   1
  -7  -3  -5 3364.43 600.911  17
   7   3   5 3301.98 485.733  16
   7  -3   5 2882.07 559.626  14
  -7   3  -5 2522.60 448.126   2
   7  -3   5 3233.44 555.593  18
   7   3   5 3216.64 574.911  14
   7   3   5 3519.82 605.458   7
   7  -3   5 2847.22 481.053   3
  -7   3  -5 3186.00 585.771  12
  -7  -3  -5 2748.67 585.393  12
   7   3   5 2101.71 454.615   1
  -7  -3  -5 3931.57 560.014  11
  -7  -3  -6-44.0913 241.606  11
   7  -3   6 589.578 234.373  18
  -7  -3  -6 1060.81 367.137  17
   7  -3   6 773.110 384.074  14
  -7   3  -6 905.896 289.977   2
   7   3   6 479.591 337.412  14
   7   3   6 1339.47 429.402   7
   7  -3   6 1169.37 334.572   3
  -7   3  -6 1695.78 495.078  12
  -7  -3  -6 744.070 382.493  12
   7   3   6 871.043 332.031   1
  -7  -3  -7 2206.14 507.298  11
   7  -3   7 2778.23 570.337  18
  -7   3  -7 1518.55 454.607   5
   7  -3   7 1666.29 538.995  14
  -7   3  -7 1442.58 416.278   2
   7   3   7 1932.49 507.438  14
   7   3   7 2669.95 557.513   7
  -7   3  -7 1558.63 538.366  12
  -7  -3  -7 2203.56 577.128  12
   7   3   7 3134.05 571.900   1
  -7   3  -8 22449.6 1566.20   5
  -7   3  -8 24451.2 1618.79   2
   7  -3   8 20846.3 1531.64  18
   7  -3   8 22262.3 1716.29  14
   7   3   8 23880.0 1504.13   7
   7   3   8 23616.2 1624.80  14
  -7   3  -8 24117.2 1698.17  12
  -7  -3  -8 25512.9 1728.15  12
   7   3   8 22514.0 1505.07   1
  -7  -3  -8 23194.3 1550.11  11
   7  -3   9 792.340 393.814  18
  -7   3  -9 1425.18 452.540   2
   7  -3   9 1560.71 527.330  14
   7   3   9 655.328 387.730  14
  -7   3  -9 1161.17 435.673  12
   7   3   9 1032.40 403.455   1
  -7  -3  -9 691.835 373.821  12
  -7  -3  -9 1224.85 449.799  11
  -7   3 -10 18560.4 1556.77   2
   7  -3  10 18257.1 1547.92  18
   7  -3  10 20887.8 1706.07  14
   7   3  10 21262.8 1637.76  14
  -7   3 -10 23318.1 1759.85  12
  -7  -3 -10 20871.7 1651.37  12
   7   3  10 20315.1 1573.55   1
  -7  -3 -10 20164.0 1587.74  11
  -7  -3 -11 292.179 249.440  11
   7  -3  11 446.207 347.355  18
  -7   3 -11-234.521 289.165   2
   7  -3  11-53.4691 276.256  14
   7   3  11 614.098 361.244  14
  -7  -3 -11 889.993 454.916   2
   7   3  11 1035.62 457.658   1
  -7   3 -11 223.269 293.397  12
  -7  -3 -11 293.951 382.242  12
  -7  -3 -12 553.266 385.801  11
   7  -3  12 1117.53 471.053  18
  -7   3 -12 734.196 395.946   2
   7  -3  12 780.184 370.705  14
   7   3  12 334.111 272.232  14
  -7  -3 -12 1402.01 539.468   2
   7   3  12 686.913 364.862   1
  -7   3 -12 725.957 337.547  12
  -7  -3 -12 914.298 450.126  12
  -7  -4  18 109.909 271.160   6
   7  -4 -17 8525.22 1111.06  10
   7   4 -17 8815.95 1123.98   9
  -7  -4  17 9605.33 1220.27  17
  -7   4  17 8281.35 1144.22  15
  -7   4  17 6810.64 999.955   1
  -7  -4  17 9770.51 1248.72  13
  -7  -4  17 9197.24 1163.91   6
  -7   4  17 8128.87 1148.56   6
   7   4 -17 7825.40 1000.93   2
   7  -4 -16 88.2100 331.870  10
   7   4 -16-186.237 233.217   2
   7   4 -16-427.854 381.224   9
  -7   4  16 206.410 317.123  15
  -7   4  16 689.968 450.660   1
  -7  -4  16-421.167 380.688  13
  -7  -4  16-207.981 274.221   6
  -7  -4  16-208.845 233.553  17
   7  -4 -15 10677.0 1188.44  10
  -7   4  15 8665.56 1037.14   1
   7   4 -15 9524.90 1123.07   9
  -7  -4  15 8534.79 1111.88  17
  -7   4  15 9352.20 1122.65  15
  -7  -4  15 9265.76 1130.04  13
  -7  -4  15 10065.7 1128.42   6
   7   4 -15 8098.24 959.692   2
   7  -4 -14-269.949 301.263  10
   7   4 -14 160.607 260.692   2
   7   4 -14 117.960 271.911   9
  -7  -4  14 162.271 278.092  17
  -7   4  14-224.757 294.184  15
  -7  -4  14-43.6982 333.630  13
  -7  -4  14 196.219 255.804   6
  -7   4  14 190.739 322.832   1
   7  -4 -13 5247.41 781.893  10
  -7   4  13 6336.90 815.753   1
   7   4 -13 5221.47 821.138   9
  -7  -4  13 5794.09 855.816  17
  -7   4  13 6330.91 863.829  15
  -7  -4  13 6439.18 883.200  13
  -7  -4  13 6427.20 903.341   6
   7   4 -13 5697.44 760.080   2
   7  -4 -12 45.2811 317.838  10
  -7   4  12-85.7362 297.606   1
   7   4 -12 79.9097 159.748   2
   7   4 -12 231.591 312.540   9
  -7  -4  12-145.239 239.391  17
  -7   4  12-259.663 232.306  15
  -7  -4  12-66.4144 230.951  13
  -7  -4  12-36.7476 285.820   6
   7  -4 -11 7340.24 844.996  10
   7   4 -11 7674.54 887.493   9
  -7  -4  11 7183.24 893.187  17
  -7   4  11 7596.85 846.327   1
  -7   4  11 8075.69 870.310  15
  -7  -4  11 7936.86 930.943  13
  -7  -4  11 7645.68 900.392   6
   7   4 -11 7228.26 733.526   5
   7   4 -11 7995.43 826.431   2
   7  -4 -10 10698.1 1019.18  10
   7   4 -10 10924.3 1036.52   9
  -7   4  10 10251.4 941.409   1
  -7   4  10 9694.53 912.697  15
   7   4 -10 9595.32 807.344   7
  -7  -4  10 10741.6 1016.38  17
  -7  -4  10 9074.28 939.375  13
  -7  -4  10 9538.65 975.943   6
   7   4 -10 10318.5 876.780   5
   7   4 -10 9028.54 843.343   2
   7  -4  -9 8932.52 895.876  10
   7   4  -9 9072.87 942.042   9
  -7  -4   9 8943.50 909.794  17
  -7   4   9 8657.34 799.638  15
   7   4  -9 8492.86 765.091   7
  -7   4   9 8255.04 822.542   1
  -7  -4   9 10397.5 968.583  13
  -7  -4   9 8851.19 908.050   6
   7   4  -9 8344.06 778.796   5
   7   4  -8 646.295 278.834   5
   7  -4  -8 1405.84 347.308  10
  -7   4   8 1612.75 323.350   5
  -7   4   8 988.790 326.902   1
   7   4  -8 1774.82 476.961   9
   7  -4  -8 1422.60 389.071   3
  -7   4   8 1193.37 296.678  15
   7   4  -8 1044.81 284.302   7
  -7  -4   8 1701.05 425.959  13
  -7  -4   8 1187.91 351.086  17
  -7   4   7 33191.4 1447.11   5
   7  -4  -7 31973.1 1619.70  10
   7   4  -7 30586.1 1500.53   9
  -7  -4   7 30478.7 1578.73  17
   7  -4  -7 29271.4 1477.66   3
  -7   4   7 29317.5 1275.08  15
   7   4  -7 30829.4 1434.40   7
  -7  -4   7 30605.9 1561.75  13
  -7   4   7 31048.1 1479.39   1
   7   4  -7 29076.5 1438.93   5
   7  -4  -6 10904.5 933.648  10
   7   4  -6 10259.4 860.539   9
  -7  -4   6 9857.21 916.398  17
   7  -4  -6 9184.97 831.501   3
   7   4  -6 9275.13 816.397   7
  -7  -4   6 11088.7 930.838  13
   7   4  -6 9160.09 818.583   5
   7   4  -5 109592. 2610.42   9
   7  -4  -5 113155. 2870.60   3
   7   4  -5 114025. 2785.23   7
  -7  -4   5 114806. 2938.24  13
  -7  -4   5 112560. 2908.78  17
   7   4  -5 108287. 2784.85   5
   7  -4  -4 61.9872 209.524  10
   7   4  -4 96.6201 182.983   9
  -7  -4   4 252.313 244.001  17
  -7   4   4-146.429 263.588   8
   7  -4  -4 103.314 218.708   7
   7   4  -4-178.730 313.444   7
   7  -4  -4-33.8220 221.812   3
  -7  -4   4 40.8382 272.293  13
   7  -4  -3 51827.6 1922.56  10
   7   4  -3 50683.8 1616.31   9
  -7  -4   3 50429.0 1922.39  17
  -7   4   3 53592.5 1954.44   8
   7  -4  -3 50138.5 1854.84   7
   7  -4  -3 52285.5 1949.97   3
   7  -4  -3 50849.8 1507.41  14
   7   4  -3 51724.5 1918.23   7
  -7  -4   3 53729.2 1993.98  13
  -7  -4   3 52274.7 1799.50  12
   7  -4  -2 7914.17 756.368  10
   7   4  -2 8930.60 655.361   9
  -7   4   2 9634.78 846.615   8
   7  -4  -2 8623.58 752.379   7
   7  -4  -2 9133.11 850.977   3
   7  -4  -2 8352.52 667.579  14
   7   4  -2 10407.0 880.611   7
  -7  -4   2 9008.44 839.122  13
  -7  -4   2 9087.83 838.784  17
  -7  -4   2 9690.12 818.088  12
  -7  -4   1 320.415 174.433  11
  -7  -4   1 382.489 268.344  17
   7  -4  -1 71.7855 162.066  14
  -7   4   1 239.847 188.273   8
   7  -4  -1-113.092 202.496   7
   7   4  -1 418.399 321.087   7
   7  -4  -1 363.682 253.968   3
  -7  -4   1-111.153 244.530  12
  -7  -4   0 3853.76 504.793   4
  -7  -4   0 4396.82 603.914  17
  -7   4   0 3956.16 593.237   8
   7  -4   0 3789.03 485.397   7
   7   4   0 5222.07 698.571   7
   7  -4   0 3748.86 515.659  14
   7  -4   0 3683.62 562.417   3
   7   4   0 3625.91 518.093  16
  -7  -4   0 4048.50 608.858  12
  -7  -4   0 4661.94 495.311  11
  -7  -4  -1 5416.85 671.646  17
  -7  -4  -1 5226.12 570.046   4
   7   4   1 4601.02 576.522  16
   7  -4   1 6007.55 591.947   7
   7  -4   1 5431.73 635.780  14
   7  -4   1 4910.12 635.579   3
   7   4   1 5919.63 733.471   7
  -7  -4  -1 5449.25 690.641  12
  -7  -4  -1 5129.45 532.731  11
  -7  -4  -2 14848.2 1124.89  17
  -7  -4  -2 16291.8 998.458   4
   7  -4   2 15178.4 1102.31  14
   7   4   2 14389.6 1006.54  16
   7  -4   2 14901.6 1090.57   3
   7   4   2 14840.3 1122.82   7
  -7  -4  -2 13973.7 1131.37  12
  -7  -4  -2 15066.3 953.312  11
  -7  -4  -3 46064.2 2035.40  17
   7   4   3 48343.5 1870.01  16
   7  -4   3 42313.0 1920.44  14
   7  -4   3 43024.8 1884.35   3
   7   4   3 45161.8 1951.93   7
  -7   4  -3 47413.9 2104.18  12
  -7  -4  -3 49355.6 2112.65  12
  -7  -4  -3 47010.0 1766.20  11
  -7   4  -4 3663.81 518.507   2
   7  -4   4 3624.79 556.909  18
  -7   4  -4 3250.17 594.943   5
   7   4   4 3938.21 580.186  16
   7   4   4 4864.64 720.830   7
   7  -4   4 3932.13 637.514  14
   7   4   4 3029.57 567.074  14
   7  -4   4 3502.41 567.217   3
  -7  -4  -4 3971.00 651.546  17
  -7   4  -4 3978.16 689.015  12
  -7  -4  -4 2847.16 600.819  12
  -7  -4  -4 4402.04 578.788  11
  -7   4  -5 35616.9 1909.64   5
  -7   4  -5 33634.7 1622.35   2
   7  -4   5 31084.2 1668.55  18
  -7  -4  -5 32305.7 1844.34  17
   7   4   5 34985.2 1683.16  16
   7  -4   5 34501.2 1888.03  14
   7  -4   5 34377.7 1721.32   3
   7   4   5 37013.2 1857.27   7
   7   4   5 34356.4 1827.00  14
  -7   4  -5 38807.3 2038.84  12
  -7  -4  -5 36127.3 1929.25  12
  -7  -4  -5 36280.7 1716.01  11
   7   4   5 38112.9 1695.69   1
  -7  -4  -6 894.124 322.926  11
   7  -4   6 899.903 318.679  18
  -7   4  -6 1185.46 406.618   5
  -7  -4  -6 584.161 301.328  17
   7   4   6 958.219 295.087  16
  -7   4  -6 319.828 188.735   2
   7  -4   6 986.026 363.360  14
   7   4   6 810.520 353.383  14
   7   4   6 1786.90 490.471   7
   7  -4   6 1507.47 402.942   3
  -7   4  -6-170.280 355.683  12
  -7  -4  -6 350.261 311.576  12
   7   4   6 1589.83 424.805   1
  -7   4  -7 9804.17 1062.82   5
  -7   4  -7 8370.08 918.025   2
   7  -4   7 7303.57 902.596  18
   7   4   7 8492.14 894.195  16
   7  -4   7 8354.54 1020.20  14
   7  -4   7 8679.22 890.704   3
   7   4   7 11187.2 1080.50   7
   7   4   7 8934.61 1005.37  14
  -7   4  -7 9314.59 1060.62  12
  -7  -4  -7 9659.25 1073.26  12
  -7  -4  -7 8598.06 925.584  11
   7   4   7 8926.65 946.310   1
  -7  -4  -8 1210.10 398.252  11
  -7   4  -8 1053.85 420.243   5
  -7   4  -8 1179.23 350.495   2
   7  -4   8 1444.64 482.462  14
   7   4   8 1547.41 478.614  14
   7   4   8 709.878 392.877   7
   7  -4   8 909.690 381.739  18
  -7   4  -8 1098.96 460.009  12
  -7  -4  -8 1325.51 512.692  12
   7   4   8 1421.55 458.501   1
  -7  -4  -9 1618.58 460.796  11
  -7   4  -9 1451.25 429.194   5
   7  -4   9 2464.13 617.184  18
  -7   4  -9 2162.91 550.450   2
   7  -4   9 1473.59 485.771  14
   7   4   9 1633.97 484.433  14
   7   4   9 2566.08 580.254   7
  -7   4  -9 2119.87 589.458  12
  -7  -4  -9 2029.59 570.474  12
   7   4   9 1204.41 509.808   1
  -7  -4 -10-386.062 316.472  11
   7  -4  10 561.190 459.291  18
  -7   4 -10 316.243 276.971   2
   7   4  10 310.418 246.219  14
   7  -4  10 361.076 351.607  14
  -7   4 -10 644.371 482.019  12
  -7  -4 -10-384.698 393.911  12
   7   4  10 16.8119 243.428   1
  -7  -4 -11 1806.81 580.360  11
   7  -4  11 1322.30 479.845  18
  -7   4 -11 408.522 278.727   2
   7  -4  11 876.622 424.981  14
   7   4  11 1436.39 522.876  14
  -7   4 -11 1901.87 592.681  12
   7   4  11 415.733 372.826   1
  -7  -4 -11 1591.20 517.228  12
  -7   4 -12-150.257 270.986   2
   7   4  12 18.1048 281.543   1
  -7   4 -12 283.968 346.478  12
  -7  -4 -12 331.830 350.182  12
   7  -5 -17 544.728 368.765  10
   7   5 -17 153.493 278.147   2
   7   5 -17 1127.78 518.748   9
  -7   5  17-17.2192 278.411  15
  -7   5  17 262.018 362.904   1
  -7  -5  17-116.507 277.622  13
   7  -5 -16 3139.29 707.326  10
   7   5 -16 2907.28 651.164   2
   7   5 -16 3062.83 700.287   9
  -7  -5  16 3563.48 746.294  17
  -7   5  16 3795.49 764.649  15
  -7  -5  16 3637.59 775.075  13
  -7   5  16 3296.63 720.830   1
   7  -5 -15 1583.53 479.106  10
   7   5 -15 1287.23 417.957   2
   7   5 -15 832.008 452.752   9
  -7  -5  15 1213.63 469.539  17
  -7   5  15 1428.29 491.600  15
  -7  -5  15 876.549 414.066  13
  -7   5  15 928.557 502.942   1
   7  -5 -14 15358.3 1405.85  10
  -7   5  14 11882.7 1205.45   1
  -7  -5  14 17641.9 1533.14  17
  -7   5  14 16030.6 1436.35  15
   7   5 -14 14653.8 1387.19   9
  -7  -5  14 15227.7 1451.22  13
   7   5 -14 14594.6 1310.34   2
   7  -5 -13 161.332 279.698  10
   7   5 -13 303.278 293.657   2
  -7   5  13 171.086 369.655   1
   7   5 -13 914.865 505.413   9
  -7  -5  13 185.460 242.826  17
  -7   5  13-309.175 355.932  15
  -7  -5  13 69.6528 254.294  13
   7  -5 -12 21938.2 1574.29  10
   7   5 -12 21720.8 1581.92   9
  -7  -5  12 23534.7 1652.72  17
  -7   5  12 21333.6 1505.98   1
  -7   5  12 21606.9 1545.00  15
  -7  -5  12 22539.9 1644.57  13
   7   5 -12 20435.6 1435.56   2
   7   5 -11 398.917 249.895   5
   7  -5 -11 351.386 296.791  10
   7   5 -11 273.286 244.099   2
   7   5 -11 768.381 435.504   9
  -7  -5  11 109.227 251.824  17
  -7   5  11-1.08305 181.495  15
  -7  -5  11 350.097 293.148  13
  -7   5  11 1112.09 418.237   1
   7  -5 -10 11052.2 1061.77  10
   7   5 -10 12229.8 1113.47   9
  -7  -5  10 10999.4 1080.68  17
  -7   5  10 11762.8 1072.53   1
  -7   5  10 10033.5 936.487  15
  -7  -5  10 9929.19 1029.72  13
   7   5 -10 11173.6 962.756   5
   7   5  -9 473.810 260.137   5
   7  -5  -9 1351.50 436.445  10
   7   5  -9 1926.57 520.496   9
  -7  -5   9 753.889 329.067  17
  -7   5   9 1084.32 302.226  15
   7   5  -9 1278.94 344.346   7
  -7   5   9 494.129 266.485   1
  -7  -5   9 532.516 329.524  13
   7   5  -8 4150.52 588.666   5
   7  -5  -8 3588.96 617.581  10
  -7  -5   8 4554.07 678.233  17
   7  -5  -8 4769.60 633.757   3
  -7   5   8 4150.79 551.604  15
   7   5  -8 3571.44 522.979   7
  -7   5   8 3457.11 576.565   1
  -7  -5   8 5276.67 713.473  13
   7   5  -7 2056.10 447.403   5
   7  -5  -7 1764.80 426.668  10
  -7   5   7 2343.20 432.223   5
  -7  -5   7 1855.97 424.277  17
   7   5  -7 2747.06 475.107   7
   7  -5  -7 2293.80 499.315   3
  -7  -5   7 2654.87 531.509  13
  -7   5   6 17483.4 1136.60   5
   7  -5  -6 19299.6 1284.93  10
  -7  -5   6 18953.5 1285.51  17
   7  -5  -6 18763.9 1237.12   3
   7   5  -6 17942.2 1153.30   7
  -7  -5   6 16525.4 1195.19  13
   7   5  -6 16064.4 1144.35   5
   7   5  -5 4364.40 619.206   5
   7  -5  -5 5028.23 680.403  10
  -7   5   5 3255.75 500.330   5
  -7  -5   5 4626.16 637.635  17
   7   5  -5 3660.13 542.704   7
   7  -5  -5 4446.77 619.348   3
  -7  -5   5 4415.56 657.849  13
  -7   5   4 41152.7 1807.68   5
   7  -5  -4 42417.4 1871.62  10
  -7  -5   4 40908.0 1854.42  17
  -7   5   4 39556.1 1753.63   8
   7  -5  -4 43490.1 1867.20   3
   7   5  -4 42392.3 1783.48   7
  -7  -5   4 45357.6 1921.23  13
   7   5  -4 39218.5 1767.95   5
  -7   5   3 15944.5 1170.03   5
   7  -5  -3 17695.6 1220.69  10
  -7  -5   3 16380.5 1180.34  17
  -7   5   3 15370.3 1097.32   8
   7  -5  -3 16774.0 1184.08   3
   7   5  -3 14470.3 1068.04   7
  -7  -5   3 16423.2 1166.38  13
   7   5  -3 16414.3 1171.06   5
  -7   5   2 22632.5 1414.95   5
  -7  -5   2 21905.1 1347.41  17
  -7   5   2 20596.4 1287.12   8
   7  -5  -2 20843.7 1317.36   3
   7  -5  -2 19397.7 1049.46  14
   7   5  -2 22941.2 1352.90   7
  -7  -5   2 21100.9 1307.57  13
   7   5  -2 19117.5 1259.74   5
  -7  -5   2 22486.4 1313.12  12
  -7  -5   2 21351.5 1049.92  11
  -7  -5   1 2108.44 351.016  11
  -7   5   1 1642.21 427.937   5
  -7  -5   1 2159.42 457.775  17
  -7   5   1 2053.15 452.020   8
   7  -5  -1 2362.32 429.293  14
   7   5  -1 2204.88 514.450   7
  -7  -5   1 2537.42 467.747  13
   7  -5  -1 2406.39 485.914   3
  -7  -5   1 2060.52 449.347  12
  -7   5   0 17019.8 1242.31   5
  -7  -5   0 18896.2 1278.98  17
  -7   5   0 17891.5 1256.01   8
  -7  -5   0 17465.6 1122.19   4
   7   5   0 20134.3 1258.32  16
   7  -5   0 18338.1 1130.25  14
   7  -5   0 16874.3 1222.72   3
   7   5   0 17980.1 1271.40   7
  -7  -5   0 18029.5 1224.22  12
  -7  -5   0 19387.2 1081.19  11
  -7   5  -1 9590.30 1018.98   5
  -7  -5  -1 11116.4 1011.28  17
  -7  -5  -1 10286.3 873.757   4
   7   5   1 11385.6 967.861  16
   7  -5   1 10699.3 917.098  14
   7   5   1 11309.7 1049.08   7
   7  -5   1 11367.3 1019.51   3
  -7  -5  -1 11548.2 1033.71  12
  -7  -5  -1 12060.1 880.943  11
  -7   5  -2 23390.4 1592.68   5
  -7  -5  -2 23197.6 1486.17  17
  -7  -5  -2 23953.0 1313.16   4
   7   5   2 26474.5 1468.67  16
   7  -5   2 25287.6 1466.94  14
   7  -5   2 23940.3 1469.18   3
   7   5   2 25338.9 1538.90   7
  -7  -5  -2 25860.2 1588.50  12
  -7  -5  -2 25402.6 1331.04  11
  -7  -5  -3 681.458 248.741  11
  -7   5  -3 708.936 357.517   5
  -7  -5  -3 988.554 298.868   4
  -7  -5  -3 780.013 341.704  17
   7   5   3 764.878 310.901  16
   7  -5   3 941.848 336.535  14
   7  -5   3 861.284 328.786   3
  -7  -5  -3 1104.20 433.896  12
  -7   5  -4 11322.5 1115.84   5
  -7  -5  -4 12024.0 1135.76  17
   7   5   4 13195.8 1098.49  16
   7  -5   4 11504.8 1112.55  14
   7  -5   4 11005.8 1023.46   3
  -7  -5  -4 12909.3 1176.79  12
  -7  -5  -4 12709.6 1027.67  11
  -7  -5  -5 1605.71 414.207  11
  -7   5  -5 1101.43 441.479   5
  -7  -5  -5 940.096 395.400  17
   7   5   5 890.283 293.814  16
   7  -5   5 1043.87 366.219  14
   7  -5   5 1353.66 399.666   3
  -7   5  -5 465.322 268.660  12
  -7  -5  -5 668.356 402.090  12
  -7   5  -6 7202.01 922.439   5
  -7  -5  -6 7032.33 929.078  17
   7   5   6 8746.98 941.520  16
   7  -5   6 7258.64 938.797  14
   7  -5   6 5786.28 770.708   3
  -7  -5  -6 7455.49 968.776  12
  -7   5  -6 6430.92 907.364  12
  -7  -5  -6 6844.95 828.347  11
  -7  -5  -7 53.6254 209.343  11
  -7   5  -7 340.011 227.349   5
   7   5   7-186.111 240.542  16
   7  -5   7 209.522 270.701  14
   7  -5   7 538.048 288.881   3
  -7   5  -7 248.592 326.093  12
  -7  -5  -7-202.530 292.936  12
  -7  -5  -8 5141.70 800.108  11
  -7   5  -8 5431.04 831.216   5
   7   5   8 5800.77 817.999  16
   7  -5   8 5828.73 900.980  14
  -7   5  -8 6749.01 989.764  12
  -7  -5  -8 5690.93 920.219  12
  -7  -5  -9-371.356 344.506  11
  -7   5  -9 84.5728 231.096   5
  -7   5  -9 254.144 250.793   2
   7  -5   9-299.461 390.676  14
  -7   5  -9 777.233 472.333  12
  -7  -5  -9-67.6217 343.368  12
  -7  -5 -10 5381.74 887.592  11
  -7   5 -10 5413.71 853.831   2
   7  -5  10 5214.84 907.679  14
  -7   5 -10 5896.74 948.654  12
  -7  -5 -10 5162.75 849.026  12
  -7  -5 -11-166.336 365.166  11
  -7   5 -11 235.681 256.892   2
  -7   5 -11 206.437 306.086  12
  -7  -5 -11-264.651 347.921  12
   7   5  11 679.352 352.698   1
   7  -6 -16 623.426 383.758  10
   7   6 -16 1321.05 476.716   2
   7   6 -16 1502.89 546.454   9
  -7  -6  16 846.051 399.284  17
  -7   6  16 1562.76 530.112  15
  -7  -6  16 1760.45 619.230  13
  -7   6  16 1368.90 544.648   1
  -7   6  15 1145.49 472.673   1
   7  -6 -15 2540.58 613.144  10
   7   6 -15 1220.75 437.892   2
   7   6 -15 1905.26 581.516   9
  -7  -6  15 1058.25 440.989  17
  -7   6  15 1950.38 599.751  15
  -7  -6  15 1517.94 533.607  13
  -7   6  14 559.279 496.132   1
   7  -6 -14 83.8365 300.758  10
   7   6 -14 47.7024 231.943   2
   7   6 -14 877.496 531.640   9
  -7  -6  14 596.084 394.849  17
  -7   6  14 611.613 345.816  15
  -7  -6  14-106.236 275.080  13
   7  -6 -13 8184.40 1030.14  10
   7   6 -13 9606.37 1161.69   9
  -7   6  13 7139.83 985.684   1
  -7  -6  13 6707.38 926.582  17
  -7   6  13 7586.82 985.036  15
  -7  -6  13 7997.67 1049.29  13
   7   6 -13 7953.30 977.071   2
   7  -6 -12 6606.58 930.778  10
   7   6 -12 7647.53 1013.77   9
  -7   6  12 7656.05 967.107   1
  -7  -6  12 6717.03 931.326  17
  -7   6  12 8211.63 968.022  15
  -7  -6  12 9248.50 1109.86  13
   7   6 -12 7300.25 936.925   2
   7  -6 -11 16491.7 1379.95  10
   7   6 -11 15644.7 1371.04   9
  -7  -6  11 17503.1 1460.13  17
  -7   6  11 15857.5 1361.79   1
  -7   6  11 17584.1 1329.66  15
  -7  -6  11 16886.0 1426.20  13
   7   6 -11 16614.4 1262.92   5
   7   6 -10 955.656 359.785   5
   7  -6 -10 1843.02 484.827  10
  -7   6  10 1462.60 470.425   1
  -7  -6  10 943.143 342.850  17
  -7   6  10 1002.35 333.059  15
  -7  -6  10 1591.30 497.491  13
   7  -6  -9 9204.88 998.811  10
  -7  -6   9 8451.63 973.650  17
   7  -6  -9 8497.07 871.206   3
  -7   6   9 8386.36 834.047  15
  -7   6   9 6562.04 870.368   1
  -7  -6   9 8664.47 984.524  13
   7   6  -9 8324.78 882.387   5
   7  -6  -8 18488.5 1378.38  10
  -7  -6   8 17827.4 1357.41  17
   7  -6  -8 18098.3 1246.39   3
   7   6  -8 18006.5 1166.50   7
  -7   6   8 13398.9 1221.33   1
  -7  -6   8 19644.6 1426.89  13
   7   6  -8 18078.5 1305.38   5
  -7   6   7 14842.3 1089.93   5
   7  -6  -7 13998.3 1201.82  10
  -7  -6   7 13903.5 1183.26  17
   7  -6  -7 14412.2 1133.39   3
   7   6  -7 12354.7 994.932   7
  -7  -6   7 16065.3 1269.16  13
  -7   6   7 12496.8 1108.04   1
   7   6  -7 13655.4 1141.39   5
   7   6  -6-335.303 355.976   5
   7  -6  -6 255.228 316.540  10
  -7   6   6 88.6022 195.772   5
  -7  -6   6 140.987 212.790  17
   7   6  -6-437.748 333.701   7
   7  -6  -6-218.925 249.175   3
  -7  -6   6-277.370 332.483  13
  -7   6   5 26662.7 1516.09   5
   7  -6  -5 28265.4 1635.89  10
  -7  -6   5 26355.5 1585.32  17
  -7   6   5 25777.8 1464.10   8
   7  -6  -5 24006.8 1472.43   3
   7   6  -5 26695.4 1461.46   7
  -7  -6   5 28861.4 1642.97  13
   7   6  -5 24132.2 1493.14   5
  -7   6   4 7691.88 841.595   5
   7  -6  -4 8648.54 929.270  10
  -7  -6   4 6337.78 840.740  17
  -7   6   4 7852.09 822.901   8
   7  -6  -4 7342.50 829.452   3
   7   6  -4 7310.25 807.951   7
  -7  -6   4 6873.45 816.926  13
   7   6  -4 6733.64 812.494   5
  -7   6   3 34207.8 1780.15   5
   7  -6  -3 35027.7 1800.05  10
  -7  -6   3 30537.6 1692.31  17
  -7   6   3 32419.9 1652.21   8
   7  -6  -3 32612.7 1732.79   3
   7   6  -3 30353.8 1622.79   7
  -7  -6   3 35229.4 1780.69  13
   7   6  -3 32266.8 1726.27   5
   7   6  -2 2222.09 522.752   5
  -7  -6   2 2662.89 436.232  11
  -7   6   2 3625.45 651.338   5
  -7  -6   2 2188.65 459.954  17
  -7   6   2 2663.59 489.487   8
   7   6  -2 3610.96 625.101   7
  -7  -6   2 2712.45 537.653  13
   7  -6  -2 2558.11 515.805   3
  -7   6   1 25178.3 1583.12   5
  -7  -6   1 22915.6 1456.62  17
  -7  -6   1 22154.3 1386.45   4
   7  -6  -1 23717.2 1288.36  14
   7  -6  -1 22676.3 1475.17   3
   7   6  -1 22790.3 1467.29   7
  -7   6   1 23697.8 1461.93   8
  -7  -6   1 26330.7 1528.54  13
   7   6  -1 24124.0 1505.45   5
  -7  -6   1 23924.5 1270.12  11
  -7  -6   0 548.743 244.697  11
  -7   6   0 453.166 304.544   5
  -7  -6   0 116.023 224.159   4
   7   6   0 288.036 241.821  16
   7  -6   0 582.735 273.154  14
  -7  -6   0 354.612 257.051  17
   7   6   0 958.689 473.040   7
  -7  -6   0 308.090 244.789  13
   7  -6   0 289.846 295.527   3
  -7   6  -1 8077.11 954.885   5
  -7  -6  -1 8055.97 919.368  17
  -7  -6  -1 9157.05 896.287   4
   7   6   1 8607.20 911.484  16
   7  -6   1 8664.32 864.478  14
   7  -6   1 7899.30 897.015   3
   7   6   1 9101.94 1003.92   7
  -7  -6  -1 9140.99 918.555  13
  -7  -6  -1 8492.47 934.251  12
  -7  -6  -1 8957.08 826.709  11
  -7   6  -2 6644.69 881.801   5
  -7  -6  -2 6549.46 841.837  17
  -7  -6  -2 6096.65 745.352   4
   7   6   2 5061.77 724.259  16
   7  -6   2 7163.64 825.611  14
   7  -6   2 5067.62 748.421   3
  -7  -6  -2 6410.87 853.524  12
  -7  -6  -2 6020.83 704.189  11
  -7   6  -3 10375.1 1104.28   5
  -7  -6  -3 9156.16 1013.43  17
   7   6   3 12042.7 1096.15  16
   7  -6   3 10332.5 1031.65  14
   7  -6   3 9110.29 980.099   3
  -7  -6  -3 10799.4 1107.03  12
  -7  -6  -3 10567.0 961.783  11
  -7   6  -4 9113.66 1051.11   5
  -7  -6  -4 10917.4 1131.47  17
   7   6   4 10467.2 1057.87  16
   7  -6   4 10571.2 1072.20  14
   7  -6   4 8653.73 967.536   3
  -7  -6  -4 11673.9 1188.34  12
  -7  -6  -4 9838.29 967.268  11
  -7   6  -5 7729.33 1013.61   5
  -7  -6  -5 6459.62 903.816  17
   7   6   5 8147.42 955.168  16
   7  -6   5 6988.91 909.242  14
   7  -6   5 5683.85 795.263   3
  -7  -6  -5 7273.08 955.657  12
  -7  -6  -5 6727.06 821.443  11
  -7  -6  -6 3765.26 667.154  11
  -7   6  -6 4354.42 753.587   5
  -7  -6  -6 3535.89 721.156  17
   7   6   6 3678.77 675.875  16
   7  -6   6 3855.43 729.133  14
   7  -6   6 3444.90 644.505   3
  -7   6  -6 3855.36 739.507  12
  -7  -6  -6 2916.63 622.072  12
  -7   6  -7 4865.70 815.580   5
  -7  -6  -7 5667.41 901.093  17
   7   6   7 5675.04 828.990  16
   7  -6   7 6060.72 900.124  14
   7  -6   7 5185.03 787.400   3
  -7   6  -7 6663.10 971.067  12
  -7  -6  -7 5891.60 897.079  12
  -7  -6  -7 5557.03 806.047  11
   7   6   8 10380.2 1148.14  16
   7  -6   8 8726.30 1129.74  14
   7  -6   8 8800.48 1025.28   3
  -7   6  -8 9545.51 1194.24  12
  -7  -6  -8 7922.04 1080.82  12
  -7  -6  -8 7966.97 1002.18  11
  -7   6  -8 7662.88 1028.00   5
  -7  -6  -9 3555.25 692.854  11
  -7   6  -9 5250.76 846.098   5
   7   6   9 3877.38 716.869  16
   7  -6   9 4844.38 912.476  14
  -7   6  -9 5397.69 921.707  12
  -7  -6  -9 3676.98 758.475  12
  -7  -6 -10 132.286 227.296  11
   7  -6  10 444.943 389.512  14
  -7   6 -10 521.720 380.897  12
  -7  -6 -10 336.855 350.972  12
  -7   7  15 2371.46 663.522   1
   7  -7 -15 2342.62 633.137  10
   7   7 -15 2671.82 699.168   9
  -7  -7  15 1909.18 578.127  17
  -7  -7  15 3008.51 758.976  13
   7   7 -15 3297.92 703.284   2
   7  -7 -14 4595.57 862.365  10
  -7   7  14 2431.14 625.632   1
   7   7 -14 5448.20 932.188   9
  -7  -7  14 3475.35 756.174  17
  -7  -7  14 4467.66 862.414  13
   7   7 -14 5625.21 890.156   2
   7  -7 -13-354.634 389.092  10
  -7  -7  13-319.203 360.744  17
  -7   7  13-69.4395 321.028   1
  -7  -7  13-108.501 360.481  13
   7  -7 -12 1320.86 455.935  10
  -7  -7  12 2293.98 603.971  17
  -7   7  12 2109.16 628.332   1
  -7  -7  12 1139.17 480.306  13
  -7   7  11 932.566 442.452   1
   7   7 -11 640.844 335.258   5
   7  -7 -11 209.664 254.126  10
  -7  -7  11 612.042 332.135  17
  -7  -7  11 1010.56 458.775  13
   7   7 -10 5137.01 757.902   5
   7  -7 -10 5960.72 866.129  10
  -7   7  10 4286.78 744.690   1
  -7  -7  10 5491.31 868.668  17
  -7  -7  10 6566.61 900.425  13
   7   7  -9-64.1784 245.104   5
   7  -7  -9 225.163 299.050  10
  -7  -7   9 165.401 258.296  17
   7  -7  -9-214.303 223.465   3
  -7  -7   9 461.893 332.323  13
  -7   7   9-460.765 381.083   1
   7  -7  -8 22580.4 1604.36  10
  -7  -7   8 22728.1 1605.04  17
   7  -7  -8 19407.4 1353.71   3
  -7   7   8 16933.2 1410.16   1
  -7  -7   8 20780.1 1534.26  13
   7   7  -8 20901.8 1503.58   5
   7   7  -7 665.788 348.407   5
  -7   7   7-1.49583 270.669   5
   7  -7  -7 567.715 342.286  10
  -7  -7   7-3.03866 261.029  17
  -7   7   7-49.8653 184.287   8
   7   7  -7 212.518 282.472   7
   7  -7  -7 696.612 326.672   3
  -7   7   7-505.871 447.418   1
  -7  -7   7 670.084 371.820  13
   7  -7  -6 22071.3 1528.33  10
   7  -7  -6 20710.9 1401.79   3
   7   7  -6 18524.5 1269.62   7
  -7  -7   6 22007.2 1518.07  13
  -7  -7   6 21954.7 1518.88  17
  -7   7   6 20771.7 1376.50   8
   7   7  -6 21234.2 1512.24   5
  -7   7   6 21273.2 1402.20   5
   7   7  -5-143.426 378.920   5
  -7   7   5 366.328 277.587   5
   7  -7  -5-34.1224 292.912  10
  -7  -7   5-142.687 274.692  17
  -7   7   5 71.6910 181.790   8
   7   7  -5 508.107 312.245   7
   7  -7  -5 226.867 323.106   3
  -7  -7   5-309.514 322.703  13
  -7   7   4 7986.01 894.805   5
   7  -7  -4 7728.07 922.152  10
  -7  -7   4 7011.40 846.858  17
  -7   7   4 8467.90 879.023   8
   7  -7  -4 6693.71 830.841   3
   7   7  -4 8021.58 914.630   7
  -7  -7   4 8327.66 919.675  13
   7   7  -4 7194.21 883.832   5
   7   7  -3 3505.44 661.212   5
  -7   7   3 3063.10 617.853   5
  -7  -7   3 1974.74 502.136  17
  -7   7   3 2685.84 515.544   8
  -7  -7   3 2506.24 540.832   4
   7   7  -3 2954.60 600.699   7
  -7  -7   3 2328.00 515.365  13
   7  -7  -3 2066.88 494.284   3
  -7   7   2 7756.16 927.124   5
   7   7  -2 6632.86 864.768   5
  -7  -7   2 7643.96 917.268  17
  -7  -7   2 5497.34 758.795   4
  -7   7   2 7912.20 861.534   8
   7  -7  -2 6563.91 844.124   3
   7   7  -2 7945.55 926.304   7
  -7  -7   2 7657.14 892.137  13
  -7  -7   2 7753.92 778.747  11
   7   7  -1 137.895 302.627   5
  -7  -7   1 25.7782 164.180  11
  -7   7   1 408.760 370.220   5
  -7  -7   1 15.6684 237.454  17
  -7  -7   1 223.592 263.922   4
   7   7  -1 821.879 438.663   7
  -7  -7   1-87.7691 231.256  13
   7  -7  -1-195.070 237.815   3
  -7   7   1-59.5127 232.337   8
  -7   7   0 14388.1 1286.82   5
  -7  -7   0 15212.9 1282.84  17
  -7  -7   0 13051.4 1145.31   4
   7  -7   0 13794.6 1072.66  14
   7  -7   0 12624.7 1185.37   3
   7   7   0 13688.6 1238.81   7
  -7  -7   0 13113.1 1142.78  13
   7   7   0 11809.9 1107.30   5
  -7  -7   0 14173.3 1084.81  11
  -7  -7  -1 3485.81 555.532  11
  -7   7  -1 3922.35 742.208   5
  -7  -7  -1 3353.76 682.221  17
  -7  -7  -1 2691.88 530.436   4
   7   7   1 3480.50 635.076  16
   7  -7   1 4109.94 646.242  14
  -7  -7  -1 3210.33 598.474  13
   7  -7   1 3060.58 602.872   3
  -7   7  -2 7952.54 1024.39   5
  -7  -7  -2 6758.31 896.548  17
  -7  -7  -2 6657.68 818.467   4
   7   7   2 7592.10 930.648  16
   7  -7   2 6660.98 833.412  14
   7  -7   2 6393.27 865.719   3
  -7  -7  -2 7287.20 866.762  13
  -7  -7  -2 6853.19 805.533  11
  -7  -7  -3 162.633 192.824  11
  -7   7  -3-45.9387 234.332   5
  -7  -7  -3-292.981 252.332  17
   7   7   3 120.472 259.287  16
   7  -7   3-294.284 247.900  14
   7  -7   3-60.2775 300.878   3
  -7   7  -4 7485.59 993.804   5
  -7  -7  -4 7367.87 975.815  17
   7   7   4 7141.46 930.626  16
   7  -7   4 8128.39 980.851  14
   7  -7   4 6380.95 890.667   3
  -7  -7  -4 8293.02 944.068  11
  -7  -7  -5 946.608 400.553  11
  -7   7  -5 368.346 278.054   5
  -7  -7  -5 565.766 370.162  17
   7   7   5 145.683 254.167  16
   7  -7   5 423.450 321.916  14
   7  -7   5 482.819 360.919   3
  -7  -7  -6 12672.8 1354.74  17
   7   7   6 15011.5 1394.26  16
   7  -7   6 14527.8 1392.17  14
   7  -7   6 13133.1 1285.96   3
  -7  -7  -6 14046.3 1300.26  11
  -7   7  -6 14023.2 1397.24   5
  -7  -7  -7 1322.43 459.380  11
  -7   7  -7 1008.96 453.040   5
  -7  -7  -7 1310.38 517.225  17
   7   7   7 1153.74 431.460  16
   7  -7   7 1236.42 417.102  14
   7  -7   7 784.411 358.822   3
  -7   7  -7 2247.75 617.021  12
  -7  -7  -8 4879.13 818.447  11
  -7   7  -8 5308.78 885.774   5
   7   7   8 7100.63 1008.69  16
   7  -7   8 5932.42 968.237  14
   7  -7   8 6230.25 910.572   3
  -7   7  -8 6180.99 988.735  12
  -7  -7  -9-29.7758 298.533  11
  -7   7  -9 447.714 358.849   5
   7   7   9 334.788 354.439  16
   7  -7   9 370.815 299.636  14
  -7   7  -9-527.969 407.152  12
   7  -8 -14-198.052 344.530  10
  -7   8  14 186.005 457.801   1
   7  -8 -13 3560.21 740.931  10
   7   8 -13 4538.03 861.304   9
  -7  -8  13 3647.29 760.956  17
  -7   8  13 4108.66 817.426   1
  -7  -8  13 4301.18 845.983  13
   7   8 -12-6.25419 236.415   5
   7  -8 -12-104.402 277.277  10
  -7  -8  12-356.179 302.981  17
  -7  -8  12 245.125 299.625  13
  -7   8  12-229.650 369.586   1
   7  -8 -11 7723.50 1030.09  10
  -7  -8  11 9940.21 1172.41  17
  -7   8  11 8111.39 1123.93   1
  -7  -8  11 8768.62 1126.16  13
   7   8 -11 8315.82 1038.01   5
   7   8 -10-383.590 308.098   5
   7  -8 -10 233.397 327.551  10
  -7   8  10 99.3059 306.951   1
  -7  -8  10 400.300 367.417  17
  -7  -8  10-468.476 391.871  13
   7  -8  -9 18630.6 1536.78  10
  -7  -8   9 17274.5 1494.78  17
  -7  -8   9 20270.9 1621.08  13
   7   8  -9 17113.8 1446.31   5
   7   8  -8 1036.27 466.550   5
   7  -8  -8 660.350 374.686  10
  -7  -8   8 496.748 368.725  17
  -7   8   8 284.949 318.078   1
   7  -8  -8 774.286 333.666   3
  -7  -8   8 1217.35 429.549  13
   7  -8  -7 7573.07 968.143  10
  -7  -8   7 7851.80 1014.07  17
  -7   8   7 6933.83 830.808   8
   7  -8  -7 8752.36 961.114   3
  -7   8   7 6503.79 926.328   1
  -7  -8   7 8720.03 1044.26  13
   7   8  -7 6763.55 929.585   5
   7   8  -6 3903.25 728.268   5
  -7   8   6 3168.00 611.426   5
   7  -8  -6 3941.65 726.162  10
  -7   8   6 3764.80 629.845   8
   7   8  -6 3292.97 597.899   7
   7  -8  -6 3463.33 624.246   3
  -7  -8   6 4219.81 716.951  13
  -7  -8   6 3281.30 654.881  17
   7   8  -5-34.0311 399.256   5
  -7   8   5-234.556 326.084   5
   7  -8  -5 82.9064 240.662  10
  -7  -8   5-7.05845 307.976  17
  -7   8   5-262.195 262.256   8
   7   8  -5 452.503 263.820   7
   7  -8  -5 573.601 310.156   3
  -7  -8   5 491.132 344.977  13
   7   8  -4 1681.42 499.164   5
  -7   8   4 1455.95 425.649   5
  -7  -8   4 1935.07 504.575  17
  -7   8   4 1711.85 448.333   8
  -7  -8   4 1684.09 486.557   4
   7   8  -4 1650.00 477.973   7
  -7  -8   4 1839.57 513.904  13
   7  -8  -4 1666.15 474.115   3
   7   8  -3 2895.36 649.936   5
  -7   8   3 3619.75 664.474   5
  -7  -8   3 5317.68 801.799  17
  -7   8   3 5562.88 764.244   8
  -7  -8   3 3267.70 621.233   4
   7   8  -3 4681.23 737.538   7
  -7  -8   3 3493.86 600.035  13
   7  -8  -3 4551.21 738.886   3
   7   8  -2 6439.60 902.302   5
  -7  -8   2 8111.15 974.486  17
  -7  -8   2 8232.67 994.097   4
  -7   8   2 7227.36 860.470   8
   7  -8  -2 7470.05 951.947   3
   7   8  -2 8172.87 972.924   7
  -7  -8   2 8737.93 959.561  13
  -7   8   2 8677.00 1028.23   5
  -7  -8   2 7639.36 841.288  11
  -7  -8   1 31862.3 1922.49  17
   7  -8  -1 29971.2 1868.89   3
   7   8  -1 33291.7 1925.91   7
  -7  -8   1 34475.0 1896.51  13
  -7  -8   1 31994.4 1903.52   4
   7   8  -1 32080.4 1923.55   5
  -7  -8   1 36326.2 1847.29  11
  -7   8   1 34283.5 2054.18   5
   7   8   0 413.003 305.209   5
  -7  -8   0 1259.70 406.655  11
  -7   8   0 996.223 453.167   5
  -7  -8   0 866.814 367.653   4
   7   8   0 1893.52 565.647   7
  -7  -8   0 608.857 323.754  13
   7  -8   0-65.2058 278.618   3
  -7  -8   0 993.239 430.567  17
  -7  -8  -1 26632.0 1808.88  17
  -7  -8  -1 26029.0 1718.74   4
   7   8   1 30449.1 1917.31  16
   7  -8   1 27477.2 1672.15  14
   7  -8   1 26620.1 1789.41   3
  -7  -8  -1 26199.9 1668.99  13
   7   8   1 26644.0 1784.21   5
  -7  -8  -1 27432.4 1661.23  11
  -7   8  -1 26085.0 1850.66   5
  -7  -8  -2 1642.86 432.176  11
  -7   8  -2 2130.28 587.349   5
  -7  -8  -2 1394.01 437.291   4
  -7  -8  -2 1863.47 563.019  17
   7   8   2 978.089 430.603  16
   7  -8   2 2580.61 569.971  14
  -7  -8  -2 1787.08 479.460  13
   7  -8   2 1904.18 567.672   3
  -7  -8  -3 2891.67 607.667  11
  -7   8  -3 3166.54 681.958   5
  -7  -8  -3 1751.31 522.892  17
   7   8   3 1749.40 473.058  16
   7  -8   3 2121.32 538.639  14
  -7  -8  -3 2297.19 533.119  13
   7  -8   3 2074.36 536.785   3
  -7  -8  -4 343.600 340.643  11
  -7   8  -4-280.978 457.031   5
  -7  -8  -4 174.564 241.398  17
   7   8   4 275.668 268.207  16
   7  -8   4 409.258 304.941  14
  -7  -8  -4 168.355 167.897  13
   7  -8   4-237.396 293.470   3
  -7  -8  -5 877.043 379.263  11
  -7   8  -5 1165.78 488.592   5
  -7  -8  -5 773.645 398.622  17
   7   8   5 855.893 394.139  16
   7  -8   5 1547.75 466.202  14
  -7  -8  -5 778.977 333.258  13
   7  -8   5 767.602 371.944   3
  -7  -8  -6 612.029 331.059  11
  -7   8  -6 722.206 383.260   5
  -7  -8  -6 93.7392 285.377  17
   7   8   6 836.960 445.180  16
   7  -8   6-202.619 274.121  14
   7  -8   6-295.251 322.293   3
  -7  -8  -7 2218.81 584.752  11
  -7   8  -7 3158.09 739.713   5
  -7  -8  -7 2640.30 671.511  17
   7   8   7 2511.58 634.969  16
   7  -8   7 2706.73 658.532  14
   7  -8   7 2935.52 666.279   3
  -7  -8  -8-188.983 229.640  11
  -7   8  -8 191.703 295.349   5
   7   8   8 71.9803 242.312  16
   7  -8   8-81.2807 311.561   3
   7   9 -12 1894.56 568.627   5
   7  -9 -12 2299.70 593.499  10
  -7  -9  12 2629.11 647.793  17
  -7   9  12 2961.75 775.700   1
  -7  -9  12 3271.61 754.816  13
   7   9 -11 270.100 311.461   5
   7  -9 -11 515.748 372.432  10
  -7  -9  11 1212.11 484.582  17
  -7  -9  11 542.295 403.124  13
  -7   9  11 1032.49 517.026   1
   7   9 -10 982.055 429.722   5
   7  -9 -10 939.268 434.153  10
  -7   9  10 1056.24 520.212   1
  -7  -9  10 421.001 251.463  17
  -7  -9  10 427.676 324.417  13
   7   9  -9 2827.47 697.307   5
   7  -9  -9 2238.44 587.007  10
  -7  -9   9 2429.48 584.769  17
  -7   9   9 2506.58 684.673   1
  -7  -9   9 1566.75 501.722  13
   7  -9  -8 7954.17 1040.28  10
  -7  -9   8 10331.8 1170.94  17
  -7  -9   8 8485.84 1074.79  13
   7   9  -8 9088.23 1147.19   5
   7   9  -7 9.04028 347.800   5
   7  -9  -7-39.3789 273.962  10
  -7  -9   7 172.381 356.520  17
  -7   9   7 188.899 395.313   1
   7  -9  -7 76.7354 262.377   3
  -7  -9   7 649.935 449.210  13
  -7  -9   6 15635.4 1411.28  17
  -7  -9   6 16147.0 1481.71   4
   7  -9  -6 15023.4 1317.41   3
  -7  -9   6 16432.4 1431.62  13
   7   9  -6 14483.0 1398.86   5
  -7   9   6 16153.3 1389.21   5
   7   9  -5 708.834 441.597   5
  -7   9   5 491.287 361.656   5
  -7  -9   5 1653.90 497.089  17
  -7  -9   5 1283.42 485.176   4
   7   9  -5 1298.84 444.891   7
   7  -9  -5 603.974 308.584   3
  -7  -9   5 747.031 365.419  13
   7   9  -4 4680.03 776.374   5
  -7   9   4 4651.37 769.330   5
  -7  -9   4 4446.12 776.169  17
  -7  -9   4 5562.74 871.731   4
   7   9  -4 4853.07 795.582   7
  -7  -9   4 5169.36 787.789  13
   7  -9  -4 5064.13 818.124   3
   7   9  -3-445.448 403.624   5
  -7   9   3-434.885 398.470   5
  -7  -9   3-234.920 348.967  17
  -7  -9   3-664.837 408.263   4
   7   9  -3 69.0209 321.049   7
  -7  -9   3-194.534 279.026  13
   7  -9  -3 33.5879 246.131   3
   7   9  -2 4027.53 765.294   5
  -7   9   2 2882.02 631.112   5
  -7  -9   2 3172.13 668.777  17
  -7  -9   2 3832.83 707.270   4
   7   9  -2 4750.42 785.203   7
  -7  -9   2 4813.35 754.916  13
   7  -9  -2 5230.89 834.033   3
   7   9  -1 940.839 439.994   5
  -7  -9   1 328.487 288.996  11
  -7   9   1-269.911 375.917   5
  -7  -9   1 70.1395 199.733  17
  -7  -9   1 469.424 380.795   4
   7   9  -1 498.177 440.741   7
  -7  -9   1-225.599 261.220  13
   7  -9  -1 692.218 407.227   3
   7   9   0 3311.52 700.279   5
  -7  -9   0 4181.23 717.015  11
  -7   9   0 4984.42 859.939   5
  -7  -9   0 4395.49 773.158  17
  -7  -9   0 3774.68 725.107   4
   7   9   0 5774.03 914.682   7
  -7  -9   0 3827.30 676.122  13
   7  -9   0 3919.84 728.815   3
  -7  -9  -1 639.794 329.183  11
  -7   9  -1 231.831 324.598   5
  -7  -9  -1 45.7049 241.000  17
  -7  -9  -1 252.735 280.563   4
  -7  -9  -1 424.745 266.358  13
   7  -9   1 4.47878 323.470   3
   7   9   1 38.0739 349.743   5
  -7  -9  -2 4169.86 736.493  11
  -7   9  -2 3340.85 750.937   5
  -7  -9  -2 4053.54 780.664  17
   7   9   2 4175.69 796.923  16
  -7  -9  -2 3582.14 647.288  13
   7  -9   2 3366.45 702.125   3
  -7  -9  -3 584.649 313.129  11
  -7   9  -3 442.525 377.316   5
  -7  -9  -3-121.976 332.789  17
   7   9   3 188.983 324.464  16
   7  -9   3 225.515 256.957  14
   7  -9   3 470.799 341.628   3
  -7   9  -4 5514.82 967.345   5
  -7  -9  -4 7527.85 1096.05  17
   7   9   4 7935.62 1112.79  16
   7  -9   4 9313.48 1149.93  14
   7  -9   4 7566.88 1042.14   3
  -7  -9  -4 6879.98 957.634  11
  -7  -9  -5 61.7488 264.516  11
  -7   9  -5 179.488 417.544   5
  -7  -9  -5 77.3881 263.692  17
   7   9   5 659.204 445.537  16
   7  -9   5-95.6959 299.735  14
   7  -9   5-91.1311 268.202   3
   7   9   6 6508.36 1019.82  16
   7  -9   6 5968.04 961.032  14
  -7  -9  -6 7433.05 1039.62  11
   7 -10 -10 344.560 331.508  10
  -7 -10  10 211.597 267.505  17
  -7 -10  10-34.0144 285.909  13
   7  10  -9 685.591 410.500   5
   7 -10  -9 995.943 434.940  10
  -7 -10   9 1032.20 428.925  17
  -7 -10   9 2185.05 620.330   4
  -7  10   9 1751.72 593.018   1
  -7 -10   9 1407.42 503.691  13
   7  10  -8-288.595 456.083   5
  -7 -10   8 150.006 260.283  17
  -7 -10   8 1103.90 471.569   4
  -7 -10   8 218.582 313.508  13
  -7  10   8 592.023 451.912   1
   7  10  -7 6292.14 995.313   5
  -7 -10   7 7217.56 1020.76  17
  -7 -10   7 7239.10 1056.25   4
  -7 -10   7 6277.65 944.967  13
   7  10  -6 1259.62 586.188   5
  -7 -10   6 70.7199 255.504  17
  -7 -10   6 510.056 405.008   4
   7 -10  -6 1166.29 463.122   3
  -7 -10   6 612.699 343.569  13
  -7  10   6 86.3941 390.839   1
  -7 -10   5 6597.29 970.513  17
  -7 -10   5 7543.24 1060.71   4
   7 -10  -5 6704.79 943.672   3
  -7 -10   5 6892.72 964.750  13
   7  10  -5 7941.45 1119.81   5
  -7  10   5 8337.71 1082.56   5
   7  10  -4-211.711 373.927   5
  -7  10   4 618.022 410.171   5
  -7 -10   4 369.780 319.295   4
  -7 -10   4-148.810 311.027  17
   7  10  -4 302.034 275.725   7
  -7 -10   4-89.0689 280.447  13
   7 -10  -4 618.949 387.014   3
   7  10  -3 3277.15 750.048   5
  -7  10   3 5177.34 906.988   5
  -7 -10   3 5724.70 893.032  17
  -7 -10   3 5170.62 883.984   4
   7 -10  -3 5944.98 912.565   3
   7  10  -3 4940.25 844.313   7
  -7 -10   3 5373.80 834.102  13
   7  10  -2 1046.22 483.025   5
  -7  10   2 250.768 333.782   5
  -7 -10   2 1673.61 542.587  17
  -7 -10   2 2991.82 695.305   4
   7  10  -2 1613.08 558.804   7
  -7 -10   2 2337.14 575.973  13
   7 -10  -2 892.753 414.227   3
   7  10  -1 4617.35 845.452   5
  -7  10   1 3868.50 816.886   5
  -7 -10   1 3230.96 702.056  17
  -7 -10   1 3570.20 755.016   4
   7  10  -1 4439.96 836.993   7
   7 -10  -1 3430.77 719.263   3
   7  10   0-82.3638 318.688   5
  -7 -10   0-12.9406 250.497  11
  -7  10   0 864.197 548.371   5
  -7 -10   0 208.609 315.604  17
  -7 -10   0-369.457 336.250   4
   7  10   0 655.310 450.998   7
   7 -10   0 242.680 254.918   3
   7  10   1 2407.89 631.467   5
  -7 -10  -1 2063.43 535.138  11
  -7  10  -1 2611.94 699.383   5
  -7 -10  -1 1951.81 571.000  17
   7  10   1 3983.61 857.156   7
   7 -10   1 1998.71 594.335   3
  -7 -10  -2 1270.18 417.783  11
  -7  10  -2 1277.84 553.484   5
  -7 -10  -2 984.764 424.364  17
   7 -10   2 948.313 494.493   3
  -7 -10  -3 3315.02 692.261  11
  -7  10  -3 2694.48 733.209   5
  -7 -10  -3 3215.99 731.691  17
   7  10   3 3756.40 799.471  16
   7 -10   3 3687.74 766.222   3
  -7 -10  -4 566.441 397.736  11
  -7 -11   7 632.914 328.974  13
  -7 -11   6 2669.07 636.204  13
  -7 -11   5 192.389 292.452  17
   7 -11  -5 374.446 341.965   3
  -7  11   4 1803.70 565.975   5
  -7 -11   4 1707.53 525.141  17
   7 -11  -4 1591.36 532.825   3
  -7  11   3 504.302 403.412   5
  -7 -11   3 795.084 424.938  17
   7 -11  -3 694.926 386.777   3
  -7 -11   2 7968.34 1093.21  17
   7 -11  -2 8536.09 1126.31   3
   7  11  -2 5773.43 929.178   7
  -7  11   2 10285.4 1307.64   5
   7  11  -1 1498.60 520.783   7
   8   0 -18 9982.12 1225.59  10
  -8   0  18 9850.85 1219.45  17
  -8   0  18 9225.03 1198.45   6
   8   0 -17-624.100 453.052  10
  -8   0  17-139.536 279.837  17
  -8   0  17-8.69163 240.980   6
   8   0 -16 2946.14 644.260  10
  -8   0  16 2839.73 637.493  17
  -8   0  16 3195.24 703.239   6
   8   0 -15-46.7624 267.618  10
  -8   0  15 206.676 284.284  17
  -8   0  15 682.986 402.809   6
   8   0 -14 4089.28 714.005  10
   8   0 -14 4658.60 720.933   9
  -8   0  14 3519.78 648.323  17
  -8   0  14 3646.04 679.037   6
   8   0 -13-249.680 237.492  10
   8   0 -13-416.141 363.344   9
  -8   0  13 95.9372 229.016  17
  -8   0  13 167.106 236.046  13
  -8   0  13-70.4657 233.841   6
   8   0 -12 22892.7 1462.85  10
   8   0 -12 24543.0 1548.11   9
  -8   0  12 25222.9 1504.61  17
   8   0 -12 24152.8 1471.16   7
  -8   0  12 23612.4 1355.23  13
  -8   0  12 24020.6 1557.74   6
   8   0 -11-62.9565 238.522  10
   8   0 -11-147.728 265.536   9
  -8   0  11 67.8541 179.963  17
   8   0 -11 68.8193 205.978   7
  -8   0  11-117.974 170.005  13
  -8   0  11-51.9482 281.893   6
   8   0 -10 11881.3 966.526  10
   8   0 -10 10351.1 939.864   9
  -8   0  10 11904.0 949.853  17
   8   0 -10 11627.9 984.587   7
  -8   0  10 11704.2 896.406  13
  -8   0  10 12342.5 1044.88   6
   8   0  -9 86.5379 206.516  10
   8   0  -9-199.375 290.135   9
  -8   0   9-139.999 224.245  17
   8   0  -9 39.2655 246.731   7
  -8   0   9 124.838 149.598  13
  -8   0   9 77.5461 215.254   6
   8   0  -8 14659.8 973.954  10
   8   0  -8 16174.5 1082.93   9
  -8   0   8 13596.1 928.351  17
   8   0  -8 13823.9 1030.23   7
  -8   0   8 16128.8 976.366  13
  -8   0   8 14658.1 1050.19   6
   8   0  -7-13.2312 168.616  10
   8   0  -7-138.262 229.834   7
  -8   0   7-116.270 191.597  17
  -8   0   7 66.6808 167.172  13
  -8   0   7 86.1882 176.273   6
   8   0  -6 94436.8 2243.00  10
  -8   0   6 93188.2 2208.83  17
   8   0  -6 94645.6 2607.22   7
  -8   0   6 96937.8 2324.38  13
  -8   0   6 90973.5 2352.54   6
   8   0  -5 223.177 184.746  10
  -8   0   5 94.7040 150.604  17
   8   0  -5 57.0415 228.748   7
  -8   0   5 174.990 182.646  13
  -8   0   5-179.323 200.875   6
  -8   0   5 57.7396 156.617  12
   8   0  -4 26474.6 1122.92  10
  -8   0   4 27036.7 1130.08  17
   8   0  -4 27490.4 1363.26   7
   8   0  -4 23669.0 1104.64  14
  -8   0   4 26457.7 1229.34  13
  -8   0   4 24877.8 1119.57   6
  -8   0   4 26126.0 1134.05  12
   8   0  -3 126.224 126.755  10
  -8   0   3 292.601 183.661  17
  -8   0   3-196.106 234.653   8
   8   0  -3 210.882 199.727  14
   8   0  -3-117.576 246.167   7
  -8   0   3-80.4403 143.464   6
  -8   0   3 91.4209 170.363  12
   8   0  -2 687.208 191.978  10
  -8   0   2 810.422 214.956  17
  -8   0   2 982.426 303.531   8
   8   0  -2 710.480 253.894  14
   8   0  -2 1010.88 326.562   7
  -8   0   2 909.410 227.715   6
  -8   0   2 442.519 181.281  12
  -8   0   1 65.1892 108.485  17
  -8   0   1 354.472 229.067   8
   8   0  -1 266.598 174.918  14
   8   0  -1 291.597 229.533   7
  -8   0   1 23.7672 202.933  12
  -8   0   0 48516.2 1579.94  17
  -8   0   0 48300.0 1801.07   8
   8   0   0 44556.6 1722.53   7
   8   0   0 46389.7 1795.55  14
  -8   0   0 45966.7 1813.96  12
  -8   0  -1-104.858 128.389  17
   8   0   1 222.942 229.012  14
   8   0   1 95.1329 187.585   7
  -8   0  -1-217.139 341.573  12
  -8   0  -2 75536.0 2126.77  17
   8   0   2 77311.1 2272.13   7
   8   0   2 81883.7 2572.17  14
  -8   0  -2 80311.3 2576.46  12
  -8   0  -3 181.674 179.218  17
   8   0   3-109.590 215.902  14
   8   0   3 319.837 272.484   7
  -8   0  -3-161.449 297.761  12
   8   0   4 23355.2 1278.60   7
   8   0   4 24227.1 1515.04  14
  -8   0  -4 23993.8 1526.75  12
   8   0   5 124.984 265.375  14
   8   0   5 295.322 216.292   7
  -8   0  -5 144.398 241.212   2
  -8   0  -5-271.559 369.751  12
  -8   0  -6 8074.11 902.234   2
   8   0   6 9456.77 1063.52  14
  -8   0  -6 8500.70 987.149  12
   8   0   7 162.757 334.976  14
  -8   0  -7 470.521 332.622   2
  -8   0  -7-207.888 323.082  12
  -8   0  -8 5544.65 839.435   2
   8   0   8 5980.68 883.069  14
  -8   0  -8 7782.59 1022.41  12
   8   0   9 542.294 354.380  14
  -8   0  -9-384.279 306.899   2
  -8   0  -9-606.885 494.325  12
   8   0  10 268.071 250.307  14
  -8   0 -10-269.350 349.037   2
  -8   0 -10-162.167 338.161  12
   8   0  11 2.52392 310.903  14
  -8   0 -11-179.712 252.025   2
  -8   0 -11-67.0056 309.145  12
   8   1 -18-133.642 410.384  10
   8  -1 -18-360.356 361.176  10
  -8  -1  18-29.7158 250.722  17
  -8   1  18-174.295 352.759  17
  -8  -1  18 136.938 383.565   6
  -8   1  18-109.975 291.650   6
   8   1 -17 1092.02 474.569  10
   8  -1 -17 1204.73 419.264  10
   8   1 -17 732.950 356.487   9
  -8  -1  17 1339.73 491.186  17
  -8   1  17 644.863 376.430  17
  -8  -1  17 1159.57 449.811   6
  -8   1  17 1516.97 558.333   6
   8   1 -16 2694.90 652.696  10
   8  -1 -16 2048.83 542.955  10
   8   1 -16 771.765 326.394   9
  -8  -1  16 3168.87 674.406  17
  -8   1  16 1627.77 496.883  17
  -8  -1  16 2018.20 519.285  13
  -8  -1  16 2138.34 586.497   6
  -8   1  16 1602.41 552.874   6
   8   1 -15 4178.28 767.235  10
   8  -1 -15 4172.60 749.720  10
   8   1 -15 4324.99 739.838   9
  -8  -1  15 4027.88 723.156  17
  -8   1  15 4912.74 776.820  17
  -8  -1  15 3483.98 661.046  13
  -8  -1  15 4601.22 802.017   6
  -8   1  15 5274.00 862.071   6
   8   1 -14 926.677 393.486  10
   8  -1 -14 904.694 363.470  10
  -8  -1  14 966.097 364.248  17
  -8   1  14 1246.56 418.743  17
   8   1 -14 525.298 259.010   9
  -8  -1  14 623.238 310.766  13
  -8  -1  14 574.029 377.334   6
  -8   1  14 1316.88 492.505   6
   8   1 -13 54935.0 2329.16  10
   8  -1 -13 59010.8 2464.69  10
  -8  -1  13 57029.7 2427.83  17
  -8   1  13 61613.6 2415.42  17
   8   1 -13 55298.0 2210.49   7
   8   1 -13 57922.9 2452.66   9
  -8  -1  13 56636.2 2293.58  13
  -8  -1  13 54435.4 2437.92   6
  -8   1  13 56402.5 2505.76   6
   8   1 -12 4961.09 668.078  10
   8  -1 -12 4031.07 645.238  10
   8   1 -12 3396.65 607.004   9
  -8   1  12 4325.73 640.748  17
  -8  -1  12 3957.84 634.549  17
   8   1 -12 4453.59 639.959   7
  -8  -1  12 5263.00 677.923  13
  -8  -1  12 4129.67 702.909   6
  -8   1  12 4379.41 704.258   6
   8   1 -11 52175.7 2069.09  10
   8  -1 -11 52727.1 2154.94  10
   8   1 -11 44712.5 2035.95   9
  -8  -1  11 46975.1 2016.08  17
  -8   1  11 51001.5 1983.65  17
   8  -1 -11 47454.4 2054.72   7
   8   1 -11 49149.6 1999.23   7
  -8  -1  11 48057.3 1973.67  13
  -8  -1  11 48477.5 2148.27   6
  -8   1  11 46090.6 2106.11   6
   8   1 -10 5902.89 683.849  10
   8  -1 -10 5053.56 670.845  10
   8   1 -10 4720.35 667.588   9
  -8  -1  10 4962.88 672.255  17
  -8   1  10 5098.31 598.650  17
   8   1 -10 5016.77 637.658   7
   8  -1 -10 4867.64 666.146   7
  -8  -1  10 4812.38 610.831  13
  -8   1  10 5802.74 599.851  13
  -8   1  10 6109.56 743.536   6
  -8  -1  10 5327.44 724.061   6
   8   1  -9 36.7214 182.912  10
   8  -1  -9 339.794 287.298  10
  -8  -1   9 114.816 234.338  17
  -8   1   9 5.65074 151.574  17
   8  -1  -9 4.57199 241.155   7
   8   1  -9-11.5081 202.333   7
   8   1  -9 246.201 215.029   9
  -8  -1   9-152.629 208.252  13
  -8   1   9 118.673 146.808  13
  -8  -1   9 141.346 267.331   6
   8   1  -8-165.780 188.673  10
   8  -1  -8 72.3448 210.818  10
   8   1  -8 264.842 240.601   9
  -8  -1   8 396.587 228.313  17
  -8   1   8-113.745 164.139  17
   8  -1  -8 155.670 250.674   7
   8   1  -8 19.8165 214.324   7
  -8  -1   8 217.966 207.567  13
  -8   1   8 177.781 167.489  13
  -8  -1   8-90.9844 212.509   6
  -8   1   8 276.570 261.621   6
   8   1  -7 5445.11 558.401  10
   8  -1  -7 6137.54 650.066  10
   8   1  -7 6509.19 681.559   9
  -8  -1   7 6061.80 638.694  17
  -8   1   7 6399.49 584.345  17
   8  -1  -7 6071.35 709.576   7
   8   1  -7 5496.11 646.219   7
  -8  -1   7 5887.47 616.929  13
  -8   1   7 6492.14 576.425  13
  -8  -1   7 5970.60 663.494   6
  -8   1   7 6597.34 677.200   6
   8   1  -6 21999.1 1043.32  10
   8  -1  -6 22640.5 1159.25  10
   8   1  -6 20474.4 1137.11   9
  -8  -1   6 21756.1 1151.97  17
  -8   1   6 21772.4 1010.16  17
   8  -1  -6 22952.9 1305.97   7
   8   1  -6 23636.2 1289.95   7
  -8   1   6 22093.7 1081.55  13
  -8  -1   6 21826.6 1227.71  13
  -8  -1   6 22807.4 1207.70   6
  -8   1   6 22137.9 1161.58   6
  -8  -1   6 20959.8 932.819  12
   8   1  -5 98730.6 2099.42  10
   8  -1  -5 96937.0 2350.55  10
   8   1  -5 101350. 2406.64   9
  -8  -1   5 101768. 2395.45  17
  -8   1   5 100403. 2051.64  17
   8  -1  -5 99581.1 2685.55   7
   8   1  -5 100234. 2634.17   7
   8  -1  -5 100883. 2092.14  14
  -8   1   5 103016. 2279.10  13
  -8  -1   5 103757. 2539.73  13
  -8  -1   5 99813.2 2390.37   6
  -8   1   5 99353.5 2325.35   6
  -8   1   5 97161.9 2098.51  12
  -8  -1   5 96964.8 2113.30  12
   8   1  -4 11290.4 684.359  10
   8  -1  -4 10881.7 768.369  10
  -8   1   4 10523.6 658.240  17
  -8  -1   4 12376.4 825.449  17
   8  -1  -4 12453.5 935.806   7
   8   1  -4 10387.8 878.031   7
   8  -1  -4 11193.5 732.969  14
  -8  -1   4 11469.0 861.148  13
  -8  -1   4 10255.9 743.381   6
  -8   1   4 11517.1 751.717   6
  -8   1   4 11535.6 780.687  12
  -8  -1   4 11996.6 797.005  12
   8   1  -3 58163.9 1463.67  10
   8  -1  -3 55823.5 1704.44  10
  -8   1   3 55162.7 1458.73  17
  -8  -1   3 55602.8 1753.67  17
  -8   1   3 57689.3 1953.64   8
  -8  -1   3 55404.1 1790.40   8
   8  -1  -3 56737.3 1936.20   7
   8   1  -3 56647.8 1963.64   7
   8  -1  -3 55261.6 1690.72  14
   8   1  -3 54284.6 1799.25  14
  -8  -1   3 54131.8 1646.16   6
  -8   1   3 56077.0 1540.16   6
  -8   1   3 56426.4 1784.57  12
  -8  -1   3 55051.5 1767.77  12
   8  -1  -2 17024.5 934.247  10
  -8   1   2 17084.2 809.150  17
  -8  -1   2 16926.0 967.565  17
  -8  -1   2 15906.0 956.647   8
  -8   1   2 17368.7 1070.20   8
   8  -1  -2 18543.9 1103.43   3
   8  -1  -2 16468.6 1048.51   7
   8   1  -2 15912.5 1054.46   7
   8  -1  -2 17480.5 1011.55  14
   8   1  -2 16932.9 1038.74  14
  -8   1   2 15875.9 758.981   6
  -8   1   2 17167.3 1033.14  12
  -8  -1   2 15558.0 996.933  12
  -8   1   1 17249.9 830.741  17
  -8  -1   1 16934.2 1005.79   8
  -8   1   1 18718.8 1138.63   8
   8  -1  -1 19500.0 1118.63   3
   8  -1  -1 17953.1 1099.14   7
   8   1  -1 16991.9 1084.31   7
   8  -1  -1 18890.5 1088.98  14
   8   1  -1 18569.2 1116.80  14
  -8   1   1 17875.3 1106.06  12
  -8  -1   1 17026.8 987.902  17
  -8  -1   1 18037.5 1103.95  12
   8  -1   0 15765.9 825.431  18
  -8  -1   0 15050.8 960.638  17
  -8  -1   0 16299.8 1008.70   8
  -8   1   0 15749.8 1090.72   8
   8  -1   0 15607.8 1001.17   3
   8  -1   0 15662.5 1014.84   7
   8   1   0 15573.9 1052.76   7
   8  -1   0 16248.4 1050.48  14
   8   1   0 16648.3 1105.20  14
  -8   1   0 15660.7 1065.05  12
  -8  -1   0 15804.0 1091.40  12
   8  -1   1 29073.1 1208.23  18
  -8  -1  -1 28242.8 1338.41  17
   8  -1   1 30535.7 1375.96   3
   8  -1   1 28752.3 1361.55   7
   8   1   1 25656.2 1344.34   7
   8  -1   1 29144.5 1479.93  14
   8   1   1 29407.6 1508.70  14
  -8   1  -1 29759.0 1540.90  12
  -8  -1  -1 29162.9 1528.12  12
   8  -1   2 677.788 228.895  18
  -8  -1  -2 364.843 219.383  17
   8  -1   2 914.543 396.633  14
   8   1   2 529.601 276.289  14
   8  -1   2 586.352 264.108   7
   8   1   2 431.613 201.432   7
   8  -1   2 1096.41 301.757   3
  -8   1  -2 1046.89 299.305   2
  -8   1  -2 787.391 313.124  12
  -8  -1  -2 462.590 291.983  12
  -8  -1  -3 2675.91 460.000  17
   8  -1   3 3312.90 479.303   3
   8  -1   3 3576.98 629.863  14
   8   1   3 3196.46 554.148  14
   8  -1   3 3068.51 471.859  18
   8  -1   3 3122.30 463.187   7
   8   1   3 2715.14 475.862   7
  -8   1  -3 2465.20 435.039   2
  -8   1  -3 3589.12 625.333  12
  -8  -1  -3 3316.80 615.151  12
  -8   1  -4 9388.38 855.679   2
   8  -1   4 8378.56 802.832  18
  -8  -1  -4 8737.65 840.809  17
   8  -1   4 9522.72 774.162   3
   8   1   4 9133.51 833.815   7
   8  -1   4 9726.87 999.410  14
   8   1   4 8829.84 942.608  14
   8   1   4 8425.32 793.366   1
  -8   1  -4 11170.1 1064.57  12
  -8  -1  -4 9907.12 1004.50  12
   8  -1   4 9092.42 767.423   7
   8  -1   5 4449.60 638.009  18
   8  -1   5 4238.92 695.956  14
   8   1   5 4350.72 704.752  14
   8   1   5 4664.00 615.822   7
   8   1   5 2958.33 565.106   1
  -8   1  -5 3258.83 534.772   2
  -8   1  -5 3893.41 699.969  12
  -8  -1  -5 4367.34 715.701  12
   8  -1   6 188.085 235.892  18
   8  -1   6 195.503 252.326  14
   8   1   6-27.8343 276.869  14
   8   1   6 295.580 243.027   7
   8   1   6 167.863 186.381   1
  -8   1  -6 284.569 248.761   2
  -8   1  -6 711.369 385.590  12
  -8  -1  -6 176.640 315.373  12
  -8   1  -7 27919.8 1707.23   2
  -8  -1  -7 29152.9 1795.50   2
   8  -1   7 28067.1 1709.53  18
   8  -1   7 29436.6 1873.66  14
   8   1   7 29126.6 1833.62  14
  -8   1  -7 32839.6 1978.50  12
   8   1   7 23982.8 1620.09   1
  -8  -1  -7 32695.5 1976.07  12
   8  -1   8 1696.54 470.459  18
   8  -1   8 2277.93 604.997  14
   8   1   8 1461.17 484.719  14
  -8   1  -8 1840.80 504.339   2
   8   1   8 991.881 405.426   1
  -8  -1  -8 1315.35 453.821   2
  -8   1  -8 1405.77 454.534  12
  -8  -1  -8 1727.77 517.387  12
  -8   1  -9 11250.2 1197.75   2
  -8  -1  -9 10121.4 1148.92   2
   8  -1   9 7906.26 1026.87  18
   8  -1   9 12823.0 1315.94  14
   8   1   9 8849.62 1107.29  14
  -8   1  -9 10083.1 1175.29  12
   8   1   9 7277.05 949.024   1
  -8  -1  -9 10694.5 1223.95  12
   8  -1  10-15.9711 309.214  18
   8  -1  10 4.83071 314.346  14
   8   1  10-31.5127 256.612  14
  -8   1 -10-262.242 285.423   2
   8   1  10-59.6574 290.059   1
  -8  -1 -10 306.116 340.096   2
  -8   1 -10-168.032 335.266  12
  -8  -1 -10-107.981 312.794  12
   8  -1  11 371.414 298.075  18
   8  -1  11 469.900 320.815  14
   8   1  11 1329.89 481.067  14
  -8   1 -11 557.473 370.456   2
   8   1  11 72.4341 231.682   1
  -8  -1 -11 859.729 450.909   2
  -8   1 -11 729.219 396.033  12
  -8  -1 -11 809.115 416.457  12
   8   2 -18 10609.0 1263.29  10
   8  -2 -18 11541.8 1350.24  10
  -8  -2  18 9628.40 1244.96  17
   8   2 -18 8601.05 1104.73   9
  -8  -2  18 9097.07 1158.47  13
  -8  -2  18 10460.8 1242.17   6
  -8   2  18 10209.4 1289.27   6
   8   2 -17 533.730 344.577  10
   8  -2 -17-535.980 457.854  10
   8   2 -17-109.018 252.312   9
  -8  -2  17-274.442 327.238  17
  -8  -2  17 159.778 315.664  13
  -8  -2  17-278.416 334.171   6
  -8   2  17-176.595 302.386   6
   8   2 -16 8482.94 1056.54  10
   8  -2 -16 6245.89 935.532  10
   8   2 -16 5998.34 896.194   9
  -8  -2  16 7270.33 1011.87  17
  -8  -2  16 6889.68 951.219  13
  -8  -2  16 7378.75 1019.90   6
  -8   2  16 6106.44 943.816   6
   8   2 -15 170.269 319.161  10
   8  -2 -15-293.278 409.685  10
   8   2 -15-232.339 401.857   9
  -8  -2  15 76.7276 241.562  17
  -8  -2  15 155.512 268.976  13
  -8  -2  15-102.922 296.553   6
  -8   2  15-159.236 341.605   6
   8   2 -14 6280.61 843.785  10
   8  -2 -14 2964.30 638.067  10
   8   2 -14 3576.20 668.358   9
  -8  -2  14 4081.54 727.399  17
  -8  -2  14 3863.40 693.366  13
  -8  -2  14 4586.06 771.384   6
  -8   2  14 3211.85 657.241   6
   8   2 -13 330.979 262.764  10
   8  -2 -13 395.704 344.686  10
   8   2 -13-60.8563 333.076   9
  -8  -2  13 490.996 294.686  17
   8   2 -13 376.623 258.617   7
  -8  -2  13 429.181 275.681  13
  -8  -2  13 167.455 302.535   6
  -8   2  13-24.8342 271.456   6
   8   2 -12 9850.30 947.846  10
   8  -2 -12 8860.80 978.185  10
   8   2 -12 8158.19 912.621   9
  -8  -2  12 9589.00 1001.20  17
  -8   2  12 8922.75 867.177  17
   8   2 -12 6865.71 792.070   7
  -8  -2  12 10023.4 978.235  13
  -8  -2  12 9866.27 1039.81   6
  -8   2  12 9769.04 1024.46   6
   8   2 -11 6895.84 765.479  10
   8  -2 -11 7301.81 848.630  10
   8   2 -11 5622.47 739.636   9
  -8  -2  11 5939.10 774.202  17
  -8   2  11 6494.94 704.895  17
   8   2 -11 5846.35 689.565   7
  -8  -2  11 5746.30 733.561  13
  -8  -2  11 6552.67 819.990   6
  -8   2  11 6067.63 795.014   6
   8   2 -10 15917.2 1106.34  10
   8  -2 -10 17216.8 1221.58  10
   8   2 -10 16430.6 1192.46   9
  -8  -2  10 14408.2 1121.39  17
  -8   2  10 16194.3 1032.51  17
   8  -2 -10 14164.7 1151.37   7
   8   2 -10 14930.9 1076.13   7
  -8  -2  10 14176.7 1146.72  13
  -8  -2  10 14868.8 1176.57   6
  -8   2  10 17602.2 1272.61   6
   8   2  -9 1079.18 295.705  10
   8  -2  -9 1659.07 410.148  10
   8   2  -9 1379.28 384.417   9
  -8  -2   9 2191.53 463.486  17
  -8   2   9 1968.42 359.520  17
   8  -2  -9 1137.43 347.485   7
   8   2  -9 1555.21 367.297   7
  -8  -2   9 1557.35 355.000  13
  -8  -2   9 1813.70 426.737   6
  -8   2   9 2058.07 462.689   6
  -8   2   9 1592.32 327.074   1
   8   2  -8 40988.1 1540.27  10
   8  -2  -8 43595.6 1805.07  10
   8   2  -8 41641.7 1754.97   9
  -8  -2   8 39139.0 1713.30  17
  -8   2   8 39923.2 1438.76  17
   8  -2  -8 38898.5 1820.93   7
   8   2  -8 37782.6 1670.91   7
  -8   2   8 37037.5 1437.20   1
  -8  -2   8 43228.8 1789.65  13
  -8  -2   8 41745.7 1810.05   6
  -8   2   8 40560.0 1752.61   6
   8   2  -7 3770.72 455.651  10
   8  -2  -7 3320.40 493.274  10
   8   2  -7 3079.73 486.204   9
  -8  -2   7 3611.19 519.392  17
   8  -2  -7 3850.50 600.670   7
  -8   2   7 3385.05 430.763   1
   8   2  -7 3433.71 524.855   7
  -8  -2   7 4565.45 597.213  13
  -8  -2   7 3163.08 543.957   6
  -8   2   7 3651.25 510.946   6
   8   2  -6 56304.4 1603.71  10
   8  -2  -6 54385.9 1899.97  10
   8   2  -6 52951.1 1836.20   9
  -8  -2   6 53902.0 1893.93  17
   8  -2  -6 55691.9 2062.61   7
   8   2  -6 55340.4 1972.38   7
  -8  -2   6 53877.5 1945.18  13
  -8   2   6 52797.8 1514.49  13
  -8  -2   6 53237.1 1908.29   6
  -8   2   6 52625.2 1830.66   6
  -8  -2   6 55040.2 1571.48  12
   8   2  -5 9077.83 598.317  10
   8  -2  -5 9543.42 801.832  10
   8   2  -5 8793.04 725.814   9
  -8  -2   5 10128.6 831.604  17
   8  -2  -5 9817.18 873.262   7
   8   2  -5 9728.68 843.106   7
   8  -2  -5 9008.78 610.111  14
  -8   2   5 9561.70 653.946  13
  -8  -2   5 10023.0 854.979  13
  -8  -2   5 8912.28 768.576   6
  -8   2   5 9664.26 745.499   6
  -8   2   5 9101.61 672.924  12
  -8  -2   5 9204.74 693.464  12
   8  -2  -4 11415.4 842.174  10
   8   2  -4 10812.5 769.775   9
  -8  -2   4 9759.36 811.334  17
   8  -2  -4 12010.5 949.235   3
   8  -2  -4 10856.4 906.127   7
   8   2  -4 10146.0 866.826   7
   8  -2  -4 10577.1 700.076  14
  -8  -2   4 10705.2 866.102  13
  -8   2   4 11109.7 740.404   6
  -8   2   4 10497.2 760.087  12
  -8  -2   4 10210.6 757.005  12
   8  -2  -3 1230.86 269.017  10
   8   2  -3 1036.43 240.007   9
  -8  -2   3 743.301 274.072  17
  -8   2   3 867.059 269.074   8
  -8  -2   3 1184.68 262.946   8
   8  -2  -3 1243.12 333.298   7
   8  -2  -3 1170.43 269.871  14
   8   2  -3 1045.32 342.618   7
   8  -2  -3 1133.00 375.037   3
  -8   2   3 1112.71 237.152   6
  -8   2   3 1152.18 295.331  12
  -8  -2   3 1211.84 301.301  12
   8  -2  -2 5691.94 597.808  10
   8   2  -2 5543.33 493.272   9
  -8  -2   2 5898.44 616.311  17
  -8  -2   2 5665.62 567.113   8
  -8   2   2 5359.77 625.493   8
   8  -2  -2 6190.37 661.958   3
   8  -2  -2 6153.62 669.096   7
   8  -2  -2 6065.94 590.744  14
   8   2  -2 5273.35 622.784   7
  -8   2   2 5454.00 610.494  12
  -8  -2   2 6008.84 643.290  12
  -8  -2   1 132.239 163.994   8
  -8   2   1 253.052 278.098   8
   8  -2  -1-22.4028 199.384  14
   8  -2  -1 40.6758 172.854   7
   8   2  -1 477.267 290.566  14
   8   2  -1-395.341 358.317   7
   8  -2  -1 527.376 298.916   3
  -8  -2   1 51.3530 190.612  17
  -8   2   1 123.932 215.563  12
  -8  -2   1 452.543 277.454  12
   8  -2   0 82554.6 1954.74  18
  -8  -2   0 80902.7 2341.58  17
  -8   2   0 80097.2 2514.62   8
   8  -2   0 82250.1 2289.19   7
   8  -2   0 81469.8 2373.45   3
   8   2   0 75056.7 2357.95   7
   8  -2   0 76766.0 2297.09  14
   8   2   0 84633.5 2524.00  14
  -8   2   0 78149.7 2426.45  12
  -8  -2   0 77995.8 2447.55  12
   8  -2   1 8280.22 667.754  18
  -8  -2  -1 7781.99 755.595  17
   8  -2   1 7201.97 683.710   7
   8  -2   1 7666.76 758.543   3
   8   2   1 7212.20 742.773   7
   8  -2   1 7899.75 791.131  14
   8   2   1 9281.96 892.168  14
  -8   2  -1 7799.36 830.022  12
  -8  -2  -1 8154.42 845.353  12
   8  -2   2 55348.6 1845.68  18
  -8  -2  -2 53408.2 2003.32  17
   8  -2   2 55833.5 1862.73   7
   8  -2   2 52925.6 1915.01   3
   8   2   2 52220.5 2024.26   7
   8  -2   2 57231.8 2162.99  14
   8   2   2 56387.5 2183.24  14
  -8   2  -2 56322.2 2208.66  12
  -8  -2  -2 57968.4 2250.18  12
  -8   2  -3 5942.77 632.080   2
   8  -2   3 7064.24 720.192  18
  -8  -2  -3 6744.06 753.012  17
   8  -2   3 7204.83 676.169   7
   8  -2   3 6575.01 691.407   3
   8   2   3 6561.28 744.517   7
   8  -2   3 7756.68 848.862  14
   8   2   3 7652.12 863.598  14
  -8   2  -3 8170.34 882.650  12
   8   2   3 6700.94 659.076   1
  -8  -2  -3 7323.55 867.890  12
   8  -2   4 393.644 234.492  18
  -8  -2  -4 240.015 255.778  17
   8  -2   4 119.479 262.385  14
   8   2   4 74.4193 279.345  14
   8   2   4 377.352 281.058   7
  -8   2  -4 298.086 198.542   2
   8  -2   4 2.02364 167.275   3
   8   2   4 112.981 165.549   1
  -8   2  -4 131.118 333.073  12
  -8  -2  -4 354.386 326.678  12
  -8   2  -5 7344.58 798.859   2
   8  -2   5 7178.04 799.207  18
  -8  -2  -5 7331.12 845.904  17
   8   2   5 7324.00 796.518   7
   8  -2   5 6898.79 877.826  14
   8   2   5 6885.52 856.607  14
  -8   2  -5 8181.39 991.448  12
  -8  -2  -5 7603.38 924.021  12
   8   2   5 5600.47 702.923   1
  -8   2  -6 7403.27 847.253   2
   8  -2   6 5579.36 763.513  18
   8   2   6 5208.47 706.418   7
   8   2   6 6656.27 873.480  14
   8  -2   6 5540.85 828.644  14
  -8   2  -6 6562.01 890.340  12
  -8  -2  -6 6138.20 887.517  12
   8   2   6 4668.11 714.619   1
   8  -2   7 2525.39 548.874  18
   8  -2   7 4044.05 743.715  14
   8   2   7 3015.64 648.980  14
  -8   2  -7 2605.37 555.508   2
   8   2   7 2708.29 547.479   1
  -8   2  -7 2892.88 644.110  12
  -8  -2  -7 2267.55 577.864  12
  -8   2  -8 20725.3 1536.42   2
   8  -2   8 17491.3 1423.65  18
   8  -2   8 22174.7 1691.15  14
   8   2   8 18167.1 1517.06  14
  -8   2  -8 20216.1 1612.71  12
  -8  -2  -8 20996.9 1633.84  12
   8   2   8 19413.9 1463.82   1
   8  -2   9 1710.20 563.285  18
   8  -2   9 1583.55 493.603  14
   8   2   9 2270.06 579.810  14
  -8   2  -9 1486.52 464.020   2
   8   2   9 873.426 430.767   1
  -8  -2  -9 2493.24 648.531   2
  -8   2  -9 1262.89 497.745  12
  -8  -2  -9 1906.06 606.309  12
   8  -2  10 2917.05 667.490  18
   8  -2  10 3167.96 709.691  14
   8   2  10 3639.84 709.630  14
  -8   2 -10 4160.45 781.540   2
   8   2  10 2799.31 663.799   1
  -8  -2 -10 3953.66 779.610   2
  -8   2 -10 3616.93 749.496  12
  -8  -2 -10 3859.67 779.005  12
   8  -2  11 1569.85 526.094  18
   8  -2  11 1710.31 538.185  14
  -8   2 -11 564.133 382.071   2
   8   2  11 1278.80 475.069  14
   8   2  11 1111.45 430.662   1
  -8  -2 -11 515.011 339.547   2
  -8   2 -11 1479.50 513.036  12
  -8  -2 -11 1779.11 554.903  12
   8   3 -18 156.927 332.525  10
   8   3 -18-54.9043 257.340   9
  -8   3  18 150.035 249.875  15
  -8  -3  18-273.822 300.177  13
  -8  -3  18 82.7571 283.431   6
   8   3 -17 9238.93 1164.68  10
   8  -3 -17 6732.10 1003.31  10
  -8  -3  17 7052.40 1065.00  17
  -8   3  17 9329.56 1185.21  15
   8   3 -17 6949.06 986.068   9
  -8  -3  17 7704.51 1078.93   6
  -8   3  17 7703.36 1092.64   6
  -8  -3  17 6514.67 994.074  13
   8   3 -16 26.7787 303.583  10
   8  -3 -16 50.8906 264.987  10
   8   3 -16-496.740 273.789   9
  -8  -3  16-117.544 234.917  17
  -8   3  16 567.288 381.515  15
  -8  -3  16 381.484 375.070  13
  -8  -3  16-164.012 390.737   6
  -8   3  16 99.2959 328.504   6
   8   3 -15 1168.14 458.837  10
   8  -3 -15 958.462 448.251  10
   8   3 -15 682.701 352.448   9
  -8  -3  15 924.267 443.307  17
  -8   3  15 384.385 265.387  15
  -8  -3  15 829.026 382.617  13
  -8  -3  15 650.085 408.469   6
  -8   3  15 1960.69 556.972   6
   8   3 -14 834.341 400.287  10
   8  -3 -14 782.540 412.258  10
   8   3 -14 598.482 328.131   9
  -8  -3  14 1009.53 392.162  17
  -8  -3  14 1405.39 472.784  13
  -8  -3  14 1492.73 518.510   6
  -8   3  14 576.334 413.786   6
   8   3 -13 4222.09 677.367  10
   8  -3 -13 3629.04 672.753  10
   8   3 -13 2251.04 564.680   9
  -8  -3  13 2834.70 616.100  17
  -8  -3  13 3041.32 605.780  13
  -8  -3  13 3129.31 679.001   6
  -8   3  13 2018.75 585.948   6
   8   3 -12-110.916 211.535  10
   8  -3 -12 86.6529 357.693  10
  -8   3  12-229.155 282.602   1
   8   3 -12-334.435 220.735   2
   8   3 -12 34.6727 304.951   9
  -8  -3  12 87.5226 320.507  17
   8   3 -12 166.775 243.734   7
  -8  -3  12 350.796 321.759  13
  -8  -3  12 241.136 287.999   6
  -8   3  12 223.535 247.464   6
   8   3 -11 19633.2 1263.33  10
   8  -3 -11 20538.8 1416.11  10
   8   3 -11 17496.8 1322.91   9
  -8  -3  11 17059.5 1322.77  17
  -8   3  11 18105.2 1189.63   1
   8   3 -11 17731.6 1189.02   7
  -8  -3  11 17907.9 1327.30  13
  -8  -3  11 17677.0 1365.15   6
   8   3 -10 1103.96 365.395  10
   8  -3 -10 959.137 349.265  10
   8   3 -10 576.056 343.321   9
  -8  -3  10 1378.01 416.729  17
   8   3 -10 471.094 233.004   7
  -8  -3  10 75.7102 248.256  13
  -8  -3  10 405.339 295.470   6
  -8   3  10 681.682 285.238   1
   8   3  -9 25458.4 1298.37  10
   8  -3  -9 32201.1 1662.91  10
   8   3  -9 25597.7 1500.14   9
  -8  -3   9 28160.4 1583.63  17
   8   3  -9 27601.7 1448.97   7
  -8   3   9 25501.8 1337.79   1
  -8  -3   9 28156.1 1569.06  13
  -8  -3   9 25624.1 1540.21   6
   8   3  -8 3394.87 468.202  10
  -8   3   8 2541.12 434.335   1
   8  -3  -8 3839.27 587.659  10
   8   3  -8 3014.55 532.365   9
  -8  -3   8 3120.85 568.684  17
   8  -3  -8 3563.70 612.784   7
   8   3  -8 3265.20 523.467   7
  -8  -3   8 3550.04 606.065  13
  -8  -3   8 3508.75 605.243   6
   8   3  -7 70337.2 1874.16  10
   8  -3  -7 73417.4 2382.73  10
   8   3  -7 65152.8 2194.41   9
  -8  -3   7 73454.8 2391.86  17
   8  -3  -7 68225.0 2421.16   7
   8   3  -7 67369.8 2238.69   7
  -8  -3   7 72056.6 2404.94  13
  -8   3   7 68382.9 2134.99   1
  -8  -3   7 68308.6 2337.67   6
   8  -3  -6-183.319 261.669  10
   8   3  -6 16.8131 201.361   9
  -8  -3   6 98.2249 243.657  17
   8  -3  -6 87.4267 230.997   7
   8   3  -6-146.953 211.474   7
   8  -3  -6-150.541 241.568   3
  -8  -3   6-160.537 235.358  13
  -8  -3   6 87.3125 138.845  12
   8  -3  -5 40475.6 1711.50  10
   8   3  -5 41102.1 1569.70   9
  -8  -3   5 40523.9 1739.09  17
   8  -3  -5 41069.4 1782.32   7
   8  -3  -5 42089.8 1777.83   3
   8   3  -5 40385.2 1741.51   7
  -8  -3   5 39838.6 1747.45  13
  -8   3   5 39433.8 1478.03  12
  -8  -3   5 40998.3 1515.38  12
   8  -3  -4 23215.0 1272.10  10
   8   3  -4 23823.3 1153.51   9
  -8  -3   4 21098.6 1239.31  17
  -8   3   4 20567.1 1262.08   8
   8  -3  -4 24970.0 1360.54   7
   8  -3  -4 23864.2 1359.07   3
   8   3  -4 23957.7 1349.17   7
   8  -3  -4 23340.8 1022.80  14
  -8  -3   4 23960.1 1357.25  13
  -8   3   4 22078.5 1081.47   6
  -8   3   4 23073.8 1186.46  12
  -8  -3   4 22675.7 1174.73  12
   8  -3  -3 125.950 183.016  10
   8   3  -3 36.7743 136.725   9
  -8  -3   3-19.5520 191.661  17
  -8  -3   3 148.681 134.806   8
  -8   3   3 176.047 232.630   8
   8  -3  -3 162.434 207.662   7
   8  -3  -3 23.3597 128.028  14
   8   3  -3-701.866 393.638   7
   8  -3  -3 80.5035 239.074   3
  -8  -3   3 154.986 219.216  13
  -8   3   3 121.593 132.019   6
  -8   3   3 7.34910 171.923  12
  -8  -3   3 0.00000 189.877  12
  -8  -3   2 1786.84 398.301  17
   8  -3  -2 1159.35 332.757  10
   8   3  -2 1185.73 262.693   9
  -8  -3   2 1154.68 263.894   8
  -8   3   2 1396.17 341.001   8
   8  -3  -2 1105.05 315.182   7
   8  -3  -2 2091.09 378.950  14
   8   3  -2 557.415 275.512   7
   8  -3  -2 1305.60 398.669   3
  -8   3   2 1046.22 318.976  12
  -8  -3   2 1671.12 394.462  12
  -8  -3   1 10843.5 909.493  17
  -8  -3   1 12111.0 774.830   8
  -8   3   1 12274.5 1016.08   8
   8  -3  -1 11432.2 876.995   7
   8  -3  -1 11591.9 941.067   3
   8   3  -1 10238.8 929.774   7
   8  -3  -1 11777.2 871.409  14
  -8   3   1 10497.3 897.678  12
  -8  -3   1 10520.0 898.092  12
  -8  -3   0 14168.5 1055.05  17
  -8   3   0 14986.7 1147.44   8
   8  -3   0 13886.5 947.999   7
   8  -3   0 13554.8 1038.27   3
   8   3   0 12577.0 1019.24   7
   8  -3   0 13533.8 989.555  14
  -8   3   0 13007.9 1049.21  12
  -8  -3   0 16705.7 1170.35  12
  -8  -3  -1 62265.0 2230.28  17
   8  -3   1 61252.4 1958.91   7
   8  -3   1 59035.7 2140.79   3
   8  -3   1 62964.0 2206.26  14
   8   3   1 58286.4 2182.63   7
   8   3   1 67447.5 2404.50  14
  -8   3  -1 59029.0 2261.15  12
  -8  -3  -1 62902.3 2324.86  12
   8  -3   2 629.980 257.455  18
  -8  -3  -2 1296.80 391.775  17
   8   3   2 1284.20 309.422  16
   8  -3   2 789.933 354.686  14
   8  -3   2 1401.80 317.146   7
   8   3   2 969.811 394.356  14
   8   3   2 735.264 347.609   7
   8  -3   2 792.470 318.318   3
  -8   3  -2 568.595 372.433  12
  -8  -3  -2 1086.96 405.938  12
   8  -3   3 31103.9 1523.98  18
  -8  -3  -3 33875.4 1742.23  17
   8  -3   3 32749.9 1612.87   3
   8  -3   3 34528.2 1798.46  14
   8   3   3 30383.5 1622.37   7
   8   3   3 32065.8 1750.98  14
  -8   3  -3 30496.4 1744.07  12
  -8  -3  -3 33395.5 1830.87  12
   8  -3   4 1155.65 348.202  18
  -8  -3  -4 1416.50 435.938  17
   8  -3   4 1672.26 471.329  14
   8   3   4 1213.73 444.408  14
   8   3   4 1473.35 440.460   7
   8  -3   4 1462.30 374.758   3
  -8   3  -4 1918.08 550.784  12
  -8  -3  -4 744.261 344.162  12
   8  -3   5 3253.63 548.641  18
  -8  -3  -5 3876.08 673.549  17
   8  -3   5 3977.24 684.976  14
   8   3   5 3552.14 641.258  14
   8   3   5 4652.68 676.980   7
   8  -3   5 3033.38 511.338   3
  -8   3  -5 3066.30 621.685  12
  -8  -3  -5 3191.40 636.552  12
   8  -3   6-275.136 275.012  18
   8  -3   6 14.3234 258.569  14
  -8   3  -6-216.196 252.882   2
   8   3   6-51.2920 344.992  14
   8   3   6 44.3224 245.847   7
   8   3   6-91.9499 182.043   1
  -8   3  -6 13.1127 278.525  12
  -8  -3  -6-165.141 341.200  12
  -8  -3  -7 3576.42 621.616  11
   8  -3   7 2880.28 585.164  18
  -8   3  -7 3293.89 632.085   5
   8  -3   7 3710.17 720.839  14
  -8   3  -7 3439.24 634.010   2
   8   3   7 4110.31 734.366  14
   8   3   7 5075.97 747.725   7
   8   3   7 3478.15 617.914   1
  -8   3  -7 2914.89 675.914  12
  -8  -3  -7 4943.26 837.884  12
  -8  -3  -8 561.791 335.186  11
   8  -3   8-157.504 245.673  18
  -8   3  -8 203.060 214.497   5
  -8   3  -8 600.210 358.592   2
   8  -3   8 97.2461 265.582  14
   8   3   8 40.2910 258.953  14
   8   3   8 669.114 356.735   1
  -8   3  -8 647.719 479.871  12
  -8  -3  -8 288.880 361.914  12
  -8   3  -9 5177.12 818.834   2
   8  -3   9 4714.63 785.073  18
   8  -3   9 5558.61 909.791  14
   8   3   9 5474.66 866.818  14
   8   3   9 4695.45 780.268   1
  -8   3  -9 6353.33 982.381  12
  -8  -3  -9 6417.44 976.565  12
  -8  -3  -9 5616.68 842.878  11
  -8  -3 -10-3.66025 229.599  11
   8  -3  10 111.190 249.094  18
  -8   3 -10 547.891 384.652   2
   8  -3  10-43.3243 283.322  14
   8   3  10 86.8967 259.663  14
  -8  -3 -10 615.083 439.544   2
   8   3  10-359.319 340.702   1
  -8   3 -10 388.470 453.546  12
  -8  -3 -10-57.1958 292.545  12
  -8  -3 -11 1058.83 434.661  11
  -8   3 -11 2323.51 599.990   2
   8   3  11 1833.95 571.906  14
   8   3  11 1273.93 488.562   1
  -8   3 -11 1792.18 594.332  12
  -8  -3 -11 916.930 469.131  12
   8   4 -17 1666.07 541.657  10
   8  -4 -17 1449.95 532.995  10
   8   4 -17 1224.86 463.859   9
  -8  -4  17 1493.22 566.532  17
  -8   4  17 1416.33 496.474  15
  -8  -4  17 1264.35 505.101   6
  -8  -4  17 1895.14 598.388  13
  -8   4  17 1063.64 478.489   6
   8  -4 -16 4588.89 831.082  10
   8   4 -16 3730.44 752.789   9
  -8  -4  16 4203.94 798.195  17
  -8   4  16 6644.04 979.050  15
  -8  -4  16 4978.18 884.646  13
  -8  -4  16 5596.17 915.246   6
  -8   4  16 3934.02 809.108   6
   8  -4 -15-515.055 399.598  10
  -8  -4  15-80.2797 263.246  17
  -8   4  15 400.774 256.072  15
   8   4 -15 72.1940 335.642   9
  -8  -4  15 28.2068 293.001  13
  -8  -4  15-51.2747 279.132   6
  -8   4  15 190.640 339.581   6
   8  -4 -14 21283.0 1631.58  10
  -8   4  14 19714.0 1488.55   1
   8   4 -14 19974.7 1570.19   9
  -8  -4  14 20037.1 1663.45  17
  -8   4  14 20355.8 1583.58  15
  -8  -4  14 19504.4 1583.30  13
  -8  -4  14 21819.5 1676.70   6
   8   4 -14 18982.8 1388.07   2
   8  -4 -13 2114.72 566.380  10
  -8   4  13 2250.22 501.774   1
   8   4 -13 1537.29 415.603   2
   8   4 -13 1833.45 527.827   9
  -8  -4  13 1761.84 508.750  17
  -8   4  13 1333.26 431.286  15
  -8  -4  13 2119.10 547.163  13
  -8  -4  13 2511.61 620.057   6
   8  -4 -12 23764.2 1618.23  10
   8   4 -12 22704.2 1589.28   9
  -8  -4  12 24240.3 1667.64  17
  -8   4  12 20623.3 1407.87   1
  -8   4  12 23152.7 1531.37  15
  -8  -4  12 21022.5 1537.53  13
  -8  -4  12 25654.5 1706.74   6
   8   4 -12 24726.7 1479.90   2
   8  -4 -11 4194.66 697.521  10
   8   4 -11 4798.35 741.757   9
  -8  -4  11 4057.36 702.846  17
  -8   4  11 4069.54 618.399  15
   8   4 -11 3449.11 565.519   7
  -8  -4  11 3689.86 648.910  13
  -8  -4  11 4609.38 744.982   6
  -8   4  11 4434.55 642.140   1
   8   4 -10 5849.09 665.268  10
   8  -4 -10 5896.41 790.330  10
   8   4 -10 4283.19 718.554   9
  -8  -4  10 5103.06 751.323  17
  -8   4  10 4252.12 589.631  15
  -8   4  10 5054.58 690.982   1
   8   4 -10 4857.87 634.724   7
  -8  -4  10 4430.58 708.997  13
  -8  -4  10 4481.04 710.737   6
   8   4  -9 2113.62 395.008  10
   8  -4  -9 2423.00 527.005  10
   8   4  -9 1668.67 445.188   9
  -8  -4   9 2630.06 547.197  17
  -8   4   9 2046.51 386.980  15
   8   4  -9 2588.10 510.693   7
  -8  -4   9 2866.98 597.513   6
  -8   4   9 1660.36 399.217   1
  -8  -4   9 3014.36 600.326  13
   8  -4  -8 4215.32 638.998  10
   8   4  -8 3627.40 585.516   9
  -8  -4   8 3338.60 585.273  17
   8   4  -8 2960.84 490.249   7
  -8   4   8 3181.57 527.048   1
  -8  -4   8 3208.32 582.461  13
   8  -4  -7 12368.2 1049.29  10
   8   4  -7 12136.0 988.944   9
  -8  -4   7 12850.8 1067.79  17
   8  -4  -7 12705.4 1048.80   3
   8   4  -7 10927.6 937.068   7
  -8  -4   7 12503.7 1045.20  13
   8  -4  -6 29346.0 1568.47  10
   8   4  -6 27575.9 1394.28   9
  -8  -4   6 27527.0 1529.44  17
   8  -4  -6 26855.6 1503.62   3
   8   4  -6 27837.0 1470.90   7
  -8  -4   6 29245.7 1588.07  13
   8  -4  -5 447.621 221.860  10
   8   4  -5 680.098 280.818   9
  -8  -4   5 797.168 316.531  17
   8  -4  -5 1171.12 393.749   7
   8   4  -5 743.267 343.627   7
   8  -4  -5 250.349 284.156   3
  -8  -4   5 559.188 340.043  13
   8  -4  -4 51594.9 2011.70  10
   8   4  -4 49105.0 1702.04   9
  -8  -4   4 49680.4 1991.44  17
  -8   4   4 50179.4 2033.04   8
   8  -4  -4 48758.9 1960.85   7
   8  -4  -4 46511.4 1967.62   3
   8   4  -4 48667.0 1966.36   7
  -8  -4   4 51367.3 2074.57  13
  -8  -4   4 50603.4 1852.17  12
   8  -4  -3 2537.59 474.318  10
   8   4  -3 2436.99 381.682   9
  -8  -4   3 2477.24 466.561  17
  -8   4   3 2225.69 443.662   8
   8  -4  -3 3035.52 517.843   7
   8  -4  -3 2476.95 378.853  14
   8   4  -3 2386.36 492.664   7
  -8  -4   3 2850.32 510.811  13
   8  -4  -3 1958.43 449.924   3
  -8  -4   3 2798.30 484.264  12
  -8  -4   2 28823.3 1528.93  17
  -8   4   2 31195.7 1630.77   8
   8  -4  -2 30428.0 1488.27   7
   8  -4  -2 30322.5 1595.89   3
   8   4  -2 30296.1 1570.62   7
   8  -4  -2 30040.5 1341.12  14
  -8  -4   2 31206.2 1618.20  13
  -8  -4   2 31870.0 1569.31  12
  -8  -4   1 345.999 279.652  17
  -8   4   1-98.6265 254.183   8
   8  -4  -1 216.020 161.873   7
   8  -4  -1-254.477 221.657  14
   8   4  -1-178.807 255.827   7
   8  -4  -1 410.143 329.612   3
  -8  -4   1 59.8385 246.415  12
  -8  -4   0 22865.5 1418.00  17
  -8   4   0 24070.0 1496.09   8
  -8  -4   0 21882.4 1210.30   4
   8  -4   0 24152.9 1280.46   7
   8  -4   0 22885.9 1397.30   3
   8  -4   0 22931.4 1316.26  14
   8   4   0 20312.6 1345.65   7
  -8  -4   0 22876.8 1423.64  12
  -8  -4  -1 0.00000 214.938  17
  -8  -4  -1-114.143 153.184   4
   8   4   1 45.7305 161.178  16
   8  -4   1-23.3903 169.066   7
   8  -4   1 5.03650 215.389  14
   8   4   1 33.0247 311.577   7
   8  -4   1-170.346 284.036   3
  -8   4  -1-441.179 363.796  12
  -8  -4  -1 430.186 353.205  12
  -8  -4  -2 4179.03 635.059  17
   8   4   2 5387.66 634.091  16
   8  -4   2 4254.79 680.160  14
   8   4   2 4667.20 716.898   7
   8  -4   2 3445.86 592.276   3
  -8   4  -2 4756.72 703.595  12
  -8  -4  -2 4687.16 739.946  12
  -8  -4  -3 117.742 293.678  17
   8   4   3 182.846 209.372  16
   8  -4   3-263.391 279.860  14
   8   4   3-143.192 245.926   7
   8  -4   3 104.526 246.466   3
  -8   4  -3-128.739 329.137  12
  -8  -4  -3-94.6203 300.902  12
   8  -4   4-11.0578 196.363  18
  -8   4  -4 807.912 334.671   5
  -8  -4  -4 1082.64 395.005  17
   8   4   4 745.637 298.836  16
   8  -4   4 856.841 349.232  14
   8   4   4 745.405 376.889  14
   8   4   4 571.159 373.370   7
   8  -4   4 1403.41 430.309   3
  -8   4  -4-15.4261 347.503  12
  -8  -4  -4 1627.79 516.522  12
   8  -4   5 497.887 252.698  18
  -8   4  -5 205.739 291.000   5
  -8  -4  -5 592.388 312.772  17
   8  -4   5 183.126 277.889  14
   8   4   5 1488.30 492.516  14
   8   4   5 1118.29 440.194   7
   8  -4   5 666.076 321.650   3
  -8   4  -5 580.331 407.598  12
  -8  -4  -5 610.852 382.538  12
  -8   4  -6 16365.0 1389.23   5
   8  -4   6 14374.6 1248.05  18
  -8  -4  -6 14999.9 1350.36  17
   8  -4   6 17062.2 1266.07   3
   8  -4   6 20256.7 1582.49  14
   8   4   6 16426.3 1339.48   7
   8   4   6 16507.2 1390.00  14
  -8   4  -6 17356.0 1481.28  12
  -8  -4  -6 19013.3 1533.20  12
  -8  -4  -7 95.6167 197.078  11
   8  -4   7 71.6708 246.578  18
  -8   4  -7-352.646 311.530   5
   8  -4   7 404.319 382.692  14
   8   4   7-89.9169 316.952  14
   8   4   7 80.4738 256.286   7
  -8   4  -7 18.9191 355.142  12
  -8  -4  -7-105.643 338.629  12
  -8   4  -8 19782.6 1577.31   5
   8  -4   8 13911.9 1336.96  18
   8  -4   8 19564.2 1638.10  14
   8   4   8 18457.9 1455.04   7
   8   4   8 16421.2 1465.05  14
  -8   4  -8 19391.7 1638.74  12
  -8  -4  -8 20519.8 1675.71  12
  -8  -4  -8 17764.1 1422.36  11
  -8  -4  -9 1823.35 526.848  11
   8  -4   9 1881.41 544.567  18
   8  -4   9 1970.75 584.051  14
   8   4   9 2035.46 560.568  14
  -8   4  -9 1672.52 516.201  12
  -8  -4  -9 2872.85 700.975  12
  -8  -4 -10 2625.65 590.894  11
   8  -4  10 2088.16 559.511  18
   8  -4  10 3069.67 718.319  14
   8   4  10 2965.76 712.149  14
  -8   4 -10 4670.35 892.966  12
  -8  -4 -10 2770.75 683.582  12
  -8   5  17 613.479 361.869  15
   8  -5 -16 451.315 340.166  10
   8   5 -16-319.938 269.633   2
   8   5 -16-229.955 306.880   9
  -8  -5  16 506.400 380.697  17
  -8   5  16 325.599 286.850  15
  -8  -5  16 78.2249 279.558  13
  -8   5  16 266.308 351.496   1
   8  -5 -15 1627.10 521.164  10
  -8   5  15 2642.96 636.506  15
   8   5 -15 1438.41 491.393   9
  -8  -5  15 2911.27 709.400  17
  -8  -5  15 2323.95 632.894  13
   8   5 -15 2766.70 592.825   2
  -8   5  15 2443.15 603.759   1
  -8   5  14 1545.65 475.887   1
   8  -5 -14 1230.92 441.700  10
   8   5 -14 2846.97 708.319   9
  -8  -5  14 2411.56 607.908  17
  -8   5  14 502.659 352.896  15
  -8  -5  14 1486.39 470.679  13
   8   5 -14 1021.80 405.398   2
   8  -5 -13 14348.1 1381.68  10
   8   5 -13 12763.4 1269.45   9
  -8  -5  13 14344.7 1373.83  17
  -8   5  13 11064.4 1131.20   1
  -8   5  13 12686.0 1219.68  15
   8  -5 -12 1567.82 482.629  10
  -8  -5  12 883.102 394.337  17
  -8   5  12 1327.21 423.552  15
  -8   5  12 1029.33 422.004   1
  -8  -5  12 738.816 342.316  13
   8   5 -12 1989.53 585.439   9
   8  -5 -11 10154.7 1072.64  10
   8   5 -11 10792.7 1113.86   9
  -8  -5  11 9919.09 1095.20  17
  -8   5  11 9284.14 990.018   1
  -8   5  11 11152.5 1034.97  15
  -8  -5  11 11747.7 1162.66  13
   8  -5 -10 6520.35 850.719  10
   8   5 -10 6063.98 830.971   9
  -8  -5  10 6056.18 850.450  17
   8   5 -10 5704.48 687.522   7
  -8   5  10 5619.76 762.795   1
  -8  -5  10 6544.17 882.796  13
   8  -5  -9 5126.57 750.812  10
   8   5  -9 3384.83 630.583   9
  -8  -5   9 3749.10 676.364  17
   8   5  -9 4523.70 625.700   7
  -8  -5   9 4344.13 684.147  13
   8   5  -9 3316.40 597.147   5
  -8   5   9 3648.61 604.907   1
  -8   5   8 1178.83 368.886   1
   8  -5  -8 1705.72 453.441  10
   8   5  -8 1112.26 459.187   9
  -8  -5   8 744.358 373.456  17
   8   5  -8 1342.45 370.075   7
   8  -5  -8 1422.12 452.458   3
  -8  -5   8 1146.87 385.276  13
   8   5  -8 807.834 334.329   5
  -8   5   7 13123.8 1035.19   5
   8  -5  -7 14190.3 1176.99  10
   8   5  -7 12159.0 1034.16   9
  -8  -5   7 13828.7 1164.75  17
   8  -5  -7 13531.9 1124.95   3
   8   5  -7 13689.9 1063.42   7
  -8  -5   7 13539.2 1143.63  13
   8   5  -7 11835.3 1052.50   5
  -8   5   6 7480.78 800.339   5
   8  -5  -6 6288.87 794.404  10
   8   5  -6 6609.79 740.857   9
  -8  -5   6 6125.34 778.268  17
   8  -5  -6 5989.97 766.400   3
   8   5  -6 6293.96 745.720   7
  -8  -5   6 6863.08 834.109  13
  -8   5   5 35073.6 1750.55   5
   8  -5  -5 39073.6 1893.39  10
   8   5  -5 36037.6 1624.07   9
  -8  -5   5 34161.6 1789.32  17
  -8   5   5 36118.4 1778.22   8
   8  -5  -5 35569.0 1778.90   3
   8   5  -5 31708.6 1646.82   7
  -8  -5   5 38055.1 1896.02  13
   8  -5  -4 1899.36 498.409  10
  -8   5   4 1848.18 455.763   5
   8   5  -4 1928.40 398.366   9
  -8  -5   4 2284.15 492.282  17
  -8   5   4 1672.09 392.394   8
   8   5  -4 1508.64 399.975   7
   8  -5  -4 2443.71 495.373   3
  -8  -5   4 1676.12 416.397  13
  -8   5   3 20926.1 1405.04   5
   8  -5  -3 20204.1 1338.92  10
   8   5  -3 21326.9 1138.35   9
  -8  -5   3 20300.2 1368.91  17
  -8   5   3 20388.9 1356.17   8
   8  -5  -3 18084.0 1305.97   3
   8   5  -3 20433.1 1356.34   7
  -8  -5   3 23203.4 1471.39  13
  -8   5   2 2137.36 496.181   5
  -8  -5   2 2207.13 494.734  17
  -8   5   2 1472.92 397.273   8
   8  -5  -2 1648.04 344.621  14
   8   5  -2 2053.99 494.809   7
  -8  -5   2 1676.53 420.394  13
   8  -5  -2 2128.04 491.850   3
  -8  -5   2 1727.58 433.498  12
  -8   5   1 6367.46 818.523   5
  -8  -5   1 5822.67 770.671  17
  -8   5   1 5835.04 767.067   8
  -8  -5   1 5172.60 657.430   4
   8  -5  -1 6293.07 788.964   3
   8  -5  -1 5031.75 612.279  14
   8   5  -1 6034.66 796.904   7
  -8  -5   1 5730.14 756.685  13
  -8  -5   1 5405.65 732.141  12
  -8   5   0 0.00000 285.418   5
  -8   5   0 651.686 363.276   8
  -8  -5   0 194.305 232.521  17
  -8  -5   0 104.715 175.485   4
   8  -5   0 138.193 194.905  14
   8   5   0 558.911 385.783   7
   8  -5   0 233.475 221.637   3
  -8  -5   0 50.9102 268.050  12
  -8   5  -1 14124.1 1250.26   5
  -8  -5  -1 15537.5 1258.54  17
  -8  -5  -1 16193.7 1118.38   4
   8   5   1 18402.6 1250.81  16
   8  -5   1 15951.6 1252.05   3
   8  -5   1 15721.0 1172.82  14
   8   5   1 17217.4 1317.78   7
  -8  -5  -1 17668.7 1327.30  12
  -8   5  -2 2801.52 592.220   5
  -8  -5  -2 3449.65 626.429  17
   8   5   2 3405.02 549.167  16
   8  -5   2 4447.88 678.261  14
   8   5   2 4246.77 723.794   7
   8  -5   2 2806.81 542.790   3
  -8  -5  -2 2493.54 589.694  12
  -8   5  -3 25399.9 1755.33   5
  -8  -5  -3 25926.6 1675.07  17
   8   5   3 26240.2 1532.04  16
   8  -5   3 27566.3 1664.48  14
   8  -5   3 25732.2 1618.69   3
   8   5   3 25572.3 1650.82   7
  -8   5  -3 25420.3 1701.25  12
  -8  -5  -3 27187.2 1720.25  12
  -8   5  -4 224.354 264.252   5
  -8  -5  -4 216.961 295.396  17
   8   5   4-23.3807 216.775  16
   8  -5   4 711.033 414.342  14
   8   5   4 860.596 422.990   7
   8  -5   4-149.843 206.689   3
  -8   5  -4 179.168 317.627  12
  -8  -5  -4 558.067 374.232  12
  -8   5  -5 17096.4 1455.30   5
  -8  -5  -5 16407.9 1431.33  17
   8   5   5 17559.2 1306.35  16
   8  -5   5 18095.1 1472.51  14
   8  -5   5 16771.5 1333.95   3
   8   5   5 18704.2 1458.85   7
  -8   5  -5 17245.1 1503.84  12
  -8  -5  -5 16621.5 1461.78  12
  -8   5  -6 6637.69 929.453   5
  -8  -5  -6 6360.79 938.131  17
   8  -5   6 5945.21 895.281  14
   8  -5   6 6638.26 875.974   3
   8   5   6 8232.76 1011.88   7
  -8   5  -6 6912.02 981.355  12
  -8  -5  -6 6513.93 946.168  12
  -8   5  -7 2886.30 658.820   5
   8  -5   7 5517.71 896.088  14
   8   5   7 4319.68 762.357   7
  -8   5  -7 4614.79 830.299  12
  -8  -5  -7 4253.71 798.020  12
  -8   5  -8 357.325 350.646   5
   8  -5   8 253.616 320.218  14
   8   5   8 342.240 337.032   7
  -8   5  -8 133.247 293.848  12
  -8  -5  -8 464.752 424.566  12
  -8   5  -9 293.297 296.756   5
   8  -5   9 831.783 460.321  14
   8   5   9 1316.07 503.152   7
  -8   5  -9 651.151 461.656  12
  -8  -5  -9 165.409 308.663  12
  -8   6  16 3471.61 716.188  15
   8   6 -16 2384.52 589.327   2
  -8   6  16 2874.39 713.414   1
  -8   6  15 1052.94 485.274   1
   8  -6 -15 2390.24 634.024  10
   8   6 -15 1576.90 549.880   9
  -8  -6  15 1693.34 522.563  17
  -8   6  15 2694.46 658.401  15
  -8  -6  15 1802.17 582.244  13
   8  -6 -14 4704.49 854.846  10
  -8   6  14 3019.73 675.357   1
   8   6 -14 3587.80 760.219   9
  -8  -6  14 4449.49 825.033  17
  -8   6  14 3401.49 688.497  15
  -8  -6  14 4081.24 795.918  13
   8  -6 -13 1120.25 461.235  10
   8   6 -13 1661.17 552.855   9
  -8  -6  13 1796.18 550.731  17
  -8   6  13 223.732 313.878   1
  -8   6  13 1256.83 428.116  15
  -8  -6  13 895.203 449.001  13
   8  -6 -12 10370.1 1155.30  10
   8   6 -12 11182.3 1215.42   9
  -8   6  12 10251.7 1144.60   1
  -8  -6  12 11287.7 1227.73  17
  -8  -6  12 12675.7 1307.48  13
   8   6 -11 2103.73 515.312   5
  -8   6  11 3409.76 696.512   1
   8  -6 -11 2283.65 555.014  10
   8   6 -11 2120.00 550.383   9
  -8  -6  11 1862.43 507.845  17
  -8  -6  11 1896.27 556.311  13
   8  -6 -10 19240.8 1494.10  10
   8   6 -10 16085.6 1362.11   9
  -8  -6  10 18044.3 1491.05  17
  -8   6  10 13951.1 1266.11   1
  -8  -6  10 17564.3 1449.31  13
   8   6 -10 15406.1 1258.94   5
   8   6  -9-371.558 404.843   5
   8  -6  -9-26.7210 284.678  10
   8   6  -9 844.345 464.375   9
  -8  -6   9 118.493 313.029  17
   8   6  -9 578.075 288.196   7
   8  -6  -9 838.109 387.378   3
  -8  -6   9-47.1176 243.819  13
  -8   6   9 415.793 307.566   1
   8  -6  -8 14085.5 1268.95  10
   8   6  -8 13540.9 1182.26   9
  -8  -6   8 12320.0 1178.35  17
   8  -6  -8 12445.6 1122.84   3
   8   6  -8 14601.6 1128.73   7
  -8   6   8 11689.8 1113.67   1
  -8  -6   8 13602.1 1246.25  13
   8   6  -8 11850.4 1109.81   5
   8   6  -7 2276.24 481.822   5
   8  -6  -7 2759.19 564.305  10
  -8   6   7 3029.34 529.880   5
   8   6  -7 3671.69 650.071   9
  -8  -6   7 3308.17 635.702  17
   8   6  -7 2727.46 565.814   7
   8  -6  -7 3270.91 589.803   3
  -8  -6   7 3110.21 629.210  13
  -8   6   6 8664.58 907.036   5
   8  -6  -6 9184.30 1002.27  10
  -8  -6   6 8119.70 956.150  17
  -8   6   6 8097.73 900.165   8
   8  -6  -6 9342.26 973.561   3
   8   6  -6 8267.00 868.124   7
  -8  -6   6 8872.07 983.084  13
   8   6  -6 9229.13 959.483   5
  -8   6   5 14064.3 1174.21   5
   8  -6  -5 15232.3 1273.14  10
  -8  -6   5 12516.3 1193.50  17
  -8   6   5 13026.4 1112.57   8
   8  -6  -5 13093.3 1146.51   3
   8   6  -5 11643.5 1046.75   7
  -8  -6   5 14050.9 1199.21  13
   8   6  -5 13431.6 1160.48   5
  -8   6   4 7086.47 855.627   5
   8  -6  -4 7355.50 926.206  10
   8   6  -4 8159.66 789.657   9
  -8  -6   4 6278.97 807.899  17
  -8   6   4 6901.04 824.026   8
   8  -6  -4 7021.25 870.047   3
   8   6  -4 6215.43 793.967   7
  -8  -6   4 7392.48 877.500  13
   8   6  -4 7249.20 860.066   5
  -8   6   3 38.7127 228.984   5
  -8  -6   3-81.4289 286.941  17
  -8   6   3 326.307 266.882   8
   8   6  -3-208.117 354.456   7
  -8  -6   3-237.631 342.881  13
   8  -6  -3 232.287 320.444   3
  -8   6   2 21438.7 1515.32   5
  -8  -6   2 20353.6 1437.94  17
  -8   6   2 20025.5 1412.91   8
  -8  -6   2 23496.8 1463.49   4
   8  -6  -2 20300.0 1450.15   3
   8   6  -2 21647.0 1471.53   7
  -8  -6   2 21986.6 1490.74  13
  -8   6   1 20991.6 1532.11   5
  -8  -6   1 21499.6 1494.75  17
  -8  -6   1 19492.4 1331.19   4
  -8   6   1 24971.2 1597.62   8
   8  -6  -1 22200.6 1520.25   3
   8  -6  -1 23223.9 1337.22  14
   8   6  -1 22396.9 1530.42   7
  -8  -6   1 22678.3 1508.07  13
  -8   6   0 16637.5 1400.56   5
  -8  -6   0 16560.2 1340.09  17
  -8  -6   0 15899.4 1201.21   4
   8  -6   0 18090.3 1241.34  14
   8  -6   0 16836.8 1331.24   3
   8   6   0 18384.4 1403.17   7
  -8  -6   0 16819.7 1312.38  13
  -8  -6   0 15868.0 1283.83  12
  -8   6  -1 1478.64 458.587   5
  -8  -6  -1 1522.66 460.428  17
  -8  -6  -1 1192.31 348.343   4
   8   6   1 1196.99 379.650  16
   8  -6   1 1247.07 386.386  14
  -8  -6  -1 695.068 300.893  13
   8   6   1 1481.72 483.442   7
   8  -6   1 720.014 327.874   3
  -8  -6  -1 1200.00 410.669  12
  -8   6  -2 6002.43 882.829   5
  -8  -6  -2 4799.72 679.729   4
  -8  -6  -2 5236.47 777.330  17
   8   6   2 5044.32 715.735  16
   8  -6   2 3940.17 637.041  14
   8   6   2 5281.20 810.880   7
   8  -6   2 5535.43 808.216   3
  -8  -6  -2 5759.65 830.886  12
  -8   6  -3 7224.68 987.500   5
  -8  -6  -3 8332.22 1024.25  17
   8   6   3 7867.27 910.137  16
   8  -6   3 7813.87 943.036  14
   8  -6   3 7318.13 918.832   3
   8   6   3 7194.78 961.496   7
  -8  -6  -3 8493.33 1038.69  12
  -8   6  -4 6370.40 940.650   5
  -8  -6  -4 7613.56 993.582  17
   8   6   4 8230.23 952.022  16
   8  -6   4 6718.52 897.170  14
   8  -6   4 6472.46 892.435   3
   8   6   4 9174.69 1091.18   7
  -8   6  -4 8882.80 1103.15  12
  -8  -6  -4 7262.88 994.665  12
  -8   6  -5-341.448 406.510   5
  -8  -6  -5 422.068 404.839  17
   8   6   5-17.1611 242.317  16
   8  -6   5 476.347 296.419  14
   8   6   5 642.609 443.964   7
   8  -6   5-97.3687 277.929   3
  -8   6  -5-416.946 466.228  12
  -8  -6  -5-426.586 387.259  12
  -8   6  -6 5749.85 899.442   5
  -8  -6  -6 6122.90 955.720  17
   8   6   6 5571.53 823.035  16
   8  -6   6 6215.15 926.429  14
   8  -6   6 6473.78 903.926   3
   8   6   6 6901.36 998.474   7
  -8   6  -6 7246.16 1029.81  12
  -8  -6  -6 5002.25 881.277  12
  -8   6  -7 601.121 379.186   5
   8  -6   7 795.619 413.311  14
   8   6   7 1510.98 553.746   7
   8  -6   7 1126.94 431.484   3
  -8   6  -7 166.876 377.432  12
  -8  -6  -7 209.088 345.502  12
  -8   6  -8 3553.10 749.559   5
   8  -6   8 3312.72 731.667  14
   8   6   8 5547.42 908.126   7
  -8   6  -8 4527.06 825.924  12
  -8  -6  -8 3681.36 764.734  12
  -8   6  -9 811.673 395.936   5
   8   6   9 1003.06 476.698   7
  -8   7  15 4320.95 827.722   1
  -8   7  15 5765.05 916.951  15
   8  -7 -14-93.3987 327.835  10
  -8   7  14 174.695 382.959   1
   8   7 -14-110.403 320.066   9
  -8  -7  14 352.413 469.340  17
  -8  -7  14 255.757 386.761  13
   8  -7 -13 5285.90 889.027  10
   8   7 -13 6192.70 965.669   9
  -8  -7  13 6099.91 966.608  17
  -8   7  13 3225.93 656.471   1
  -8  -7  13 6110.34 978.030  13
   8   7 -12 1044.08 385.810   5
   8  -7 -12 1954.38 559.027  10
   8   7 -12 2671.59 707.161   9
  -8  -7  12 2762.81 702.888  17
  -8  -7  12 1674.77 525.134  13
  -8   7  12 1543.35 504.190   1
   8   7 -11 3589.56 668.945   5
  -8   7  11 3227.38 695.427   1
   8  -7 -11 3330.66 664.537  10
   8   7 -11 4937.79 838.253   9
  -8  -7  11 3860.57 781.629  17
  -8  -7  11 2790.97 614.666  13
   8   7 -10 476.074 320.587   5
   8  -7 -10 1414.56 412.973  10
   8   7 -10 2262.14 632.292   9
  -8  -7  10 1370.17 455.887  17
  -8   7  10 1026.74 436.215   1
  -8  -7  10 1850.98 534.790  13
  -8   7   9 3694.47 694.241   1
   8   7  -9 5383.49 816.648   5
   8  -7  -9 5207.33 823.224  10
  -8  -7   9 6842.42 958.060  17
   8  -7  -9 5971.19 827.620   3
  -8  -7   9 6492.17 908.033  13
   8   7  -8 2049.02 546.409   5
  -8   7   8 1547.61 485.482   1
   8  -7  -8 2212.56 563.585  10
  -8  -7   8 2750.84 585.532  17
   8   7  -8 2661.31 530.257   7
   8  -7  -8 2336.55 579.307   3
  -8  -7   8 3316.45 685.427  13
   8   7  -7 4922.50 771.004   5
   8  -7  -7 5448.67 837.264  10
  -8   7   7 5436.30 762.528   8
  -8  -7   7 4780.19 777.944  17
   8   7  -7 5437.69 767.305   7
   8  -7  -7 5546.77 788.063   3
  -8  -7   7 4500.17 767.459  13
  -8   7   7 5751.71 757.053   5
   8   7  -6 623.617 317.681   5
  -8   7   6 702.415 337.921   5
   8  -7  -6 21.5429 266.408  10
  -8  -7   6 814.925 364.679  17
  -8   7   6 295.878 227.574   8
   8   7  -6 406.162 287.864   7
   8  -7  -6 1417.15 450.016   3
  -8  -7   6 1318.05 440.386  13
  -8   7   5 8087.64 935.823   5
   8  -7  -5 8293.02 994.083  10
  -8  -7   5 7822.04 949.325  17
  -8   7   5 7461.25 871.618   8
   8  -7  -5 8113.03 940.642   3
   8   7  -5 8248.85 919.622   7
  -8  -7   5 7244.99 915.059  13
   8   7  -5 7970.92 952.285   5
   8   7  -4 1683.05 493.116   5
  -8   7   4 1515.68 457.947   5
  -8  -7   4 1088.96 383.644  17
  -8   7   4 1662.39 457.660   8
   8   7  -4 1098.88 364.278   7
  -8  -7   4 2045.50 515.777  13
   8  -7  -4 1913.71 530.456   3
  -8   7   3 18639.4 1460.90   5
  -8  -7   3 19756.6 1479.38  17
  -8   7   3 18092.7 1364.82   8
  -8  -7   3 19307.4 1442.07   4
   8  -7  -3 17323.7 1378.02   3
   8   7  -3 17224.8 1351.83   7
  -8  -7   3 19400.2 1462.03  13
   8   7  -3 18073.4 1447.13   5
  -8   7   2 430.145 339.972   5
  -8  -7   2 1068.07 454.025  17
  -8   7   2 722.950 352.772   8
  -8  -7   2 1016.98 389.189   4
   8   7  -2 743.038 452.672   7
  -8  -7   2 483.762 281.646  13
   8  -7  -2 929.303 367.467   3
  -8   7   1 21713.9 1637.38   5
  -8  -7   1 21334.4 1575.72  17
  -8  -7   1 20710.0 1475.15   4
   8  -7  -1 19721.5 1518.70   3
   8   7  -1 19918.1 1510.18   7
  -8  -7   1 23682.2 1603.83  13
  -8   7   0 907.823 510.902   5
  -8  -7   0 1062.04 408.474   4
   8   7   0 606.669 396.004   7
  -8  -7   0 1020.30 399.434  13
   8  -7   0 714.472 382.889   3
  -8  -7   0 1800.09 546.215  17
  -8   7  -1 9528.57 1142.02   5
  -8  -7  -1 11414.4 1196.05  17
  -8  -7  -1 10477.9 1051.72   4
   8  -7   1 9764.69 989.415  14
   8  -7   1 10862.4 1139.23   3
   8   7   1 10624.4 1165.85   7
  -8  -7  -1 9626.11 1055.20  13
  -8   7  -2 2426.54 639.633   5
  -8  -7  -2 1456.98 455.465  17
  -8  -7  -2 2382.31 505.865   4
   8   7   2 1682.86 462.368  16
   8  -7   2 2036.81 500.344  14
   8   7   2 1908.33 595.528   7
  -8  -7  -2 1997.82 502.115  13
   8  -7   2 2286.51 563.022   3
  -8   7  -3 3305.49 715.170   5
  -8  -7  -3 3007.84 654.619  17
   8   7   3 3071.86 636.719  16
   8  -7   3 2875.85 609.835  14
   8   7   3 4248.51 791.983   7
   8  -7   3 3236.22 682.701   3
  -8   7  -4 138.571 310.344   5
  -8  -7  -4 344.188 317.327  17
   8   7   4 1082.37 460.225  16
   8  -7   4 58.9769 231.820  14
   8   7   4 1130.93 546.144   7
   8  -7   4 401.962 294.820   3
  -8   7  -5 5773.52 961.579   5
  -8  -7  -5 3876.41 790.803  17
   8   7   5 3930.91 709.846  16
   8  -7   5 2136.08 598.274  14
   8   7   5 4854.92 911.785   7
   8  -7   5 3384.63 677.895   3
  -8   7  -5 5019.16 871.234  12
  -8   7  -6 2375.72 667.113   5
  -8  -7  -6 2152.87 613.173  17
   8   7   6 1166.83 413.685  16
   8  -7   6 1505.82 498.606  14
   8   7   6 2411.77 702.505   7
   8  -7   6 2037.83 566.193   3
  -8   7  -6 2254.64 609.949  12
  -8   7  -7 4960.25 881.091   5
   8   7   7 4813.86 826.343  16
   8  -7   7 3881.20 791.269  14
   8   7   7 4853.63 895.926   7
   8  -7   7 3835.27 756.789   3
  -8   7  -7 4807.28 879.977  12
  -8   7  -8 263.081 321.773   5
   8   7   8 375.561 437.463   7
   8  -8 -13-374.175 326.484  10
   8   8 -13 670.633 428.234   9
  -8  -8  13-356.851 360.298  17
  -8   8  13-292.453 344.345   1
  -8  -8  13 88.5399 274.288  13
   8   8 -12 180.230 234.969   5
   8  -8 -12-54.7363 301.126  10
   8   8 -12 1054.23 500.888   9
  -8  -8  12 220.675 283.486  17
  -8  -8  12-49.9713 244.878  13
  -8   8  12 1215.10 546.500   1
   8   8 -11 1593.98 529.796   5
  -8   8  11 2291.80 663.237   1
   8  -8 -11 2140.58 598.237  10
   8   8 -11 3270.45 747.309   9
  -8  -8  11 2272.75 591.279  17
  -8  -8  11 2469.89 599.748  13
   8  -8 -10 11270.1 1257.26  10
  -8  -8  10 13064.8 1365.02  17
  -8   8  10 8691.72 1110.41   1
  -8  -8  10 12266.0 1319.00  13
   8   8 -10 12024.3 1249.48   5
   8   8  -9-427.430 339.337   5
   8  -8  -9 54.2923 321.752  10
  -8  -8   9-77.1501 266.909  17
  -8   8   9 386.788 236.672   8
   8  -8  -9 49.6215 247.601   3
  -8  -8   9 68.2000 247.510  13
  -8   8   9-114.614 308.845   1
   8  -8  -8 33282.5 2075.83  10
  -8  -8   8 32059.1 2065.11  17
  -8   8   8 30051.6 1822.69   8
   8  -8  -8 31512.3 1890.56   3
  -8  -8   8 33579.2 2095.50  13
   8   8  -8 31422.0 1994.63   5
   8   8  -7 394.587 353.494   5
  -8   8   7 588.312 339.517   1
   8  -8  -7 1804.65 572.282  10
  -8  -8   7 820.275 457.304  17
  -8   8   7 1034.47 401.157   8
   8   8  -7 547.091 297.204   7
   8  -8  -7 947.632 412.901   3
  -8  -8   7 1153.97 444.413  13
   8  -8  -6 7812.15 1008.42  10
  -8  -8   6 7416.25 989.074  17
  -8   8   6 7415.84 903.859   8
   8   8  -6 7099.19 894.824   7
  -8  -8   6 8801.42 1041.70  13
   8  -8  -6 5896.58 851.353   3
   8   8  -6 6970.52 960.177   5
  -8   8   6 7819.66 959.261   5
   8   8  -5-401.298 421.940   5
  -8   8   5 217.520 259.092   5
  -8  -8   5-261.299 304.332  17
  -8   8   5-220.582 367.655   8
   8   8  -5 336.621 253.287   7
   8  -8  -5 617.236 364.583   3
  -8  -8   5 58.0092 275.979  13
   8   8  -4 261.261 299.428   5
  -8   8   4 801.296 426.839   5
  -8  -8   4 485.104 329.256  17
  -8   8   4 746.301 339.449   8
  -8  -8   4 592.496 351.608   4
   8   8  -4 307.948 322.942   7
  -8  -8   4 1012.71 443.217  13
   8  -8  -4 439.887 331.872   3
   8   8  -3 747.788 389.375   5
  -8   8   3 802.624 388.310   5
  -8  -8   3 717.102 385.687  17
  -8   8   3 491.768 298.503   8
  -8  -8   3 544.931 329.624   4
   8   8  -3 1255.53 414.621   7
  -8  -8   3 1340.74 470.077  13
   8  -8  -3 918.203 380.967   3
  -8   8   2 5387.87 873.098   5
  -8  -8   2 3353.09 646.081  17
  -8  -8   2 4022.33 710.565   4
   8   8  -2 4376.85 763.169   7
  -8  -8   2 2864.61 614.258  13
   8  -8  -2 4573.64 769.580   3
   8   8  -2 4315.08 740.967   5
  -8   8   1 394.203 356.338   5
  -8  -8   1-165.640 300.178  17
  -8  -8   1-72.2868 238.838   4
   8   8  -1 672.091 482.710   7
  -8  -8   1 46.3396 244.308  13
   8  -8  -1-345.764 345.183   3
  -8  -8   0 10067.5 1171.33  17
  -8  -8   0 10466.5 1118.08   4
   8  -8   0 9199.32 1108.37   3
   8   8   0 10714.8 1207.07   7
  -8  -8   0 11158.3 1145.79  13
  -8   8   0 11378.1 1256.78   5
  -8   8  -1 378.343 402.941   5
  -8  -8  -1 155.733 262.492  17
  -8  -8  -1 76.3601 181.272   4
   8   8   1 339.667 453.448   7
  -8  -8  -1-143.889 303.273  13
   8  -8   1-257.176 328.708   3
  -8  -8  -2 8798.28 1101.14  17
   8   8   2 10530.1 1192.67  16
   8  -8   2 9512.10 1035.74  14
   8  -8   2 9927.01 1164.80   3
   8   8   2 11991.7 1313.02   7
  -8  -8  -2 12317.0 1224.26  13
  -8   8  -2 8343.13 1115.18   5
  -8   8  -3-480.479 354.022   5
  -8  -8  -3-325.059 348.079  17
   8   8   3-691.454 451.151  16
   8  -8   3 62.7759 248.040  14
   8   8   3 677.562 425.761   7
  -8  -8  -3 121.991 233.235  13
   8  -8   3-226.026 276.864   3
  -8   8  -4 7166.27 1067.27   5
  -8  -8  -4 6049.57 981.183  17
   8   8   4 7241.37 1008.02  16
   8  -8   4 6294.20 920.947  14
  -8  -8  -4 5702.06 866.200  13
   8   8   4 6630.81 1018.06   7
   8  -8   4 5832.29 914.360   3
  -8   8  -5 901.782 424.170   5
  -8  -8  -5 999.482 433.710  17
   8   8   5 2113.01 615.688  16
   8  -8   5 465.527 334.726  14
  -8  -8  -5 317.239 279.162  13
   8   8   5 548.628 405.312   7
   8  -8   5 1090.96 464.924   3
  -8   8  -6 1343.26 491.178   5
  -8  -8  -6 1661.23 565.622  17
   8   8   6 1958.74 604.270  16
   8  -8   6 2140.39 593.151  14
   8   8   6 1708.08 551.885   7
   8  -8   6 1906.66 541.781   3
  -8   8  -6 2065.54 613.169  12
   8   8   7 112.230 252.721  16
   8   9 -12-540.418 433.988   5
   8   9 -11 1558.38 554.010   5
  -8   9  11 1022.07 491.518   1
   8  -9 -11 2051.12 638.890  10
  -8  -9  11 2168.44 598.648  17
  -8  -9  11 1738.47 636.964  13
   8   9 -10-518.238 469.579   5
   8  -9 -10 743.041 431.211  10
  -8  -9  10-139.754 294.064  17
  -8   9  10-6.15145 314.442   1
  -8  -9  10 145.169 248.045  13
   8   9  -9 1452.44 562.871   5
   8  -9  -9 1838.11 549.600  10
  -8  -9   9 1562.88 532.889  17
  -8  -9   9 2158.59 611.282  13
  -8   9   9 1747.66 600.421   1
   8   9  -8-265.894 328.219   5
   8  -9  -8 1290.00 522.835  10
  -8  -9   8 879.416 443.773  17
  -8   9   8-526.992 516.093   1
   8  -9  -8 692.399 372.193   3
  -8  -9   8 663.285 381.317  13
   8   9  -7 5709.30 920.803   5
   8  -9  -7 6877.55 997.760  10
  -8   9   7 4507.96 828.571   1
  -8  -9   7 6206.56 936.230  17
  -8  -9   7 7875.28 1076.98   4
   8  -9  -7 6305.05 875.328   3
  -8  -9   7 6262.66 956.369  13
   8   9  -6-492.526 490.239   5
  -8   9   6-638.311 487.658   5
  -8  -9   6 184.396 303.151  17
  -8  -9   6 320.609 304.289   4
   8  -9  -6-435.879 397.475   3
  -8  -9   6-44.2376 283.733  13
  -8  -9   5 8955.88 1115.77  17
  -8  -9   5 10389.3 1222.78   4
   8  -9  -5 8031.14 1041.09   3
   8   9  -5 8778.81 1041.87   7
  -8  -9   5 10751.0 1191.61  13
   8   9  -5 10171.7 1199.89   5
  -8   9   5 8434.26 1069.80   5
   8   9  -4 1067.88 484.410   5
  -8   9   4 97.4141 282.696   5
  -8  -9   4 1221.39 434.983  17
  -8  -9   4 344.582 270.412   4
   8   9  -4 1174.11 484.499   7
  -8  -9   4 1286.22 486.283  13
   8  -9  -4 1215.86 496.303   3
  -8  -9   3 10473.2 1212.47  17
  -8  -9   3 11104.4 1243.86   4
   8  -9  -3 9198.70 1114.47   3
   8   9  -3 9581.56 1135.48   7
  -8  -9   3 11597.0 1224.69  13
   8   9  -3 9384.62 1158.83   5
  -8   9   3 9762.75 1173.74   5
   8   9  -2 65.5016 258.892   5
  -8   9   2-433.290 494.374   5
  -8  -9   2-96.8455 210.420  17
  -8  -9   2-306.817 278.540   4
   8   9  -2 80.8188 282.811   7
  -8  -9   2-12.6850 262.421  13
   8  -9  -2 241.736 301.110   3
  -8   9   1 4343.10 806.889   5
  -8  -9   1 5680.83 911.342  17
  -8  -9   1 3692.97 743.513   4
   8   9  -1 5771.16 911.967   7
  -8  -9   1 4520.94 765.765  13
   8  -9  -1 4852.49 838.825   3
   8   9  -1 5313.51 883.173   5
  -8   9   0 1740.80 569.784   5
  -8  -9   0 745.744 426.328  17
  -8  -9   0 1292.41 436.097   4
   8   9   0 1139.50 472.869   7
  -8  -9   0 879.778 361.215  13
   8  -9   0 641.907 371.428   3
  -8   9  -1 1084.64 468.291   5
  -8  -9  -1 528.147 329.783   4
  -8  -9  -1 1481.74 555.653  17
   8   9   1 1301.02 605.937   7
  -8  -9  -1 78.2370 260.564  13
   8  -9   1 1078.34 437.393   3
  -8   9  -2-0.88518 452.236   5
  -8  -9  -2 3.33173 270.111  17
  -8  -9  -2-391.281 340.779  13
   8  -9   2 442.152 359.043   3
  -8   9  -3 3944.31 806.438   5
  -8  -9  -3 4635.58 854.175  17
   8   9   3 4794.45 881.782  16
   8   9   3 4823.67 876.924   7
  -8  -9  -3 3761.79 697.056  13
   8  -9   3 4340.73 843.643   3
   8   9   4 590.244 417.812  16
   8  -9   4-264.984 257.325  14
   8  -9   4-246.860 297.571   3
   8  -9   5 4876.13 867.672  14
  -8 -10   8 1364.92 501.654  17
  -8 -10   8 2299.22 639.475  13
   8  10  -7 253.836 320.020   5
  -8  10   7 891.951 461.251   1
  -8 -10   7 423.794 329.195  17
  -8 -10   7 433.584 377.793   4
   8 -10  -7 1.50425 211.926   3
  -8 -10   7 592.867 391.813  13
   8  10  -6 1463.81 572.112   5
  -8 -10   6 515.792 336.734  17
  -8 -10   6 800.953 378.284   4
  -8  10   6 1307.99 570.125   1
   8 -10  -6 1678.66 498.880   3
  -8 -10   6 2128.91 626.766  13
   8  10  -5 254.988 296.713   5
  -8  10   5 167.989 324.335   5
  -8 -10   5 259.779 255.241  17
  -8 -10   5 584.843 374.177   4
   8 -10  -5 662.555 410.636   3
  -8 -10   5-558.587 390.091  13
  -8 -10   4 8328.92 1106.72  17
  -8 -10   4 8259.83 1126.96   4
   8 -10  -4 7478.84 1039.22   3
   8  10  -4 7556.58 1020.20   7
  -8 -10   4 6588.88 955.346  13
   8  10  -4 7606.98 1121.73   5
  -8  10   4 9490.44 1219.28   5
   8  10  -3-505.570 438.767   5
  -8  10   3-128.097 393.508   5
  -8 -10   3-154.900 341.685  17
  -8 -10   3 350.087 334.944   4
   8  10  -3 734.622 502.871   7
  -8 -10   3 525.764 425.441  13
   8 -10  -3-321.306 310.862   3
  -8 -10   2 10397.9 1259.08  17
  -8 -10   2 10400.9 1260.00   4
   8 -10  -2 10685.2 1270.45   3
   8  10  -2 8897.83 1173.38   7
  -8 -10   2 10168.6 1172.17  13
   8  10  -2 10770.7 1274.26   5
  -8  10   2 9761.95 1263.33   5
  -8  10   1-125.887 354.035   5
  -8 -10   1 349.790 314.961   4
   8  10  -1 559.915 450.919   7
  -8 -10   1 12.7775 263.156  13
   8 -10  -1 136.825 192.152   3
   8  10  -1-428.583 496.126   5
  -8  10   0 2412.63 671.596   5
  -8 -10   0 1497.67 516.144   4
  -8 -10   0 799.730 367.575  17
   8  10   0 1539.69 563.640   7
   8 -10   0 2146.49 625.727   3
   9   0 -18-180.254 416.836  10
  -9   0  18-242.499 321.678  17
  -9   0  18 280.496 348.537   6
   9   0 -17 441.640 289.910  10
  -9   0  17 1027.23 414.224  17
  -9   0  17 373.324 311.276   6
   9   0 -16 89.8724 302.614  10
  -9   0  16 596.279 353.930  17
  -9   0  16-244.049 422.322   6
   9   0 -15 9223.53 1062.36  10
  -9   0  15 9877.39 1094.19  17
  -9   0  15 9270.52 1109.22   6
   9   0 -14-83.5073 309.525  10
  -9   0  14 47.2751 234.402  17
  -9   0  14-36.3137 243.379   6
   9   0 -13 24858.0 1598.40  10
  -9   0  13 23116.1 1532.01  17
   9   0 -13 22638.3 1515.68   7
  -9   0  13 22885.6 1613.42   6
   9   0 -12-162.380 245.916  10
  -9   0  12-53.3066 207.581  17
   9   0 -12-12.6755 253.811   7
  -9   0  12-105.822 165.522  13
  -9   0  12 222.071 338.024   6
   9   0 -11 2668.72 521.773  10
  -9   0  11 2924.75 514.357  17
   9   0 -11 3290.24 585.478   7
  -9   0  11 2623.83 458.796  13
  -9   0  11 3824.64 665.766   6
   9   0 -10 100.937 194.046  10
  -9   0  10-45.6837 187.188  17
   9   0 -10-114.552 280.850   7
  -9   0  10-115.984 176.669  13
  -9   0  10 106.605 280.892   6
   9   0  -9 2553.90 472.625  10
  -9   0   9 2309.34 436.917  17
   9   0  -9 2056.64 477.479   7
  -9   0   9 1583.44 376.689  13
  -9   0   9 2241.29 487.606   6
   9   0  -8 44.8777 180.905  10
  -9   0   8-116.277 141.010  17
   9   0  -8-77.4481 257.184   7
  -9   0   8-77.4658 164.635  13
  -9   0   8-87.6473 258.096   6
   9   0  -7 61741.7 1970.75  10
  -9   0   7 66079.5 2033.91  17
   9   0  -7 62198.6 2257.25   7
  -9   0   7 65154.9 2058.96  13
  -9   0   7 64235.9 2146.55   6
   9   0  -6 34.7947 142.451  10
  -9   0   6-126.129 184.641  17
   9   0  -6-187.460 237.760   7
  -9   0   6 58.1243 186.945  13
  -9   0   6-151.071 214.221   6
   9   0  -5 75035.0 2055.80  10
  -9   0   5 77270.2 2084.86  17
   9   0  -5 78683.9 2487.74   7
  -9   0   5 79686.8 2279.66  13
  -9   0   5 78030.8 2154.45   6
  -9   0   5 77127.5 2054.13  12
   9   0  -4-32.4296 133.953  10
  -9   0   4-86.7896 133.266  17
  -9   0   4-132.591 277.815   8
   9   0  -4 0.43234 251.928   7
   9   0  -4 290.402 224.750  14
  -9   0   4-153.210 181.280  13
  -9   0   4 115.174 153.144   6
  -9   0   4 20.9477 163.765  12
   9   0  -3 25212.0 1121.16  10
  -9   0   3 27437.8 1210.71  17
  -9   0   3 24261.5 1319.03   8
   9   0  -3 26791.8 1443.79   7
   9   0  -3 26306.7 1306.61  14
  -9   0   3 24498.2 1102.10   6
  -9   0   3 26131.7 1316.34  12
  -9   0   2-387.901 227.186  17
  -9   0   2 103.924 212.041   8
   9   0  -2-148.278 213.483  14
   9   0  -2 83.9208 226.008   7
  -9   0   2 70.6913 203.356  12
  -9   0   1 29056.5 1274.81  17
  -9   0   1 27448.5 1436.21   8
   9   0  -1 28084.4 1467.89   7
   9   0  -1 29781.2 1495.12  14
  -9   0   1 27482.4 1457.24  12
  -9   0   0 153.617 145.281  17
  -9   0   0 217.635 247.826   8
   9   0   0-26.0903 237.883  14
   9   0   0 279.705 280.263   7
  -9   0   0-136.076 295.950  12
  -9   0  -1 825.242 238.317  17
   9   0   1 545.115 322.453  14
   9   0   1 1031.65 301.975   7
  -9   0  -1 1032.88 369.534  12
   9   0   2-107.475 287.897  14
   9   0   2 49.0062 177.826   7
  -9   0  -2-14.8793 265.599  12
   9   0   3 146.272 294.129  14
   9   0   3 814.554 326.475   7
  -9   0  -3 805.805 398.164  12
   9   0   4-365.018 317.225  14
   9   0   4-35.2397 194.266   7
  -9   0  -4 67.9878 192.392   2
  -9   0  -4 43.1626 330.915  12
  -9   0  -5 39001.3 1941.24   2
   9   0   5 40119.8 2161.67  14
  -9   0  -5 38330.0 2115.13  12
   9   0   6-313.495 363.130  14
  -9   0  -6-30.5001 188.370   2
  -9   0  -6-406.437 314.577  12
  -9   0  -7 20935.8 1564.52   2
   9   0   7 21123.8 1664.29  14
  -9   0  -7 23825.1 1780.65  12
   9   0   8 208.918 305.484  14
  -9   0  -8 358.398 262.341   2
  -9   0  -8 357.895 393.262  12
   9   0   9 265.842 236.335  18
   9   0   9-183.924 323.184  14
  -9   0  -9 225.048 296.767   2
  -9   0  -9 129.958 337.255  12
   9   0  10-105.414 305.441  18
   9   0  10 229.441 321.459  14
  -9   0 -10 104.000 200.079   2
  -9   0 -10 478.985 403.545  12
   9   1 -18 2565.84 661.703  10
   9  -1 -18 1357.72 477.951  10
  -9  -1  18 1522.03 509.922  17
  -9   1  18 2954.58 695.047  17
  -9  -1  18 3409.45 744.623   6
  -9   1  18 1998.96 631.256   6
   9   1 -17 286.728 292.475  10
   9  -1 -17-3.98578 285.130  10
  -9  -1  17 180.451 308.139  17
  -9   1  17 434.668 356.203  17
  -9  -1  17-566.131 535.378   6
  -9   1  17 630.731 421.732   6
   9   1 -16 1361.09 452.717  10
   9  -1 -16 974.719 421.971  10
   9   1 -16 1486.68 489.486   9
  -9  -1  16 642.911 297.693  17
  -9   1  16 1330.13 459.367  17
  -9  -1  16 2524.96 653.178   6
  -9   1  16 670.387 363.323   6
   9   1 -15 1780.36 530.293  10
   9  -1 -15 1065.52 441.086  10
   9   1 -15 736.983 389.932   9
  -9  -1  15 2212.05 545.445  17
  -9   1  15 1841.42 515.752  17
  -9  -1  15 1964.24 501.895  13
  -9  -1  15 1565.27 491.837   6
  -9   1  15 2107.65 614.934   6
   9   1 -14 16517.3 1358.07  10
   9  -1 -14 17031.9 1402.00  10
   9   1 -14 15399.8 1355.30   9
  -9  -1  14 16592.7 1392.33  17
  -9   1  14 14549.7 1257.93  17
   9   1 -14 15024.5 1245.83   7
  -9  -1  14 15488.9 1267.37  13
  -9  -1  14 16892.9 1466.50   6
  -9   1  14 15431.9 1412.97   6
   9   1 -13 4468.87 697.491  10
   9  -1 -13 4711.51 738.530  10
   9   1 -13 3995.68 705.440   9
  -9  -1  13 2810.92 589.039  17
  -9   1  13 3932.24 645.318  17
   9   1 -13 3317.73 598.058   7
  -9  -1  13 3897.68 625.483  13
  -9  -1  13 4631.62 743.560   6
  -9   1  13 3091.60 632.850   6
   9   1 -12 29847.6 1674.39  10
   9  -1 -12 26695.5 1634.84  10
   9   1 -12 25996.7 1637.67   9
  -9  -1  12 26825.8 1640.91  17
  -9   1  12 27322.3 1542.10  17
   9  -1 -12 27296.2 1680.17   7
   9   1 -12 26621.5 1585.03   7
  -9  -1  12 27678.7 1588.68  13
  -9  -1  12 26723.7 1709.93   6
  -9   1  12 25564.9 1674.79   6
   9   1 -11 339.716 199.904  10
   9  -1 -11 343.222 279.170  10
   9   1 -11 555.266 336.597   9
  -9  -1  11 298.802 199.101  17
  -9   1  11 353.723 223.091  17
   9  -1 -11 308.637 272.529   7
   9   1 -11 216.662 232.644   7
  -9  -1  11 406.404 264.487  13
  -9  -1  11 147.650 307.794   6
  -9   1  11 365.442 309.599   6
   9   1 -10 17458.9 1193.48  10
   9  -1 -10 16607.1 1191.88  10
   9   1 -10 16623.8 1241.27   9
  -9  -1  10 15880.9 1164.33  17
  -9   1  10 17130.4 1120.75  17
   9  -1 -10 16108.0 1254.82   7
   9   1 -10 16322.0 1218.09   7
  -9  -1  10 17927.7 1201.47  13
  -9  -1  10 17512.3 1299.32   6
  -9   1  10 16721.4 1271.14   6
   9   1  -9 8719.24 801.730  10
   9  -1  -9 8365.33 831.974  10
   9   1  -9 6584.92 765.141   9
  -9  -1   9 8072.82 792.781  17
  -9   1   9 7483.05 714.622  17
   9  -1  -9 7454.87 875.738   7
   9   1  -9 7072.77 803.127   7
  -9  -1   9 7878.76 791.699  13
  -9  -1   9 7622.46 812.767   6
  -9   1   9 7707.84 839.959   6
   9   1  -8 29658.4 1378.25  10
   9  -1  -8 32288.7 1540.42  10
   9   1  -8 28416.8 1494.09   9
  -9  -1   8 29913.4 1486.48  17
  -9   1   8 30099.7 1344.91  17
   9  -1  -8 26909.5 1568.42   7
   9   1  -8 31398.0 1632.20   7
  -9  -1   8 32250.8 1537.05  13
  -9   1   8 30113.9 1346.35  13
  -9  -1   8 29618.3 1555.30   6
  -9   1   8 29376.0 1523.79   6
   9   1  -7 164.783 217.680  10
   9  -1  -7-19.9369 159.443  10
   9   1  -7 129.733 234.105   9
  -9  -1   7 526.075 261.754  17
  -9   1   7-41.0731 123.635  17
   9  -1  -7-70.8038 256.515   7
   9   1  -7 167.760 252.466   7
  -9  -1   7 268.802 223.661  13
  -9   1   7 362.224 203.367  13
  -9  -1   7 297.845 230.857   6
  -9   1   7 249.811 204.432   6
   9   1  -6 11613.7 791.486  10
   9  -1  -6 10571.5 844.989  10
  -9  -1   6 11079.3 859.244  17
  -9   1   6 10482.2 727.934  17
   9  -1  -6 12184.3 1022.98   7
   9   1  -6 10789.7 951.147   7
  -9   1   6 11011.3 801.519  13
  -9  -1   6 10433.3 889.324  13
  -9  -1   6 9864.03 837.611   6
  -9   1   6 10837.3 851.960   6
   9   1  -5 12249.4 779.550  10
   9  -1  -5 12467.7 887.811  10
  -9  -1   5 11994.1 884.788  17
   9  -1  -5 12632.7 1012.92   7
   9   1  -5 11517.7 971.149   7
   9  -1  -5 12137.3 812.030  14
  -9   1   5 11715.0 835.839  13
  -9  -1   5 13848.3 1006.03  13
  -9  -1   5 11639.8 874.060   6
  -9   1   5 10960.9 802.327   6
  -9   1   5 12301.9 822.192  12
  -9  -1   5 13314.1 872.744  12
   9  -1  -4 1734.19 354.903  10
  -9  -1   4 1793.93 345.091  17
  -9   1   4 1443.19 331.308   8
  -9  -1   4 1661.89 349.041   8
   9  -1  -4 1116.56 351.508   7
   9  -1  -4 1245.24 289.955  14
   9   1  -4 1477.85 398.527   7
  -9  -1   4 781.550 293.767  13
  -9  -1   4 1911.14 394.997   6
  -9   1   4 1106.30 270.609   6
  -9   1   4 1617.97 365.888  12
  -9  -1   4 1783.62 383.244  12
   9  -1  -3 647.109 226.579  10
  -9  -1   3 917.373 269.700  17
  -9  -1   3 1596.05 364.605   8
  -9   1   3 255.196 213.642   8
   9  -1  -3 574.886 274.556   7
   9  -1  -3 956.835 294.476  14
   9   1  -3 717.685 292.193  14
   9   1  -3 900.923 340.042   7
  -9   1   3 1329.68 362.393  12
  -9  -1   3 958.123 313.758  12
   9  -1  -2 35923.9 1434.36  10
  -9  -1   2 36665.8 1519.07  17
  -9  -1   2 35938.8 1553.83   8
  -9   1   2 33979.3 1632.26   8
   9  -1  -2 34814.1 1638.58   7
   9   1  -2 35244.0 1678.87   7
   9  -1  -2 34627.9 1525.16  14
   9   1  -2 38040.2 1669.75  14
  -9   1   2 37415.1 1644.33  12
  -9  -1   2 36393.3 1620.89  12
  -9  -1   1 3134.63 477.108  17
  -9  -1   1 3539.96 519.197   8
  -9   1   1 2590.86 502.582   8
   9  -1  -1 2999.92 510.485   3
   9  -1  -1 2609.62 476.550  14
   9  -1  -1 3739.82 566.548   7
   9   1  -1 3318.22 527.614  14
   9   1  -1 2900.31 536.680   7
  -9   1   1 2911.96 526.316  12
  -9  -1   1 2532.00 521.811  12
  -9  -1   0 58482.3 1997.98  17
  -9  -1   0 57331.5 2028.39   8
  -9   1   0 57368.4 2195.48   8
   9  -1   0 57437.9 2022.09   3
   9  -1   0 62206.5 2138.07   7
   9   1   0 56998.5 2147.01   7
   9  -1   0 59097.1 2154.80  14
   9   1   0 62563.9 2271.62  14
  -9   1   0 59016.0 2224.34  12
  -9  -1   0 57827.3 2225.21  12
  -9  -1  -1-81.9964 190.563  17
   9  -1   1-21.5105 238.770  14
   9   1   1 217.064 289.925  14
   9  -1   1-247.570 227.580   7
   9   1   1 429.506 261.339   7
   9  -1   1 237.819 220.626   3
  -9   1  -1 408.693 325.667  12
  -9  -1  -1-48.5661 322.722  12
   9  -1   2 7074.32 681.629  18
  -9  -1  -2 7322.09 758.273  17
   9  -1   2 7517.89 745.930   3
   9  -1   2 8750.79 818.974   7
   9   1   2 6328.60 745.410   7
   9  -1   2 7342.78 853.289  14
   9   1   2 7583.35 861.093  14
  -9   1  -2 7543.45 870.600  12
  -9  -1  -2 7213.76 869.799  12
   9  -1   3 1266.62 337.013  18
  -9  -1  -3 420.491 222.232  17
   9  -1   3 866.797 393.632  14
   9   1   3 671.557 319.137  14
   9  -1   3 930.901 288.408   7
   9   1   3 1734.02 423.227   7
   9  -1   3 853.020 309.962   3
  -9   1  -3 1144.90 428.668  12
  -9  -1  -3 1966.36 534.338  12
   9  -1   4 2806.75 520.078  18
  -9  -1  -4 3904.76 608.408  17
   9  -1   4 3054.82 625.301  14
   9   1   4 3068.79 634.232  14
   9   1   4 3260.97 554.009   7
  -9   1  -4 3940.45 583.474   2
  -9   1  -4 2669.93 586.260  12
  -9  -1  -4 3642.14 686.455  12
   9  -1   5-217.308 235.191  18
   9  -1   5-305.422 315.271  14
   9   1   5 496.863 359.752  14
   9   1   5 206.890 212.528   7
  -9   1  -5 203.084 229.861   2
  -9   1  -5-54.1299 394.060  12
  -9  -1  -5 400.622 376.972  12
  -9   1  -6 18863.3 1391.40   2
  -9  -1  -6 18322.5 1432.50   2
   9  -1   6 17100.1 1334.15  18
   9  -1   6 18867.8 1546.72  14
   9   1   6 19657.4 1563.65  14
  -9   1  -6 20482.1 1612.44  12
  -9  -1  -6 21528.8 1663.51  12
   9  -1   7 301.859 305.507  18
   9  -1   7 55.8722 281.045  14
   9   1   7 496.106 375.604  14
  -9   1  -7-111.699 265.036   2
  -9  -1  -7-4.74720 214.734   2
  -9   1  -7-274.992 378.334  12
  -9  -1  -7-68.4935 378.360  12
   9  -1   8 4672.66 776.289  18
   9  -1   8 3200.30 733.167  14
   9   1   8 3702.49 727.597  14
  -9   1  -8 4486.10 772.386   2
  -9  -1  -8 2878.62 628.235   2
  -9   1  -8 4436.18 795.651  12
  -9  -1  -8 4166.66 827.850  12
   9  -1   9 293.948 340.393  18
   9  -1   9 309.454 330.379  14
   9   1   9-84.6538 348.745  14
  -9   1  -9 272.620 268.569   2
  -9  -1  -9 396.757 257.072   2
  -9   1  -9 369.701 357.221  12
  -9  -1  -9 377.206 438.226  12
   9  -1  10 1029.80 437.182  18
   9  -1  10 649.539 418.740  14
   9   1  10 396.778 253.430  14
  -9   1 -10 597.706 350.505   2
  -9  -1 -10 828.736 422.261   2
  -9   1 -10 835.939 435.512  12
  -9  -1 -10 1035.46 495.468  12
   9   2 -18 457.087 382.797  10
   9   2 -17 3145.18 695.044  10
   9  -2 -17 4102.39 792.038  10
   9   2 -17 3500.81 780.161   9
  -9  -2  17 2634.67 675.956  17
  -9  -2  17 2153.78 557.333  13
  -9  -2  17 3460.73 726.503   6
  -9   2  17 2578.23 669.518   6
   9   2 -16-256.776 362.971  10
   9  -2 -16 45.6944 270.276  10
   9   2 -16-162.370 370.863   9
  -9  -2  16 11.8619 239.638  17
  -9  -2  16-168.377 283.039  13
  -9  -2  16 9.48793 278.852   6
  -9   2  16 401.496 400.668   6
   9   2 -15 10436.4 1126.70  10
   9  -2 -15 7628.40 1007.96  10
   9   2 -15 7710.99 1012.73   9
  -9  -2  15 9314.62 1104.47  17
  -9  -2  15 7525.42 985.029  13
  -9   2  15 8685.18 1115.60   6
  -9  -2  15 7126.38 1006.87   6
   9   2 -14 1766.50 491.790  10
   9  -2 -14 1717.55 533.367  10
   9   2 -14 1445.98 467.388   9
  -9  -2  14 1608.68 469.058  17
  -9  -2  14 2145.88 515.436  13
  -9  -2  14 880.780 375.451   6
  -9   2  14 705.717 352.918   6
   9   2 -13 11897.9 1091.42  10
   9  -2 -13 10925.3 1105.93  10
   9   2 -13 11271.1 1150.94   9
  -9  -2  13 11782.5 1196.34  17
   9   2 -13 9865.09 983.691   7
  -9  -2  13 12755.8 1165.79  13
  -9  -2  13 11624.6 1202.90   6
  -9   2  13 11705.8 1196.06   6
   9   2 -12 157.074 201.640  10
   9  -2 -12 100.617 255.231  10
   9   2 -12-394.702 389.598   9
  -9  -2  12 157.251 259.871  17
   9   2 -12 293.323 255.847   7
  -9  -2  12 588.159 293.973  13
  -9  -2  12-305.831 345.094   6
  -9   2  12-31.7572 330.432   6
   9   2 -11 1692.31 436.430  10
   9  -2 -11 2348.82 507.767  10
   9   2 -11 1735.35 449.124   9
  -9  -2  11 1385.27 367.519  17
   9   2 -11 2602.87 521.345   7
  -9  -2  11 1650.23 422.007  13
  -9  -2  11 2353.70 532.369   6
  -9   2  11 1653.62 464.858   6
   9   2 -10 1240.44 354.151  10
   9  -2 -10 1469.60 405.261  10
   9   2 -10 1202.14 360.132   9
  -9  -2  10 1085.56 360.162  17
   9  -2 -10 1365.69 442.590   7
   9   2 -10 1338.46 347.764   7
  -9  -2  10 1230.57 362.304  13
  -9  -2  10 1510.25 468.822   6
  -9   2  10 1646.23 453.186   6
   9   2  -9 22457.9 1253.54  10
   9  -2  -9 22832.9 1405.90  10
   9   2  -9 19544.4 1321.51   9
  -9  -2   9 20598.1 1355.59  17
   9  -2  -9 20491.4 1397.22   7
   9   2  -9 19591.8 1328.06   7
  -9  -2   9 22189.6 1372.12  13
  -9  -2   9 20278.8 1373.37   6
  -9   2   9 20493.5 1363.64   6
   9   2  -8-132.275 169.395  10
   9  -2  -8 74.7631 185.323  10
   9   2  -8 466.530 324.627   9
  -9  -2   8 641.535 308.263  17
   9  -2  -8 478.612 347.357   7
   9   2  -8 446.579 288.802   7
  -9  -2   8-31.4381 223.585  13
  -9  -2   8 324.274 240.969   6
  -9   2   8 174.062 279.486   6
   9   2  -7 68530.8 1930.41  10
   9  -2  -7 72304.2 2344.16  10
   9   2  -7 67197.8 2254.15   9
  -9  -2   7 69049.1 2292.78  17
   9  -2  -7 72197.2 2550.50   7
   9   2  -7 69821.9 2393.02   7
  -9  -2   7 70943.6 2389.92  13
  -9  -2   7 70275.7 2350.34   6
  -9   2   7 68520.1 2228.95   6
   9  -2  -6 10797.1 911.124  10
   9   2  -6 10576.2 868.867   9
  -9  -2   6 10426.0 878.780  17
   9  -2  -6 10604.7 976.140   7
   9   2  -6 10869.7 946.548   7
  -9  -2   6 10751.4 949.317  13
  -9  -2   6 10363.2 892.420   6
  -9   2   6 10100.5 827.921   6
   9  -2  -5 13313.7 978.166  10
   9   2  -5 11548.4 871.139   9
  -9  -2   5 11581.2 922.155  17
   9  -2  -5 12277.1 1043.94   7
   9   2  -5 12980.1 1057.44   7
  -9   2   5 14017.2 858.266  13
  -9  -2   5 11768.1 970.533  13
  -9  -2   5 12731.8 958.967   6
  -9   2   5 12889.5 875.421   6
  -9   2   5 11656.0 839.627  12
  -9  -2   5 12583.4 872.202  12
   9  -2  -4 8.87241 165.587  10
   9   2  -4 228.300 157.293   9
  -9  -2   4 116.756 187.901  17
  -9   2   4-325.550 283.094   8
  -9  -2   4-313.697 224.077   8
   9  -2  -4 523.813 362.418   3
   9  -2  -4-251.385 278.990   7
   9  -2  -4 44.0153 138.777  14
   9   2  -4 210.675 210.804   7
  -9  -2   4-293.876 319.623  13
  -9   2   4 35.2129 128.340   6
  -9   2   4 410.420 235.652  12
  -9  -2   4 211.714 158.701  12
   9  -2  -3 1843.25 360.368  10
  -9  -2   3 1775.13 399.989  17
  -9  -2   3 2170.82 374.328   8
  -9   2   3 1741.25 439.802   8
   9  -2  -3 2830.82 531.978   7
   9  -2  -3 2393.92 408.557  14
   9   2  -3 2137.18 465.431   7
   9  -2  -3 2348.48 497.980   3
  -9   2   3 1997.46 424.927  12
  -9  -2   3 2008.87 409.413  12
  -9  -2   2 10005.8 857.331  17
  -9  -2   2 10898.5 825.127   8
  -9   2   2 10331.7 951.491   8
   9  -2  -2 10116.6 925.935   3
   9  -2  -2 11068.2 922.064   7
   9   2  -2 11027.3 989.834   7
   9  -2  -2 11041.0 871.694  14
  -9   2   2 12216.6 971.597  12
  -9  -2   2 11985.6 953.400  12
  -9  -2   1 43752.5 1791.35  17
  -9  -2   1 46814.9 1737.58   8
  -9   2   1 43163.0 1930.36   8
   9  -2  -1 42376.9 1820.81   3
   9  -2  -1 41967.5 1784.85   7
   9   2  -1 41138.4 1848.08   7
   9  -2  -1 44971.5 1798.74  14
   9   2  -1 45368.8 1937.97  14
  -9   2   1 42132.6 1863.19  12
  -9  -2   1 39296.4 1801.07  12
  -9  -2   0 1674.43 382.524  17
  -9   2   0 2114.47 511.600   8
   9  -2   0 2192.94 441.679  14
   9  -2   0 2393.17 474.643   7
   9   2   0 1780.32 478.376  14
   9   2   0 1375.08 327.450   7
   9  -2   0 1767.95 404.153   3
  -9   2   0 1837.40 487.811  12
  -9  -2   0 1855.98 482.821  12
  -9  -2  -1 44080.0 1874.66  17
   9  -2   1 46380.9 1904.24   3
   9  -2   1 42892.1 1773.50   7
   9   2   1 42389.6 1907.26   7
   9  -2   1 46926.0 2018.89  14
   9   2   1 46813.1 2090.48  14
  -9   2  -1 45065.8 2047.59  12
  -9  -2  -1 49116.3 2161.05  12
   9  -2   2 9356.40 797.167  18
  -9  -2  -2 8084.77 855.673  17
   9  -2   2 9057.04 846.967   3
   9  -2   2 8295.52 784.848   7
   9   2   2 7549.80 832.280   7
   9  -2   2 7813.11 872.621  14
   9   2   2 10049.4 1013.19  14
  -9   2  -2 9624.00 1015.50  12
  -9  -2  -2 8770.88 950.782  12
  -9  -2  -3 4237.60 644.133  17
   9  -2   3 4889.98 646.131   3
   9  -2   3 4779.09 605.777  18
   9   2   3 6115.44 848.094  14
   9  -2   3 5399.36 770.999  14
   9   2   3 4519.09 654.663   7
  -9   2  -3 5867.82 841.606  12
  -9  -2  -3 5733.09 815.517  12
   9  -2   4 2945.92 511.553  18
  -9  -2  -4 2382.18 501.096  17
   9  -2   4 2949.71 598.779  14
   9   2   4 3476.69 654.274  14
   9   2   4 2272.92 504.183   7
  -9   2  -4 2652.89 617.498  12
  -9  -2  -4 3257.19 674.753  12
   9  -2   5 4172.85 642.306  18
   9  -2   5 5351.77 801.000  14
   9   2   5 3802.64 700.667  14
   9   2   5 4125.13 646.160   7
  -9   2  -5 4844.74 826.324  12
  -9  -2  -5 5638.62 857.914  12
   9  -2   6 442.736 296.381  18
   9  -2   6 501.905 403.794  14
   9   2   6 533.946 368.019  14
   9   2   6-133.539 291.460   7
  -9   2  -6 1507.85 582.076  12
  -9  -2  -6 223.542 341.289  12
   9  -2   7 5812.08 820.401  18
   9   2   7 7503.30 1027.96  14
   9  -2   7 6348.46 951.572  14
  -9   2  -7 6421.13 953.079  12
   9  -2   8 462.645 307.874  18
   9  -2   8 1363.03 489.388  14
   9   2   8 430.017 256.407  14
  -9   2  -8 780.536 364.691   2
  -9  -2  -8 612.454 335.355   2
  -9   2  -8 278.101 298.512  12
  -9  -2  -8-141.556 359.082  12
   9  -2   9 1434.09 454.072  18
   9  -2   9 2405.98 649.695  14
   9   2   9 2975.28 699.572  14
  -9   2  -9 1664.10 493.801   2
  -9  -2  -9 1469.13 526.481   2
  -9   2  -9 2147.23 633.206  12
  -9  -2  -9 1824.77 581.274  12
   9  -2  10 377.789 337.985  18
  -9   2 -10 528.023 297.650   2
   9   2  10 878.592 425.001  14
  -9  -2 -10 1397.45 486.407   2
  -9   2 -10 1034.79 494.844  12
  -9  -2 -10 863.290 419.027  12
   9   3 -17-711.284 379.382  10
   9  -3 -17-295.843 359.401  10
   9   3 -17-336.977 358.297   9
  -9  -3  17-138.658 362.006  17
  -9   3  17-341.240 250.554  15
  -9  -3  17-206.913 295.335  13
  -9  -3  17 360.684 352.690   6
  -9   3  17 316.236 401.470   6
   9   3 -16 13528.1 1329.61  10
   9  -3 -16 14980.5 1463.03  10
   9   3 -16 11224.9 1279.27   9
  -9  -3  16 12391.6 1354.71  17
  -9   3  16 12544.9 1336.66  15
  -9  -3  16 11672.4 1304.84  13
  -9  -3  16 11178.0 1304.18   6
  -9   3  16 13382.6 1438.72   6
   9   3 -15 444.191 342.797  10
   9  -3 -15 737.766 437.358  10
   9   3 -15-230.043 375.088   9
  -9  -3  15-62.4413 282.697  17
  -9   3  15 569.145 344.668  15
  -9  -3  15 77.3460 222.003  13
  -9  -3  15 54.3107 298.184   6
  -9   3  15 69.2254 310.887   6
   9   3 -14 14389.4 1261.11  10
   9  -3 -14 14296.1 1344.59  10
   9   3 -14 13119.9 1281.29   9
  -9  -3  14 15317.3 1414.66  17
  -9  -3  14 14211.6 1329.11  13
  -9  -3  14 13407.9 1331.11   6
  -9   3  14 15316.2 1432.57   6
   9   3 -13 2162.82 540.268  10
   9  -3 -13 1423.63 475.804  10
   9   3 -13 1516.24 495.090   9
  -9  -3  13 1475.45 442.674  17
  -9  -3  13 1467.88 445.530  13
  -9  -3  13 929.266 418.619   6
  -9   3  13 1056.85 436.137   6
   9   3 -12 1472.95 437.828  10
   9  -3 -12 622.454 372.819  10
   9   3 -12 594.426 378.494   9
  -9  -3  12 1346.65 434.135  17
   9   3 -12 1045.45 363.835   7
  -9  -3  12 2034.81 479.355  13
  -9  -3  12 925.266 403.080   6
  -9   3  12 1611.01 466.457   6
   9   3 -11 4216.18 594.532  10
   9  -3 -11 4377.81 712.106  10
   9   3 -11 3537.39 622.027   9
  -9  -3  11 3964.80 669.175  17
   9   3 -11 3913.97 616.934   7
  -9  -3  11 3511.10 638.594  13
  -9  -3  11 3822.28 686.186   6
  -9   3  11 3645.85 668.778   6
   9   3 -10 1338.08 344.477  10
   9  -3 -10 1468.10 418.620  10
   9   3 -10 1727.12 464.089   9
  -9  -3  10 1608.23 451.194  17
   9   3 -10 1127.27 345.314   7
  -9  -3  10 1053.07 382.476  13
  -9  -3  10 1250.27 444.452   6
  -9   3  10 1591.64 454.966   6
   9  -3  -9 255.003 252.539  10
  -9  -3   9 541.697 293.045  17
   9  -3  -9 761.256 314.873   7
   9   3  -9 394.108 230.343   7
   9   3  -9 299.747 239.454   9
  -9  -3   9 938.927 329.986  13
  -9  -3   9 921.624 419.754   6
  -9   3   9 564.537 285.728   6
   9  -3  -8 35117.1 1760.70  10
   9   3  -8 31648.6 1616.25   9
  -9  -3   8 32774.4 1720.94  17
   9  -3  -8 30745.9 1721.18   7
   9   3  -8 32728.6 1672.00   7
  -9  -3   8 34390.7 1778.82  13
  -9  -3   8 33784.7 1747.35   6
  -9   3   8 33349.3 1669.33   6
   9  -3  -7 1327.75 393.085  10
   9   3  -7 1173.22 354.287   9
  -9  -3   7 924.246 367.961  17
   9  -3  -7 1304.09 417.521   7
   9   3  -7 1936.56 431.805   7
  -9  -3   7 1651.79 463.343   6
  -9  -3   7 1055.59 386.290  13
  -9   3   7 1277.75 380.373   6
   9  -3  -6 58211.7 2180.54  10
   9   3  -6 53948.3 1961.04   9
  -9  -3   6 55648.8 2141.11  17
   9  -3  -6 55383.1 2245.14   7
   9   3  -6 50653.5 2086.36   7
  -9  -3   6 55916.6 2212.73  13
  -9   3   6 54672.6 1956.43   6
   9  -3  -5 756.513 275.947  10
   9   3  -5-171.948 243.784   9
  -9  -3   5 85.7834 222.540  17
  -9   3   5-13.6073 288.009   8
   9  -3  -5 492.147 299.734   7
   9   3  -5 503.382 307.563   7
   9  -3  -5 295.700 304.576   3
  -9  -3   5-243.459 333.794  13
  -9   3   5 139.741 140.836   6
  -9   3   5 117.322 147.287  12
  -9  -3   5 146.501 165.735  12
   9  -3  -4 10057.2 879.643  10
   9   3  -4 9893.06 764.027   9
  -9  -3   4 9449.26 882.386  17
  -9   3   4 9656.89 942.480   8
  -9  -3   4 10091.3 778.102   8
   9  -3  -4 9095.55 876.565   7
   9  -3  -4 9511.92 931.384   3
   9   3  -4 9668.83 927.143   7
  -9  -3   4 8865.85 898.220  13
  -9   3   4 10682.5 867.444  12
  -9  -3   4 10270.2 846.335  12
   9  -3  -3-61.1936 189.816  10
  -9  -3   3-164.299 259.727  17
  -9  -3   3 426.581 183.985   8
  -9   3   3 225.265 254.045   8
   9  -3  -3 159.167 241.435   7
   9  -3  -3 122.492 168.223  14
   9   3  -3 578.874 357.786   7
   9  -3  -3 19.2878 222.904   3
  -9  -3   3 135.270 195.804  13
  -9   3   3-187.558 209.064  12
  -9  -3   3 54.4503 228.285  12
  -9  -3   2 14835.5 1111.68  17
  -9   3   2 13692.4 1128.27   8
   9  -3  -2 13482.8 1041.95   7
   9  -3  -2 12780.7 1055.23   3
   9   3  -2 13315.2 1097.75   7
   9  -3  -2 13426.6 957.581  14
  -9   3   2 13861.5 1061.80  12
  -9  -3   2 14343.7 1082.41  12
  -9  -3   1 972.108 341.905  17
  -9   3   1 361.178 358.046   8
   9  -3  -1 548.983 297.025   7
   9  -3  -1 523.696 267.175  14
   9   3  -1 114.146 263.157   7
   9  -3  -1 112.961 209.253   3
  -9   3   1 515.875 269.476  12
  -9  -3   1 502.985 290.453  12
  -9  -3   0 24612.0 1458.96  17
  -9   3   0 26631.8 1613.87   8
   9  -3   0 24756.7 1370.19   7
   9  -3   0 25344.4 1489.73   3
   9   3   0 25660.2 1532.84   7
   9  -3   0 27140.8 1486.47  14
  -9   3   0 25885.1 1554.48  12
  -9  -3   0 28375.8 1618.30  12
  -9  -3  -1 786.734 326.493  17
   9  -3   1 1042.17 301.878   7
   9  -3   1 1523.49 437.332  14
   9   3   1 1330.81 422.547  14
   9   3   1 806.196 360.370   7
   9  -3   1 1200.89 375.687   3
  -9   3  -1 1195.54 444.895  12
  -9  -3  -1 1593.31 499.544  12
   9  -3   2 4064.70 547.098  18
  -9  -3  -2 4121.56 656.033  17
   9  -3   2 3506.64 578.621  14
   9   3   2 3502.50 648.834  14
   9   3   2 3638.70 628.983   7
   9  -3   2 3455.09 563.875   3
  -9   3  -2 4103.39 704.417  12
  -9  -3  -2 3126.02 648.960  12
   9  -3   3 4312.38 604.995  18
  -9  -3  -3 4565.17 700.815  17
   9  -3   3 4450.44 704.909  14
   9   3   3 5284.98 808.453  14
   9   3   3 5064.26 714.289   7
   9  -3   3 4102.77 607.280   3
  -9   3  -3 4385.33 724.419  12
  -9  -3  -3 5111.25 806.587  12
   9  -3   4 10210.5 962.165  18
  -9  -3  -4 10841.0 1085.18  17
   9  -3   4 11192.7 1022.48   3
   9   3   4 11018.1 1057.44   7
   9  -3   4 11207.5 1126.36  14
   9   3   4 10333.6 1095.13  14
  -9   3  -4 10736.6 1156.87  12
  -9  -3  -4 11187.3 1191.59  12
   9  -3   5 4016.57 635.442  18
  -9  -3  -5 5072.49 793.952  17
   9  -3   5 4599.93 781.769  14
   9   3   5 5910.48 866.179  14
   9   3   5 4587.14 718.729   7
  -9   3  -5 6545.34 949.990  12
  -9  -3  -5 4272.93 796.522  12
   9  -3   6 14480.5 1258.69  18
   9   3   6 15611.2 1304.24   7
   9  -3   6 15515.4 1413.23  14
   9   3   6 16271.6 1457.07  14
  -9   3  -6 17417.2 1507.56  12
  -9  -3  -6 17083.1 1510.36  12
   9  -3   7 1931.05 522.556  18
  -9   3  -7 1562.52 493.209   5
   9  -3   7 2760.43 653.481  14
   9   3   7 1030.51 422.906  14
   9   3   7 1221.37 387.830   7
  -9   3  -7 2219.43 630.635  12
  -9  -3  -7 2674.57 689.111  12
   9  -3   8 3554.24 692.802  18
  -9   3  -8 3056.94 640.461   5
   9  -3   8 4605.21 832.099  14
   9   3   8 4376.22 810.889  14
  -9   3  -8 4738.02 875.420  12
  -9  -3  -8 3158.75 720.268  12
   9  -3   9 1261.67 467.450  18
   9  -3   9 2212.41 650.482  14
   9   3   9 2333.63 640.865  14
  -9  -3  -9 1903.23 601.627   2
  -9   3  -9 3007.27 693.365  12
  -9  -3  -9 1981.40 590.022  12
   9   4 -17 714.743 381.389  10
  -9   4  17-71.7700 255.848  15
  -9  -4  17 777.338 423.377  13
   9   4 -16 636.089 372.190  10
   9  -4 -16 1244.62 469.984  10
   9   4 -16 920.399 461.793   9
  -9  -4  16 1279.72 524.070  17
  -9   4  16 1545.39 546.115  15
  -9  -4  16 1663.22 560.955  13
  -9  -4  16 725.314 396.975   6
  -9   4  16 1313.71 506.774   6
   9   4 -15 4159.62 763.860  10
   9  -4 -15 4300.54 814.741  10
   9   4 -15 3260.25 692.615   9
  -9  -4  15 4352.87 840.939  17
  -9   4  15 4030.65 752.159  15
  -9  -4  15 4842.48 853.887  13
  -9  -4  15 4633.50 859.945   6
  -9   4  15 3465.97 775.126   6
   9   4 -14 911.957 407.454  10
   9  -4 -14 583.154 396.354  10
   9   4 -14 551.719 361.551   9
  -9  -4  14 766.026 416.519  17
  -9   4  14 682.490 368.965  15
  -9  -4  14 513.346 288.488  13
  -9  -4  14 1023.64 398.405   6
  -9   4  14 861.731 389.133   6
   9   4 -13 21612.5 1468.28  10
   9  -4 -13 23579.0 1707.07  10
   9   4 -13 19006.9 1523.08   9
  -9  -4  13 20862.5 1638.24  17
  -9   4  13 19473.0 1471.23  15
  -9  -4  13 20849.9 1595.18  13
  -9  -4  13 20453.4 1622.37   6
  -9   4  13 21151.8 1661.52   6
   9   4 -12 3011.91 566.375  10
   9  -4 -12 2128.19 591.883  10
   9   4 -12 3455.27 680.458   9
  -9  -4  12 4015.99 750.334  17
  -9   4  12 2758.07 540.291  15
  -9  -4  12 2552.62 607.013  13
  -9  -4  12 2542.26 592.176   6
   9  -4 -11 15837.6 1383.49  10
   9   4 -11 14726.3 1256.22   9
  -9  -4  11 14736.3 1315.88  17
  -9   4  11 16115.3 1214.13   1
   9   4 -11 16682.2 1223.42   7
  -9  -4  11 15005.3 1308.27  13
  -9  -4  11 15734.8 1363.60   6
   9  -4 -10 1856.77 463.967  10
  -9   4  10 1789.29 472.734   1
   9   4 -10 1549.54 421.103   9
  -9  -4  10 2221.72 531.584  17
   9   4 -10 1412.66 398.357   7
  -9  -4  10 1591.17 465.708  13
   9  -4  -9 13605.7 1187.48  10
   9   4  -9 11167.0 1049.75   9
  -9  -4   9 11752.8 1117.18  17
   9   4  -9 13819.6 1109.53   7
  -9   4   9 9738.35 919.697   1
  -9  -4   9 12159.3 1128.50  13
  -9   4   8 4040.36 596.063   1
   9  -4  -8 5631.18 764.946  10
   9   4  -8 5151.27 693.221   9
  -9  -4   8 5414.83 743.932  17
   9   4  -8 4908.46 683.353   7
  -9  -4   8 5465.77 783.750  13
   9  -4  -7 13594.0 1130.12  10
   9   4  -7 12111.4 1002.55   9
  -9  -4   7 13472.7 1129.94  17
   9  -4  -7 13400.6 1138.59   3
   9   4  -7 10910.4 997.774   7
  -9  -4   7 12417.5 1136.67  13
   9  -4  -6 2268.72 488.130  10
   9   4  -6 1597.72 419.378   9
  -9  -4   6 1189.48 366.007  17
   9  -4  -6 2007.50 501.985   7
   9   4  -6 1790.42 496.654   7
   9  -4  -6 2504.35 550.438   3
  -9  -4   6 1637.89 473.370  13
   9  -4  -5 5491.62 720.593  10
   9   4  -5 4210.85 550.512   9
  -9   4   5 5397.20 715.059   8
  -9  -4   5 4064.33 665.403  17
   9  -4  -5 5321.90 729.820   3
   9  -4  -5 4306.43 656.684   7
  -9  -4   5 4759.20 699.490  13
   9   4  -5 4929.34 693.585   7
  -9  -4   5 4957.63 631.648  12
  -9   4   5 4148.39 542.310  12
   9  -4  -4 2.91667 290.628  10
   9   4  -4 356.204 200.200   9
  -9  -4   4 406.195 252.600  17
  -9   4   4 62.8785 223.542   8
   9  -4  -4 210.675 206.974   7
   9   4  -4 246.727 281.439   7
   9  -4  -4 20.9059 252.999   3
  -9  -4   4-227.543 265.804  13
  -9   4   4 256.558 183.796  12
  -9  -4   4 308.384 243.745  12
   9  -4  -3 10524.6 970.477  10
  -9  -4   3 10076.7 959.073  17
  -9   4   3 9378.59 947.374   8
   9  -4  -3 10782.7 969.951   7
   9  -4  -3 9406.00 956.176   3
   9   4  -3 8929.17 927.015   7
  -9  -4   3 10721.5 1018.91  13
  -9   4   3 9508.97 892.292  12
  -9  -4   3 10242.2 915.796  12
  -9  -4   2-19.7374 200.806  17
  -9   4   2-3.21525 227.169   8
   9  -4  -2 356.848 263.406   7
   9  -4  -2 139.765 165.427  14
   9   4  -2-319.847 367.956   7
  -9  -4   2-221.831 267.146  13
   9  -4  -2 155.174 304.160   3
  -9   4   2-89.4368 246.777  12
  -9  -4   2 359.512 321.530  12
  -9  -4   1 32047.2 1730.87  17
  -9   4   1 33735.8 1837.16   8
   9  -4  -1 32882.8 1619.47   7
   9  -4  -1 29973.6 1683.44   3
   9   4  -1 31429.7 1737.22   7
   9  -4  -1 31505.3 1558.46  14
  -9   4   1 29456.0 1663.70  12
  -9  -4   1 34121.6 1760.95  12
  -9   4   0 5164.71 770.286   8
  -9  -4   0 3718.81 643.731  17
   9  -4   0 4219.38 582.694   7
   9  -4   0 3792.50 588.302  14
   9   4   0 4819.38 713.206   7
   9  -4   0 5152.84 732.184   3
  -9   4   0 3418.02 585.850  12
  -9  -4   0 4303.40 698.167  12
  -9  -4  -1 32063.4 1778.75  17
   9  -4   1 27064.8 1601.43   3
   9  -4   1 30376.3 1662.26  14
   9   4   1 27457.2 1679.66   7
  -9   4  -1 30177.7 1782.56  12
  -9  -4  -1 28396.7 1722.19  12
  -9  -4  -2 457.437 332.738  17
   9  -4   2 254.201 251.961  14
   9   4   2 354.662 280.340   7
   9  -4   2 907.749 378.154   3
  -9   4  -2-94.9076 251.237  12
  -9  -4  -2 719.932 457.825  12
  -9  -4  -3 7394.19 916.587  17
   9  -4   3 7349.86 862.467   3
   9  -4   3 6844.36 884.789  14
   9   4   3 7136.00 906.651   7
  -9   4  -3 7967.35 1002.44  12
  -9  -4  -3 7686.58 963.111  12
  -9   4  -4 2180.49 573.306   5
  -9  -4  -4 3792.15 697.904  17
   9  -4   4 3918.42 749.201  14
   9   4   4 4762.98 759.943   7
   9  -4   4 4214.55 687.712   3
  -9   4  -4 4565.45 796.162  12
  -9  -4  -4 4309.06 787.825  12
  -9   4  -5 4408.60 778.124   5
  -9  -4  -5 3639.15 716.860  17
   9  -4   5 3269.78 699.354  14
   9   4   5 3789.42 745.294  14
   9   4   5 4591.22 746.145   7
   9  -4   5 3720.66 654.598   3
  -9   4  -5 3492.14 742.951  12
  -9  -4  -5 3193.24 694.609  12
   9  -4   6 130.019 258.711  18
  -9   4  -6 445.526 367.401   5
   9  -4   6 86.2942 381.720  14
   9   4   6 239.991 341.613  14
   9   4   6 413.294 310.074   7
  -9   4  -6 303.913 377.526  12
  -9  -4  -6 142.350 349.969  12
   9  -4   7 2381.40 554.791  18
  -9   4  -7 2782.02 650.098   5
   9  -4   7 3239.84 701.091  14
   9   4   7 2191.24 571.167  14
   9   4   7 3456.27 683.847   7
  -9   4  -7 3585.35 753.719  12
  -9  -4  -7 3641.79 785.531  12
  -9   4  -8 566.215 311.420   5
   9  -4   8 1910.83 534.710  18
   9  -4   8 2162.51 650.431  14
   9   4   8 2546.45 663.007  14
  -9   4  -8 1586.21 557.673  12
  -9  -4  -8 1605.93 558.388  12
   9  -4   9 1371.61 468.282  18
   9   4   9 1706.58 554.217  14
  -9   4  -9 2958.70 767.226  12
  -9  -4  -9 2873.23 726.544  12
   9  -5 -16 2568.61 667.651  10
   9   5 -16 2171.64 606.756   9
  -9  -5  16 1846.75 583.727  17
  -9   5  16 1316.70 489.952  15
  -9  -5  16 2951.34 718.328  13
  -9   5  16 2004.60 610.478   6
   9  -5 -15 0.00000 339.924  10
   9   5 -15-141.446 363.937   9
  -9  -5  15 438.073 283.526  17
  -9   5  15 361.242 260.750  15
  -9  -5  15-208.676 336.275  13
  -9   5  15-235.453 401.633   6
   9  -5 -14 5839.89 914.881  10
   9   5 -14 5552.99 926.405   9
  -9  -5  14 4585.93 834.405  17
  -9   5  14 6271.78 878.947  15
  -9  -5  14 5749.83 925.362  13
   9  -5 -13 135.186 285.284  10
   9   5 -13 168.717 374.974   9
  -9  -5  13 1162.95 494.744  17
  -9   5  13 715.896 394.526   1
  -9  -5  13 895.330 383.881  13
   9  -5 -12 8986.92 1074.62  10
   9   5 -12 8197.91 1035.81   9
  -9  -5  12 8216.87 1064.39  17
  -9   5  12 10009.1 1054.15   1
  -9  -5  12 7977.91 1031.09  13
  -9   5  11 555.597 355.122   1
   9  -5 -11 200.327 276.896  10
   9   5 -11-31.9731 327.442   9
  -9  -5  11-6.19895 240.474  17
  -9  -5  11-251.615 337.822  13
   9  -5 -10 7317.17 946.139  10
   9   5 -10 7455.30 924.988   9
  -9  -5  10 5858.33 848.038  17
   9   5 -10 5799.17 748.445   7
  -9   5  10 5464.93 803.677   1
  -9  -5  10 8146.16 985.658  13
  -9   5   9 223.177 246.541   1
   9  -5  -9 663.611 353.520  10
   9   5  -9 789.185 354.766   9
  -9  -5   9-135.154 347.879  17
   9   5  -9-30.2709 298.638   7
  -9  -5   9 835.958 422.831  13
  -9   5   8 10988.8 990.093   5
   9  -5  -8 11824.1 1117.69  10
   9   5  -8 9270.06 949.218   9
  -9  -5   8 9910.60 1056.86  17
   9  -5  -8 11641.2 1093.40   3
   9   5  -8 9526.92 952.573   7
  -9   5   8 8748.87 926.211   1
  -9  -5   8 10553.2 1093.91  13
  -9   5   7 7653.16 849.894   5
   9  -5  -7 7127.01 882.042  10
   9   5  -7 10624.1 969.283   9
  -9  -5   7 8144.15 942.073  17
   9  -5  -7 8635.35 951.431   3
   9   5  -7 8619.41 904.037   7
  -9  -5   7 8421.69 949.920  13
  -9   5   6 15309.4 1228.55   5
   9  -5  -6 16541.9 1288.90  10
   9   5  -6 16636.9 1165.12   9
  -9  -5   6 17206.0 1369.33  17
  -9   5   6 15216.3 1231.24   8
   9  -5  -6 16562.6 1307.84   3
   9   5  -6 15679.5 1232.93   7
  -9  -5   6 17194.7 1344.50  13
   9  -5  -5 8.23441 231.476  10
  -9   5   5 819.990 338.190   5
   9   5  -5 1450.99 371.912   9
  -9  -5   5 647.363 353.735  17
  -9   5   5 336.171 251.493   8
   9   5  -5 1018.04 365.069   7
   9  -5  -5 1760.20 478.250   3
  -9  -5   5 764.100 343.601  13
  -9   5   4 32142.9 1817.12   5
   9  -5  -4 32900.2 1792.29  10
  -9  -5   4 29921.4 1736.06  17
  -9   5   4 34239.6 1855.13   8
   9  -5  -4 31195.3 1783.51   3
   9   5  -4 30647.3 1726.47   7
  -9  -5   4 36183.1 1929.92  13
  -9   5   3 16835.9 1374.87   5
  -9  -5   3 14870.9 1230.79  17
  -9   5   3 14398.0 1217.26   8
   9  -5  -3 16583.1 1303.18   3
   9   5  -3 13945.2 1198.03   7
  -9  -5   3 16367.7 1296.75  13
  -9  -5   3 16809.6 1224.16  12
  -9   5   2 25252.2 1690.46   5
  -9  -5   2 28220.0 1684.81  17
  -9   5   2 29446.4 1748.36   8
   9  -5  -2 27042.8 1652.52   3
   9   5  -2 29965.0 1743.31   7
  -9  -5   2 31111.8 1802.54  13
  -9  -5   2 31405.2 1731.54  12
  -9   5   1 4351.96 720.449   5
  -9  -5   1 5570.56 716.085   4
  -9  -5   1 4058.75 656.804  17
  -9   5   1 3686.02 681.072   8
   9  -5  -1 3891.40 574.080  14
   9   5  -1 4987.58 754.947   7
  -9  -5   1 4625.73 720.608  13
   9  -5  -1 4139.34 703.220   3
  -9  -5   1 4295.40 682.417  12
  -9   5   0 2480.30 593.998   5
  -9  -5   0 2860.77 576.073  17
  -9  -5   0 3193.44 531.750   4
   9  -5   0 2526.67 491.395  14
   9   5   0 3637.44 656.884   7
   9  -5   0 3122.51 613.139   3
  -9   5   0 2628.68 565.808  12
  -9  -5   0 3362.65 645.172  12
  -9   5  -1 6545.65 911.448   5
  -9  -5  -1 6283.95 843.452  17
   9  -5   1 7298.16 895.259   3
   9  -5   1 7619.01 860.932  14
   9   5   1 7206.19 909.218   7
  -9   5  -1 7219.59 932.866  12
  -9  -5  -1 7714.09 949.774  12
  -9   5  -2 9.01947 333.482   5
  -9  -5  -2 395.687 285.897  17
   9  -5   2 453.853 284.736  14
   9   5   2 543.301 398.270   7
   9  -5   2 367.227 322.972   3
  -9   5  -2 319.031 261.188  12
  -9  -5  -2 450.228 297.162  12
  -9   5  -3 2393.63 585.350   5
  -9  -5  -3 2999.13 639.881  17
   9  -5   3 2177.01 511.194  14
   9   5   3 2869.39 657.638   7
   9  -5   3 2411.16 538.665   3
  -9   5  -3 2679.26 596.238  12
  -9  -5  -3 2265.39 584.744  12
  -9   5  -4 8751.42 1102.30   5
  -9  -5  -4 8117.45 1017.95  17
   9  -5   4 8169.14 976.365   3
   9  -5   4 7356.64 984.245  14
   9   5   4 9136.24 1073.93   7
  -9   5  -4 7713.94 1025.56  12
  -9  -5  -4 9469.16 1124.22  12
  -9   5  -5 1983.23 590.110   5
  -9  -5  -5 1950.26 612.745  17
   9  -5   5 1257.70 459.125  14
   9   5   5 2640.60 673.419   7
   9  -5   5 3206.96 653.789   3
  -9   5  -5 1983.09 562.724  12
  -9  -5  -5 3057.24 730.703  12
  -9   5  -6 15277.8 1470.93   5
  -9  -5  -6 13989.3 1423.46  17
   9  -5   6 16484.7 1527.46  14
   9   5   6 16263.0 1457.56   7
  -9   5  -6 16336.5 1560.74  12
  -9  -5  -6 19733.3 1693.47  12
  -9   5  -7-39.5129 328.803   5
   9  -5   7-194.642 375.775  14
   9   5   7-200.833 264.929   7
  -9   5  -7 934.352 493.524  12
  -9  -5  -7-106.882 323.682  12
  -9   5  -8 2757.80 640.248   5
   9   5   8 3023.55 674.479   7
  -9   5  -8 4148.78 801.524  12
  -9  -5  -8 2637.11 697.460  12
   9  -6 -15 3558.01 771.020  10
   9   6 -15 4444.09 818.331   9
  -9  -6  15 4898.37 875.171  17
  -9  -6  15 5079.84 924.036  13
   9  -6 -14 2555.86 679.863  10
  -9   6  14 1566.99 489.352   1
   9   6 -14 1786.50 539.804   9
  -9  -6  14 2485.42 642.686  17
  -9  -6  14 1798.52 518.286  13
   9  -6 -13 7345.78 1037.70  10
  -9  -6  13 7066.77 1031.68  17
   9   6 -13 7481.94 1024.32   9
  -9   6  13 5901.40 888.963   1
  -9  -6  13 7059.70 1042.15  13
   9  -6 -12 4360.55 793.905  10
   9   6 -12 5313.36 860.019   9
  -9  -6  12 3994.19 785.956  17
  -9  -6  12 4411.47 791.935  13
  -9   6  12 5179.23 817.623   1
   9  -6 -11 9378.49 1114.15  10
   9   6 -11 9200.89 1089.65   9
  -9  -6  11 8063.16 1040.79  17
  -9   6  11 7265.04 942.283   1
  -9  -6  11 8082.65 1048.18  13
   9  -6 -10 2626.78 602.507  10
   9   6 -10 2286.18 596.682   9
  -9  -6  10 3144.43 666.412  17
  -9   6  10 2198.06 535.574   1
  -9  -6  10 3260.55 670.337  13
   9  -6  -9 8510.90 1029.67  10
  -9   6   9 4293.68 716.069   1
   9   6  -9 8737.86 1017.15   9
  -9  -6   9 6501.00 895.332  17
   9  -6  -9 7780.96 930.646   3
   9   6  -9 6963.53 849.605   7
  -9  -6   9 7253.95 993.226  13
   9  -6  -8 11413.3 1172.77  10
   9   6  -8 11631.7 1119.17   9
  -9  -6   8 10752.4 1142.99  17
   9  -6  -8 10898.0 1115.18   3
   9   6  -8 12046.6 1104.77   7
  -9   6   8 10468.4 1074.19   1
  -9  -6   8 10888.9 1157.35  13
  -9   6   7 8433.90 919.750   5
   9  -6  -7 9506.55 1071.33  10
   9   6  -7 9200.27 954.059   9
  -9  -6   7 9399.28 1071.40  17
  -9   6   7 9654.74 1031.11   8
   9  -6  -7 10641.9 1084.48   3
   9   6  -7 8228.66 925.708   7
  -9  -6   7 10021.2 1097.78  13
   9  -6  -6 1700.35 492.527  10
  -9   6   6 1999.73 492.372   5
   9   6  -6 2252.22 492.044   9
  -9  -6   6 1526.15 454.128  17
  -9   6   6 1704.63 457.815   8
   9   6  -6 2027.29 504.367   7
   9  -6  -6 1817.10 487.222   3
  -9  -6   6 2825.80 604.230  13
  -9   6   5 14391.1 1254.05   5
   9  -6  -5 15392.9 1305.50  10
  -9  -6   5 12894.0 1204.52  17
  -9   6   5 13727.8 1209.54   8
   9  -6  -5 13668.1 1240.03   3
   9   6  -5 12458.0 1148.69   7
  -9  -6   5 13689.7 1229.50  13
  -9   6   4 7037.90 913.935   5
   9  -6  -4 7505.32 940.289  10
  -9  -6   4 7266.42 927.437  17
  -9   6   4 6747.75 844.241   8
  -9  -6   4 6532.65 879.421  13
   9   6  -4 6213.63 828.768   7
   9  -6  -4 6001.68 831.906   3
  -9   6   3 9452.44 1055.70   5
  -9  -6   3 8980.77 1004.09  17
  -9   6   3 9646.72 1038.81   8
   9  -6  -3 8412.56 989.419   3
   9   6  -3 9918.63 1037.46   7
  -9  -6   3 10689.4 1116.64  13
  -9   6   2 598.403 276.527   5
  -9  -6   2 153.488 291.300  17
  -9   6   2 36.1889 225.931   8
  -9  -6   2 400.379 270.620   4
   9   6  -2 987.846 461.458   7
  -9  -6   2 326.709 267.014  13
   9  -6  -2 71.1065 268.388   3
  -9   6   1 6332.57 905.757   5
  -9  -6   1 6394.70 870.792  17
  -9  -6   1 7511.57 844.250   4
  -9   6   1 7762.44 981.503   8
  -9  -6   1 7481.80 938.202  13
   9   6  -1 6603.88 904.194   7
   9  -6  -1 5408.70 810.220   3
  -9   6   0-143.649 340.335   5
  -9  -6   0 263.366 352.610  17
  -9  -6   0 502.065 310.297   4
   9  -6   0 182.767 176.036  14
   9   6   0 519.119 380.715   7
  -9  -6   0-329.531 291.993  13
   9  -6   0 168.266 378.093   3
  -9  -6   0-251.386 342.643  12
  -9   6  -1 5257.67 864.158   5
  -9  -6  -1 3909.01 717.584  17
   9  -6   1 3854.62 669.862  14
  -9  -6  -1 4437.13 748.738  13
   9   6   1 4478.65 806.862   7
   9  -6   1 3837.99 700.313   3
  -9  -6  -1 3925.62 753.644  12
  -9   6  -2-31.4256 366.987   5
  -9  -6  -2-74.8392 263.412  17
   9  -6   2 100.538 199.013  14
   9   6   2 493.312 448.819   7
   9  -6   2-18.5585 272.984   3
  -9   6  -2-17.8217 320.833  12
  -9  -6  -2-603.318 434.003  12
  -9   6  -3 6885.87 1002.65   5
  -9  -6  -3 8863.48 1102.39  17
   9   6   3 10871.7 1095.67  16
   9  -6   3 8986.54 1051.47   3
   9  -6   3 9788.75 1094.44  14
   9   6   3 9215.74 1096.38   7
  -9   6  -3 7820.89 1030.89  12
  -9  -6  -3 8825.24 1080.55  12
  -9   6  -4 1174.78 475.769   5
  -9  -6  -4 920.018 433.628  17
   9   6   4 1096.46 380.615  16
   9  -6   4 1399.23 427.789  14
   9   6   4 2168.55 653.705   7
   9  -6   4 1050.29 399.262   3
  -9   6  -4 908.348 440.965  12
  -9  -6  -4 1318.86 501.527  12
  -9   6  -5 9242.99 1199.31   5
  -9  -6  -5 8506.48 1121.11  17
   9  -6   5 9287.98 1092.00   3
   9  -6   5 8652.73 1114.77  14
   9   6   5 9545.96 1156.79   7
  -9   6  -5 10316.3 1237.18  12
  -9  -6  -5 8789.30 1136.34  12
  -9   6  -6-320.884 372.887   5
  -9  -6  -6 307.306 364.565  17
   9  -6   6 252.176 427.194  14
   9   6   6 652.597 445.910   7
   9  -6   6-146.179 330.265   3
  -9   6  -6-325.889 306.078  12
  -9  -6  -6 283.671 442.441  12
  -9   6  -7 2874.24 709.171   5
   9  -6   7 3866.72 803.416  14
   9   6   7 3980.54 827.790   7
  -9   6  -7 2082.56 628.860  12
  -9  -6  -7 3078.91 712.440  12
  -9   7  14 55.1449 392.788   1
   9  -7 -13 138.289 317.478  10
   9   7 -13-114.547 355.461   9
  -9  -7  13 856.692 450.430  17
  -9   7  13-41.5096 371.053   1
  -9  -7  13 1052.21 488.946  13
   9  -7 -12 3695.57 729.939  10
   9   7 -12 3087.83 696.611   9
  -9  -7  12 4181.86 784.666  17
  -9  -7  12 3091.73 691.061  13
  -9   7  12 4104.10 802.876   1
   9  -7 -11 185.476 267.737  10
   9   7 -11 343.964 333.153   9
  -9  -7  11 72.5902 231.416  17
  -9  -7  11 108.679 350.089  13
   9  -7 -10 22352.4 1731.72  10
   9   7 -10 21548.8 1657.79   9
  -9  -7  10 22020.5 1751.91  17
  -9  -7  10 23091.1 1795.98  13
  -9   7   9 561.717 358.492   1
   9  -7  -9 560.787 429.482  10
   9   7  -9 1104.04 478.603   9
  -9  -7   9 1011.17 442.247  17
   9  -7  -9 1103.73 435.202   3
  -9  -7   9 1174.90 466.735  13
   9   7  -9 94.9780 290.650   5
   9  -7  -8 18441.6 1534.62  10
   9   7  -8 20446.6 1508.43   9
  -9  -7   8 18901.9 1564.51  17
  -9   7   8 17502.7 1439.21   8
   9  -7  -8 16545.0 1390.55   3
   9   7  -8 18386.9 1392.76   7
  -9   7   8 13513.3 1301.31   1
  -9  -7   8 19777.4 1600.66  13
   9   7  -8 16435.3 1411.46   5
  -9   7   7 1171.08 418.402   5
   9  -7  -7 1067.15 480.862  10
   9   7  -7 1657.17 478.769   9
  -9  -7   7 1158.90 492.183  17
  -9   7   7 2021.63 541.577   8
   9   7  -7 1043.02 403.555   7
   9  -7  -7 1162.12 430.295   3
  -9  -7   7 1370.57 494.829  13
  -9   7   6 1275.75 443.815   5
   9  -7  -6 1054.11 450.677  10
   9   7  -6 1066.72 397.035   9
  -9  -7   6 800.529 415.209  17
  -9   7   6 1194.53 446.512   8
   9   7  -6 759.304 381.165   7
   9  -7  -6 811.331 356.708   3
  -9  -7   6 1278.01 454.288  13
  -9   7   5 4414.40 737.329   5
   9  -7  -5 3582.53 670.133  10
  -9  -7   5 3767.14 688.361  17
  -9   7   5 3648.71 656.970   8
   9   7  -5 4070.31 710.852   7
   9  -7  -5 3135.98 639.980   3
  -9  -7   5 4352.32 759.670  13
  -9   7   4 1480.10 494.546   5
  -9  -7   4 795.897 361.886  17
  -9   7   4 1441.67 433.925   8
   9   7  -4 1165.64 412.182   7
   9  -7  -4 1099.70 391.479   3
  -9  -7   4 1089.27 391.276  13
  -9   7   3 1589.55 494.240   5
  -9  -7   3 1830.88 554.087  17
  -9   7   3 2306.84 541.502   8
  -9  -7   3 2751.88 598.721   4
   9   7  -3 2141.24 592.314   7
  -9  -7   3 1685.79 499.886  13
   9  -7  -3 2259.00 601.661   3
  -9   7   2 13504.5 1320.67   5
  -9  -7   2 11984.6 1231.74  17
  -9  -7   2 14012.7 1249.43   4
  -9   7   2 11836.7 1204.10   8
   9  -7  -2 12550.2 1260.34   3
   9   7  -2 13269.7 1290.63   7
  -9  -7   2 14484.6 1326.93  13
  -9   7   1 2312.68 580.093   5
  -9  -7   1 3093.06 690.427  17
  -9  -7   1 1660.74 443.482   4
   9   7  -1 2288.91 613.284   7
  -9  -7   1 2465.82 589.505  13
   9  -7  -1 2459.07 598.435   3
  -9   7   0 20979.8 1701.72   5
  -9  -7   0 21048.4 1649.80  17
  -9  -7   0 21307.7 1529.59   4
   9  -7   0 21891.7 1657.25   3
   9   7   0 20104.2 1605.95   7
  -9  -7   0 21490.2 1619.00  13
  -9   7  -1 1905.32 599.910   5
  -9  -7  -1 1594.80 497.077  17
   9   7   1 1717.27 576.923   7
  -9  -7  -1 1292.71 474.746  13
   9  -7   1 2999.09 657.556   3
  -9   7  -2 10547.3 1253.39   5
  -9  -7  -2 9610.63 1150.90  17
   9  -7   2 11505.6 1226.11   3
   9  -7   2 10402.0 1106.93  14
   9   7   2 11516.3 1280.07   7
  -9  -7  -2 13502.6 1312.01  13
  -9   7  -3 69.6228 362.314   5
  -9  -7  -3 46.9400 259.146  17
   9   7   3 80.7509 227.055  16
   9  -7   3 371.279 277.836  14
  -9  -7  -3 816.562 458.577  13
   9   7   3 849.143 478.078   7
   9  -7   3-493.968 416.906   3
  -9   7  -3-427.709 445.899  12
  -9   7  -4 1624.29 567.843   5
  -9  -7  -4 1238.34 471.367  17
   9   7   4 1617.53 481.759  16
   9  -7   4 1909.92 525.830  14
   9   7   4 1086.77 551.756   7
   9  -7   4 1450.34 485.885   3
  -9   7  -4 1215.41 491.886  12
  -9   7  -5-97.8652 328.645   5
  -9  -7  -5 243.350 318.341  17
   9   7   5 860.248 485.668   7
   9  -7   5 341.307 330.648   3
  -9   7  -5 428.116 388.618  12
  -9   7  -6 963.142 494.688   5
   9  -7   6-44.8142 266.133  14
   9   7   6 1164.67 556.046   7
   9  -7   6-118.753 275.457   3
   9  -8 -12 1395.11 511.218  10
   9   8 -12 978.221 457.883   9
  -9  -8  12 1748.82 550.307  17
  -9  -8  12 1435.52 556.354  13
   9   8 -12 774.355 342.980   5
  -9   8  12 1291.77 516.386   1
  -9   8  11 62.1593 374.856   1
   9  -8 -11 20.8984 274.399  10
   9   8 -11 668.475 469.785   9
  -9  -8  11 145.687 303.620  17
  -9  -8  11-86.7757 322.405  13
   9   8 -11-190.577 308.315   5
   9  -8 -10 107.941 298.129  10
   9   8 -10 1011.80 495.073   9
  -9  -8  10 94.8191 239.161  17
  -9   8  10 97.2945 182.308   8
  -9   8  10 770.231 476.684   1
  -9  -8  10 374.089 343.667  13
   9   8 -10-162.638 355.423   5
   9   8  -9 1794.18 492.636   5
  -9   8   9 1249.73 561.600   1
   9  -8  -9 1017.70 457.822  10
   9   8  -9 2501.66 635.537   9
  -9  -8   9 3121.75 743.434  17
  -9   8   9 1489.63 479.053   8
   9  -8  -9 2462.78 578.895   3
  -9  -8   9 1790.47 594.359  13
   9   8  -8 149.132 329.139   5
  -9   8   8-286.350 404.675   1
   9  -8  -8 125.398 277.587  10
   9   8  -8 504.580 391.239   9
  -9  -8   8 500.477 361.884  17
  -9   8   8 207.763 295.110   8
   9  -8  -8 488.401 293.839   3
  -9  -8   8 122.788 436.276  13
   9  -8  -7 10599.0 1197.60  10
   9   8  -7 9663.01 1069.79   9
  -9   8   7 11032.8 1161.92   8
   9  -8  -7 11560.1 1201.05   3
   9   8  -7 11417.3 1166.31   7
  -9  -8   7 11929.6 1277.41  13
   9   8  -7 10725.9 1217.68   5
  -9  -8   7 11277.3 1260.93  17
  -9   8   6 818.822 395.043   5
   9  -8  -6 316.732 348.581  10
  -9  -8   6 280.983 361.086  17
  -9   8   6 101.420 204.776   8
   9   8  -6 381.001 251.983   7
   9  -8  -6 255.087 227.485   3
  -9  -8   6 186.736 274.957  13
   9   8  -6-281.473 432.974   5
  -9  -8   5 16634.0 1495.02  17
  -9   8   5 16086.3 1395.44   8
  -9  -8   5 18054.0 1548.26   4
   9  -8  -5 17325.1 1480.11   3
   9   8  -5 14681.9 1346.35   7
  -9  -8   5 18775.3 1566.13  13
  -9   8   5 18143.9 1526.86   5
  -9   8   4 57.0947 265.101   5
  -9  -8   4 392.554 333.571  17
  -9   8   4-30.9968 227.623   8
  -9  -8   4-218.058 320.700   4
   9   8  -4 37.6410 271.800   7
   9  -8  -4 606.495 411.522   3
  -9  -8   4-71.7228 255.907  13
  -9   8   3 5493.80 900.895   5
  -9  -8   3 7612.93 1025.58  17
  -9  -8   3 7456.62 989.675   4
  -9   8   3 6581.24 920.336   8
   9  -8  -3 8276.64 1056.51   3
  -9  -8   3 6753.65 951.391  13
   9   8  -3 6826.56 946.826   7
  -9   8   2-328.915 337.187   5
  -9  -8   2 91.3040 258.812  17
  -9  -8   2 96.5770 250.827   4
   9   8  -2-257.828 366.688   7
  -9  -8   2 406.995 374.476  13
   9  -8  -2 598.231 350.499   3
  -9   8   1 677.058 461.953   5
  -9  -8   1-170.535 263.460  17
  -9  -8   1 125.064 229.032   4
   9   8  -1 219.956 368.327   7
  -9  -8   1-145.719 320.515  13
   9  -8  -1 15.7926 293.414   3
  -9   8   0 199.623 389.158   5
  -9  -8   0 92.4924 279.482  17
  -9  -8   0 26.7372 182.981   4
   9   8   0-56.5224 294.584   7
  -9  -8   0-147.851 233.032  13
   9  -8   0 336.226 377.323   3
  -9   8  -1 1195.25 521.736   5
  -9  -8  -1 2024.43 546.836  17
  -9  -8  -1 2486.60 603.029   4
   9   8   1 2548.26 650.573   7
  -9  -8  -1 1703.77 525.458  13
   9  -8   1 1553.36 510.669   3
  -9   8  -2 84.6092 280.725   5
  -9  -8  -2 174.313 307.380  17
   9   8   2 176.618 361.906   7
  -9  -8  -2-165.622 296.533  13
   9  -8   2-219.763 343.691   3
  -9  -8  -3 9375.59 1208.48  17
   9  -8   3 11312.1 1206.47  14
   9  -8   3 10031.2 1209.58   3
   9   8   3 11225.2 1348.22   7
  -9  -8  -3 10196.2 1191.39  13
  -9   8  -3 10221.4 1305.46   5
  -9   8  -4 951.793 551.026   5
  -9  -8  -4 600.398 361.783  17
   9   8   4 968.579 463.501  16
   9  -8   4 588.995 331.030  14
   9   8   4 775.096 500.831   7
  -9  -8  -4 306.225 297.431  13
   9  -8   4 345.168 359.635   3
  -9   8  -4-336.218 351.738  12
   9   8   5 4661.76 834.135  16
   9  -8   5 4408.86 818.436  14
  -9  -8  -5 4760.65 842.388  13
   9   9 -10 6785.71 1015.84   5
   9   9 -10 6713.24 1018.43   9
   9   9  -9 161.654 351.865   5
   9  -9  -9 90.6495 311.521  10
   9   9  -9 872.260 505.156   9
  -9  -9   9 563.555 401.826  17
   9  -9  -9 562.369 353.954   3
  -9  -9   9 497.785 345.079  13
  -9   9   9-303.556 349.432   1
   9   9  -8 2259.91 610.422   5
   9  -9  -8 1807.33 578.221  10
   9   9  -8 2626.86 660.845   9
  -9  -9   8 954.596 408.152  17
   9  -9  -8 2438.26 617.647   3
  -9  -9   8 2130.25 577.352  13
   9   9  -7 487.461 372.557   5
  -9  -9   7 872.733 412.780  17
  -9  -9   7 791.233 420.029   4
   9  -9  -7 406.290 328.114   3
  -9   9   7-134.336 409.014   1
  -9  -9   7 54.2514 269.351  13
   9   9  -6 1540.87 506.530   5
  -9   9   6 1659.36 511.964   5
  -9  -9   6 1390.30 501.546  17
  -9  -9   6 1955.86 606.551   4
   9   9  -6 1359.23 444.614   7
   9  -9  -6 1522.33 536.428   3
  -9  -9   6 767.440 413.486  13
  -9   9   5-302.506 404.777   5
  -9  -9   5 727.487 448.079  17
  -9  -9   5 384.073 316.976   4
   9   9  -5 562.440 347.855   7
   9  -9  -5 72.6044 243.162   3
  -9  -9   5 251.168 297.206  13
   9   9  -5 110.985 362.364   5
  -9   9   4 5553.05 911.909   5
  -9   9   4 5305.27 838.261   8
  -9  -9   4 5606.17 919.203  17
  -9  -9   4 4713.98 829.798   4
   9   9  -4 5267.57 869.179   7
   9  -9  -4 5936.34 937.900   3
  -9  -9   4 5517.73 891.103  13
  -9   9   3-296.752 378.405   5
  -9  -9   3 383.588 309.684  17
  -9  -9   3-93.9715 219.127   4
   9   9  -3-195.422 388.792   7
  -9  -9   3-13.1747 204.803  13
   9  -9  -3 34.8956 288.340   3
  -9   9   2 5310.64 924.947   5
  -9  -9   2 8330.67 1117.08  17
  -9  -9   2 7079.38 1006.09   4
   9  -9  -2 6993.68 1027.12   3
  -9  -9   2 8140.79 1067.40  13
   9   9  -2 7354.79 1050.09   7
  -9   9   1 446.592 315.332   5
  -9  -9   1 1776.21 563.810  17
  -9  -9   1 2590.61 626.692   4
   9   9  -1 1272.89 534.032   7
  -9  -9   1 946.729 381.792  13
   9  -9  -1 1197.09 541.858   3
  -9   9   0 5187.99 942.973   5
  -9  -9   0 4452.69 830.319  17
  -9  -9   0 4296.74 773.300   4
   9   9   0 5919.92 970.639   7
  -9  -9   0 4833.17 832.483  13
   9  -9   0 4107.98 818.981   3
  -9   9  -1 21.2145 391.947   5
  -9  -9  -1-343.045 312.121  17
  -9  -9  -1 125.137 240.219  13
   9  -9   1 566.156 419.357   3
  -9  -9  -2 2248.48 598.032  13
  -9  -9  -3 1234.85 438.661  13
  -9  10   5 5535.16 932.663   5
  -9 -10   5 4043.67 801.413  13
  -9  10   4 624.733 364.793   5
   9  10  -4 278.968 306.640   7
  -9 -10   4 668.071 391.890  13
   9  10  -3 7502.82 1058.82   7
  -9 -10   3 8205.05 1097.28  13
  -9  10   3 8401.38 1179.77   5
  -9 -10   2 1977.54 556.403  13
  -9 -10   1 1951.98 584.871  13
 -10   0  18 551.383 363.481  17
  10   0 -17 51.5033 297.574  10
 -10   0  17-249.910 308.479  17
 -10   0  17 191.017 332.935   6
  10   0 -16 2499.23 635.401  10
 -10   0  16 1923.83 560.492  17
 -10   0  16 2167.22 612.000   6
  10   0 -15-425.866 332.053  10
 -10   0  15 203.315 302.200  17
 -10   0  15 82.5564 303.413   6
  10   0 -14 20213.4 1526.16  10
 -10   0  14 17269.3 1400.37  17
 -10   0  14 19569.9 1596.74   6
  10   0 -13-262.004 262.994  10
 -10   0  13-54.0394 245.791  17
  10   0 -13-178.956 281.305   7
 -10   0  13 666.012 425.333   6
  10   0 -12 31142.0 1762.60  10
 -10   0  12 26244.7 1597.29  17
  10   0 -12 29568.3 1789.38   7
 -10   0  12 28791.7 1814.84   6
  10   0 -11 58.6830 237.025  10
 -10   0  11 31.4739 180.163  17
  10   0 -11-8.22650 264.778   7
 -10   0  11 263.384 302.446   6
  10   0 -10 30527.9 1609.97  10
 -10   0  10 27662.0 1501.13  17
  10   0 -10 27558.4 1667.55   7
 -10   0  10 27406.7 1476.88  13
 -10   0  10 28014.1 1657.57   6
  10   0  -9-234.800 231.337  10
 -10   0   9-151.529 170.106  17
  10   0  -9-121.211 295.852   7
 -10   0   9 182.879 211.378  13
 -10   0   9-116.284 205.294   6
  10   0  -8 1291.74 339.893  10
 -10   0   8 1105.38 311.543  17
  10   0  -8 1563.89 433.507   7
 -10   0   8 1863.92 398.794  13
 -10   0   8 1087.40 347.613   6
  10   0  -7-40.6342 191.505  10
 -10   0   7-201.797 205.796  17
  10   0  -7-307.688 350.061   7
 -10   0   7-15.1312 188.199  13
 -10   0   7-115.632 243.217   6
  10   0  -6 150.111 157.527  10
 -10   0   6 36.0939 132.286  17
  10   0  -6 44.4210 336.876   7
 -10   0   6-93.3417 208.602  13
 -10   0   6 463.317 204.245   6
  10   0  -5-176.975 174.206  10
 -10   0   5-390.826 248.657  17
 -10   0   5-174.645 225.155   8
  10   0  -5-238.467 274.316   7
 -10   0   5-35.2925 198.094  13
 -10   0   5 314.059 218.043   6
 -10   0   5-144.755 159.736  12
 -10   0   4 44867.1 1914.28   8
  10   0  -4 42879.3 1964.16   7
  10   0  -4 44940.8 1793.54  14
 -10   0   4 46367.6 1893.87  13
 -10   0   4 44324.1 1767.32  12
 -10   0   3-55.7269 277.435   8
  10   0  -3-84.4131 270.352   7
  10   0  -3-165.120 215.619  14
 -10   0   3-0.86648 226.625  12
  10   0  -2 120081. 3246.73   7
  10   0  -2 127423. 3200.84  14
 -10   0   2 120688. 3150.55  12
 -10   0   1 272.011 267.899   8
  10   0  -1-99.4434 219.036  14
  10   0  -1 20.5749 267.877   7
 -10   0   1 19.4996 269.027  12
  10   0   0 9189.03 911.152   7
  10   0   0 10577.3 1007.67  14
 -10   0   0 9507.28 993.797  12
  10   0   1 161.143 253.350  14
  10   0   1 134.080 228.980   7
 -10   0  -1 152.675 281.422  12
  10   0   2 7313.56 830.551   7
  10   0   2 8124.61 956.251  14
 -10   0  -2 6964.75 911.757  12
  10   0   3-353.459 330.437  14
  10   0   3 136.866 207.773   7
 -10   0  -3-188.606 330.602  12
  10   0   4 8430.07 1029.53  14
 -10   0  -4 9848.56 1155.72  12
  10   0   5-665.884 501.428  14
 -10   0  -5-598.144 471.531  12
 -10   0  -6 14821.0 1308.00   2
  10   0   6 13624.1 1204.18  18
  10   0   6 17755.6 1562.07  14
 -10   0  -6 14748.2 1459.67  12
  10   0   7-335.115 344.196  18
  10   0   7-130.712 271.896  14
 -10   0  -7 140.899 225.861   2
 -10   0  -7 504.586 431.008  12
  10   0   8 2129.11 527.750  18
  10   0   8 2405.08 643.326  14
 -10   0  -8 2749.33 620.173   2
 -10   0  -8 3466.82 800.332  12
  10   0   9 339.474 299.557  18
 -10   0  -9 146.597 194.538   2
  10  -1 -17 6388.71 991.416  10
  10   1 -17 5938.21 937.765  10
 -10  -1  17 7668.92 1081.75  17
 -10   1  17 6105.24 910.064  17
 -10  -1  17 7914.06 1141.75   6
 -10   1  17 7953.27 1152.75   6
  10   1 -16 527.784 322.281  10
  10  -1 -16 1126.93 454.110  10
 -10  -1  16 532.236 358.541  17
 -10   1  16 945.640 392.900  17
 -10  -1  16 492.383 405.729   6
 -10   1  16 1078.10 495.680   6
  10   1 -15 11602.4 1211.70  10
  10  -1 -15 12280.1 1256.82  10
 -10  -1  15 9661.61 1129.59  17
 -10   1  15 10533.0 1121.39  17
 -10  -1  15 10937.0 1243.37   6
 -10   1  15 10778.7 1254.05   6
  10   1 -14 940.673 419.454  10
  10  -1 -14 938.718 412.801  10
  10   1 -14 1338.73 472.308   9
 -10  -1  14 1114.72 437.730  17
 -10   1  14 1135.74 408.929  17
  10   1 -14 1321.26 432.110   7
 -10  -1  14 1213.45 482.787   6
 -10   1  14 1274.48 482.790   6
  10   1 -13 627.873 257.569  10
  10  -1 -13 693.881 369.765  10
  10   1 -13 569.441 317.730   9
 -10  -1  13 940.433 342.173  17
  10   1 -13 933.779 377.830   7
 -10  -1  13 388.749 198.244  13
 -10  -1  13 1265.46 458.361   6
 -10   1  13 849.378 411.880   6
  10   1 -12 2146.77 499.695  10
  10  -1 -12 2995.54 600.519  10
  10   1 -12 3054.15 627.696   9
 -10  -1  12 1367.52 414.210  17
  10  -1 -12 2413.65 562.955   7
  10   1 -12 2099.18 517.199   7
 -10  -1  12 2114.40 486.940  13
 -10  -1  12 1786.80 512.922   6
 -10   1  12 2942.34 632.805   6
  10   1 -11 671.397 333.420  10
  10  -1 -11 650.310 354.455  10
  10   1 -11 813.167 363.870   9
 -10  -1  11 355.151 245.072  17
  10  -1 -11 499.507 335.698   7
  10   1 -11 306.058 311.389   7
 -10  -1  11 96.2384 179.908  13
 -10  -1  11 1171.38 460.044   6
 -10   1  11 523.473 323.260   6
  10   1 -10 87.7541 220.096  10
  10  -1 -10 125.642 234.016  10
  10   1 -10 116.146 232.094   9
 -10  -1  10-112.908 187.529  17
  10  -1 -10-18.1349 242.567   7
  10   1 -10-345.546 351.773   7
 -10  -1  10-68.6342 212.487  13
 -10  -1  10-56.2478 254.990   6
 -10   1  10 313.454 255.804   6
  10   1  -9 42975.3 1785.59  10
  10  -1  -9 39474.0 1817.09  10
 -10  -1   9 38037.7 1789.43  17
  10  -1  -9 36066.8 1926.63   7
  10   1  -9 38336.1 1941.00   7
 -10  -1   9 41124.8 1884.05  13
 -10  -1   9 38803.8 1905.30   6
 -10   1   9 36662.0 1815.50   6
  10   1  -8 614.931 269.316  10
  10  -1  -8 353.225 254.191  10
 -10  -1   8 85.7731 218.217  17
  10  -1  -8 631.130 347.859   7
  10   1  -8 520.891 303.080   7
 -10  -1   8 963.485 312.900  13
 -10  -1   8 344.881 222.041   6
 -10   1   8 973.281 359.172   6
  10   1  -7 40305.4 1589.25  10
  10  -1  -7 41272.2 1771.40  10
 -10  -1   7 38983.1 1729.59  17
  10  -1  -7 36877.8 1886.29   7
  10   1  -7 34764.4 1813.51   7
 -10  -1   7 39665.2 1807.85  13
 -10   1   7 38471.8 1605.09  13
 -10  -1   7 39448.8 1786.97   6
 -10   1   7 38804.3 1724.82   6
  10  -1  -6 447.864 260.872  10
 -10  -1   6 677.121 226.238  17
  10  -1  -6 356.764 242.365   7
  10   1  -6 213.951 250.555   7
 -10   1   6 606.843 211.718  13
 -10  -1   6 815.284 308.614  13
 -10  -1   6 1457.35 410.779   6
 -10   1   6 420.435 216.093   6
  10  -1  -5 3872.01 535.290  10
 -10  -1   5 3753.74 524.724  17
 -10   1   5 2916.72 521.228   8
 -10  -1   5 3181.27 489.856   8
  10  -1  -5 2019.85 494.926   7
  10   1  -5 3825.99 628.146   7
 -10  -1   5 3675.24 550.653   6
 -10   1   5 3063.59 486.809  13
 -10  -1   5 3400.18 540.058  13
 -10   1   5 3780.07 493.512   6
 -10   1   5 3826.53 515.827  12
 -10  -1   5 4071.02 533.548  12
  10  -1  -4 854.266 278.958  10
 -10  -1   4 413.891 209.916  17
 -10  -1   4 218.148 237.522   8
 -10   1   4 288.385 243.979   8
  10  -1  -4 198.249 284.768   7
  10  -1  -4 763.991 276.532  14
  10   1  -4 367.402 276.593   7
 -10  -1   4 538.191 252.675  13
 -10   1   4 170.688 176.278  12
 -10  -1   4 1068.13 343.665  12
  10  -1  -3 13428.7 939.837  10
 -10  -1   3 13158.9 966.390  17
 -10  -1   3 12955.7 1001.94   8
 -10   1   3 14210.6 1117.72   8
  10  -1  -3 11884.4 1039.77   7
  10   1  -3 11861.1 1057.54   7
  10  -1  -3 15541.8 1083.51  14
 -10   1   3 12061.3 970.461  12
 -10  -1   3 13698.0 1048.28  12
 -10  -1   2 409.466 210.296  17
 -10  -1   2 622.031 282.017   8
 -10   1   2 862.900 370.238   8
  10  -1  -2 737.992 285.000   7
  10  -1  -2 541.984 281.823  14
  10   1  -2 756.642 315.352  14
  10   1  -2 929.498 352.074   7
 -10   1   2 401.694 222.985  12
 -10  -1   2 751.002 367.007  12
 -10  -1   1 22624.5 1282.52  17
 -10  -1   1 21984.5 1341.25   8
 -10   1   1 20241.2 1377.57   8
  10  -1  -1 21243.8 1344.44   7
  10   1  -1 19099.8 1332.06   7
  10  -1  -1 22564.1 1390.33  14
  10   1  -1 23144.0 1449.24  14
 -10   1   1 21116.0 1389.38  12
 -10  -1   1 21996.2 1420.75  12
 -10  -1   0 962.391 269.794  17
  10  -1   0 735.041 324.283  14
  10   1   0 1649.64 440.709  14
  10  -1   0 695.072 289.162   7
  10   1   0 1081.37 402.407   7
 -10   1   0 863.409 336.167  12
 -10  -1   0 955.093 384.499  12
 -10  -1  -1 8296.46 827.744  17
  10  -1   1 9078.96 889.925   7
  10   1   1 9606.84 956.743   7
  10  -1   1 8396.14 921.613  14
  10   1   1 8722.50 964.831  14
 -10   1  -1 8309.43 966.671  12
 -10  -1  -1 8302.64 945.117  12
 -10  -1  -2 1231.72 341.911  17
  10  -1   2 1325.07 452.163  14
  10   1   2 531.926 311.813  14
  10  -1   2 1304.22 373.534   7
  10   1   2 1342.98 382.397   7
 -10   1  -2 1244.54 463.183  12
 -10  -1  -2 1543.88 512.074  12
  10   1   3 18289.9 1327.07   7
  10  -1   3 19665.1 1500.48  14
  10   1   3 18756.7 1474.37  14
 -10   1  -3 17347.5 1441.92  12
 -10  -1  -3 17768.8 1476.91  12
  10  -1   4-235.246 339.836  14
  10   1   4 577.862 406.466  14
  10   1   4 148.641 221.292   7
 -10  -1  -4 403.723 393.484  12
  10  -1   5 17244.0 1493.94  14
  10   1   5 15896.8 1448.82  14
 -10   1  -5 14473.2 1389.24  12
 -10  -1  -5 16831.3 1519.87  12
  10  -1   6 443.065 303.875  18
  10  -1   6-221.221 335.064  14
  10   1   6 287.851 359.416  14
 -10  -1  -6 203.498 291.429   2
 -10   1  -6-325.087 437.143  12
 -10  -1  -6-78.6974 381.026  12
  10  -1   7 1621.62 466.983  18
  10  -1   7 1522.02 531.156  14
  10   1   7 1572.53 576.182  14
 -10  -1  -7 1068.47 421.839   2
 -10   1  -7 761.823 406.896  12
 -10  -1  -7 1496.00 591.371  12
  10  -1   8 520.568 346.502  18
  10  -1   8 651.702 416.798  14
  10   1   8 240.693 245.189  14
 -10  -1  -8-136.144 267.084   2
 -10   1  -8 230.437 349.993  12
 -10  -1  -8 1326.77 567.680  12
  10  -1   9 124.479 242.839  18
 -10  -1  -9 243.081 234.358   2
  10   2 -17 260.619 446.994  10
  10  -2 -17-33.4541 324.418  10
  10   2 -17 727.087 461.535   9
 -10  -2  17 66.6778 308.177  17
 -10  -2  17-110.582 364.217   6
 -10   2  17 389.978 444.701   6
  10   2 -16 6813.98 971.379  10
  10  -2 -16 7828.98 1061.07  10
  10   2 -16 7700.63 1061.01   9
 -10  -2  16 6354.30 993.211  17
 -10  -2  16 7928.24 1036.01  13
 -10   2  16 7378.83 1076.54   6
 -10  -2  16 5868.89 951.998   6
  10   2 -15 1848.70 497.921  10
  10  -2 -15 2133.23 593.458  10
  10   2 -15 928.707 407.864   9
 -10  -2  15 2300.50 632.790  17
 -10  -2  15 1592.09 476.147  13
 -10  -2  15 1269.46 533.812   6
 -10   2  15 2321.57 587.462   6
  10   2 -14 8917.92 1015.31  10
  10  -2 -14 8555.97 1042.71  10
  10   2 -14 8283.50 1036.68   9
 -10  -2  14 6882.88 920.824  17
  10   2 -14 7880.33 925.808   7
 -10  -2  14 8630.03 1035.97  13
 -10  -2  14 8211.66 1053.17   6
 -10   2  14 8019.35 1059.39   6
  10   2 -13 1013.30 386.414  10
  10  -2 -13 1213.57 449.157  10
  10   2 -13 337.855 311.262   9
 -10  -2  13 774.054 322.534  17
  10   2 -13 1577.61 460.582   7
 -10  -2  13 1029.30 344.805  13
 -10  -2  13 1886.07 589.803   6
 -10   2  13 1903.49 559.010   6
  10   2 -12 3221.99 563.510  10
  10  -2 -12 3609.95 656.581  10
  10   2 -12 3363.91 648.472   9
 -10  -2  12 3847.86 672.933  17
  10   2 -12 3113.12 584.534   7
 -10  -2  12 3958.84 661.270  13
 -10  -2  12 4198.62 731.481   6
 -10   2  12 2996.76 628.529   6
  10   2 -11 6221.07 746.839  10
  10  -2 -11 5779.19 791.320  10
  10   2 -11 4818.09 741.816   9
 -10  -2  11 4850.40 726.186  17
  10   2 -11 5337.01 761.075   7
  10  -2 -11 4849.61 765.624   7
 -10  -2  11 6529.65 822.852  13
 -10  -2  11 4996.75 763.966   6
 -10   2  11 5126.39 759.707   6
  10   2 -10 16798.9 1152.00  10
  10  -2 -10 15175.9 1244.79  10
  10   2 -10 14950.6 1231.22   9
 -10  -2  10 16326.4 1260.26  17
  10  -2 -10 16246.7 1338.94   7
  10   2 -10 16946.4 1303.02   7
 -10  -2  10 16447.3 1259.63  13
 -10  -2  10 15508.0 1281.73   6
 -10   2  10 17280.4 1335.52   6
  10  -2  -9 9617.44 940.028  10
  10   2  -9 9844.84 973.734   9
 -10  -2   9 10307.0 984.570  17
  10  -2  -9 9897.05 1072.39   7
  10   2  -9 9491.42 986.727   7
 -10  -2   9 10451.5 1022.63  13
 -10  -2   9 9732.54 993.557   6
 -10   2   9 10779.1 1015.22   6
  10  -2  -8 43281.7 1938.53  10
  10   2  -8 37393.1 1788.17   9
 -10  -2   8 39858.7 1872.39  17
  10  -2  -8 40376.9 2037.57   7
  10   2  -8 35111.7 1822.30   7
 -10  -2   8 38732.5 1881.42  13
 -10  -2   8 35266.1 1836.45   6
 -10   2   8 38367.4 1813.48   6
  10  -2  -7 4392.04 628.822  10
  10   2  -7 4078.53 586.034   9
 -10  -2   7 5288.87 673.810  17
  10  -2  -7 4100.65 683.925   7
  10   2  -7 4101.73 669.342   7
 -10  -2   7 3373.57 575.527  13
 -10   2   7 4288.50 593.404   6
 -10  -2   7 4175.17 617.197   6
  10  -2  -6 10451.3 933.674  10
  10   2  -6 10076.7 876.971   9
 -10  -2   6 8949.06 884.370  17
  10  -2  -6 11107.3 1033.43   7
  10   2  -6 9048.86 945.570   7
 -10  -2   6 10591.3 998.008  13
 -10  -2   6 10078.7 909.041   6
 -10   2   6 11284.4 892.022   6
  10  -2  -5 11981.0 965.378  10
 -10  -2   5 12727.0 1006.17  17
 -10   2   5 10736.7 1002.96   8
 -10  -2   5 11561.4 929.863   8
  10  -2  -5 10973.7 1031.07   7
  10   2  -5 12122.6 1077.26   7
 -10  -2   5 12602.2 1070.36  13
 -10   2   5 13276.5 965.064  12
 -10  -2   5 12966.3 955.672  12
  10  -2  -4 9411.47 853.428  10
 -10  -2   4 9175.31 859.699  17
 -10  -2   4 8567.52 795.418   8
 -10   2   4 8903.66 933.516   8
  10  -2  -4 10392.9 973.519   7
  10   2  -4 10280.6 980.273   7
  10  -2  -4 9386.31 791.739  14
 -10  -2   4 8011.13 862.629  13
 -10   2   4 9217.53 852.606  12
 -10  -2   4 8774.40 838.386  12
  10  -2  -3 317.787 205.108  10
 -10  -2   3 830.480 307.265  17
 -10  -2   3 337.143 205.619   8
 -10   2   3 141.438 243.126   8
  10  -2  -3 721.308 319.913   7
  10  -2  -3 721.139 266.514  14
 -10  -2   3 117.220 252.340  13
  10   2  -3 620.588 350.562   7
 -10   2   3 699.357 335.133  12
 -10  -2   3 359.063 275.878  12
 -10  -2   2 27399.2 1474.46  17
 -10  -2   2 24318.2 1337.26   8
 -10   2   2 27929.8 1634.72   8
  10  -2  -2 25771.6 1520.96   3
  10  -2  -2 25816.1 1503.72   7
  10   2  -2 27166.4 1603.22   7
  10  -2  -2 26544.2 1436.66  14
 -10   2   2 25860.9 1510.32  12
 -10  -2   2 27162.9 1542.20  12
 -10  -2   1 1007.57 340.567   8
 -10  -2   1 1180.08 370.919  17
 -10   2   1 320.187 338.004   8
  10  -2  -1 819.815 355.256   7
  10  -2  -1 750.792 309.362  14
  10   2  -1 370.085 333.723  14
  10   2  -1 1123.93 420.702   7
  10  -2  -1 859.748 360.450   3
 -10   2   1 481.589 322.396  12
 -10  -2   1 805.434 357.273  12
 -10  -2   0 5223.93 692.772  17
  10  -2   0 5734.36 741.878   3
  10  -2   0 5371.20 692.534   7
  10   2   0 6043.02 786.234   7
  10  -2   0 5575.13 720.752  14
  10   2   0 4834.90 740.790  14
 -10   2   0 6291.16 835.612  12
 -10  -2   0 6346.89 839.922  12
 -10  -2  -1 5880.15 751.361  17
  10  -2   1 4791.88 649.448   7
  10  -2   1 4873.22 727.433  14
  10   2   1 4047.52 708.016  14
  10   2   1 4366.10 677.181   7
  10  -2   1 3143.62 561.761   3
 -10   2  -1 4776.67 761.848  12
 -10  -2  -1 4411.77 732.156  12
 -10  -2  -2 6109.46 775.082  17
  10  -2   2 6522.50 772.973   3
  10  -2   2 4971.40 767.496  14
  10   2   2 4911.69 779.845  14
  10   2   2 5104.02 723.387   7
 -10   2  -2 5213.66 825.533  12
 -10  -2  -2 5413.97 829.662  12
 -10  -2  -3 792.359 329.039  17
  10  -2   3 157.106 287.335  14
  10   2   3 92.2841 310.606  14
  10   2   3-207.284 243.157   7
  10  -2   3 480.843 286.217   3
 -10   2  -3 710.325 420.825  12
 -10  -2  -3-85.2606 352.335  12
 -10  -2  -4 17019.4 1347.41  17
  10   2   4 16378.0 1297.76   7
  10  -2   4 15110.9 1368.64  14
  10   2   4 18195.3 1503.46  14
 -10   2  -4 21014.7 1652.09  12
 -10  -2  -4 19775.1 1597.27  12
  10  -2   5 2244.84 586.945  14
  10   2   5 1855.00 551.293  14
  10   2   5 717.418 292.879   7
 -10   2  -5 1499.84 536.003  12
 -10  -2  -5 2081.22 619.922  12
  10  -2   6 4879.58 740.429  18
  10  -2   6 7142.63 1016.88  14
  10   2   6 5489.56 907.150  14
 -10  -2  -6 6444.19 1011.41  12
 -10   2  -6 6755.42 1039.19  12
  10  -2   7 324.390 255.168  18
  10  -2   7 1028.47 423.036  14
  10   2   7 655.503 415.708  14
 -10  -2  -7 840.055 398.909   2
 -10   2  -7 1249.56 543.219  12
 -10  -2  -7 977.692 494.433  12
  10  -2   8-519.400 328.557  18
  10  -2   8 537.735 339.111  14
  10   2   8 1253.67 528.934  14
 -10  -2  -8 371.223 361.740   2
 -10   2  -8 93.2359 421.754  12
 -10  -2  -8 77.2148 370.167  12
  10   3 -17 2484.73 626.513  10
 -10   3  17 3291.35 711.967  15
 -10  -3  17 2654.20 641.924  13
  10   3 -16 765.882 376.051  10
  10  -3 -16 1516.28 512.111  10
  10   3 -16 1317.10 481.025   9
 -10  -3  16 2108.97 603.102  17
 -10   3  16 1216.63 456.517  15
 -10  -3  16 943.725 397.065  13
 -10  -3  16 1184.52 482.666   6
 -10   3  16 623.035 400.432   6
  10   3 -15 18059.5 1480.34  10
  10  -3 -15 15612.1 1456.35  10
  10   3 -15 17601.3 1551.45   9
 -10  -3  15 18112.3 1612.53  17
 -10   3  15 17399.3 1499.33  15
 -10  -3  15 17451.0 1544.59  13
 -10  -3  15 17088.1 1572.21   6
 -10   3  15 19575.3 1690.16   6
  10   3 -14-610.452 376.802  10
  10  -3 -14 402.478 325.110  10
  10   3 -14 93.0090 292.215   9
 -10  -3  14 313.349 303.415  17
 -10  -3  14 169.806 261.321  13
 -10  -3  14-366.495 406.167   6
 -10   3  14 488.620 355.669   6
  10   3 -13 9932.26 1000.61  10
  10  -3 -13 10959.5 1167.77  10
  10   3 -13 7201.43 949.449   9
 -10  -3  13 9641.22 1101.88  17
  10   3 -13 7633.12 896.921   7
 -10  -3  13 9806.26 1092.70  13
 -10  -3  13 8490.85 1079.85   6
 -10   3  13 8422.29 1060.85   6
  10  -3 -12 1545.46 515.775  10
  10   3 -12 641.159 365.168   9
 -10  -3  12 1140.54 411.616  17
  10   3 -12 1342.96 408.323   7
 -10  -3  12 1281.69 426.986  13
 -10  -3  12 1709.75 505.638   6
 -10   3  12 2397.63 597.505   6
  10  -3 -11 3167.05 626.698  10
  10   3 -11 3643.36 668.927   9
 -10  -3  11 3161.88 623.661  17
  10   3 -11 3592.70 627.671   7
 -10  -3  11 2930.58 592.271  13
 -10  -3  11 2481.98 579.157   6
 -10   3  11 3570.36 665.055   6
  10  -3 -10 2371.66 537.149  10
  10   3 -10 1048.65 386.917   9
 -10  -3  10 1076.66 386.445  17
  10   3 -10 1265.35 435.389   7
 -10  -3  10 1870.50 486.277  13
 -10  -3  10 1401.25 461.468   6
 -10   3  10 1797.82 482.963   6
  10  -3  -9 17633.4 1350.09  10
  10   3  -9 15961.5 1249.75   9
 -10  -3   9 18808.2 1398.58  17
  10  -3  -9 15583.8 1327.10   7
  10   3  -9 16884.7 1291.30   7
 -10  -3   9 17804.4 1367.60  13
 -10  -3   9 15946.1 1278.95   6
 -10   3   9 15190.6 1225.48   6
  10  -3  -8 333.917 271.719  10
  10   3  -8-20.1061 243.105   9
 -10  -3   8 231.679 242.836  17
  10  -3  -8 732.434 402.361   7
  10   3  -8 849.105 361.160   7
 -10  -3   8 307.754 234.499  13
 -10   3   8 599.949 267.886   6
  10  -3  -7 16486.2 1223.59  10
  10   3  -7 16129.5 1160.06   9
 -10  -3   7 18130.0 1316.05  17
  10  -3  -7 16942.8 1321.66   7
  10   3  -7 15270.5 1224.29   7
 -10  -3   7 17442.1 1317.45  13
 -10   3   7 16487.4 1157.22   6
  10  -3  -6 2112.40 446.202  10
  10   3  -6 2371.18 435.754   9
 -10  -3   6 2182.54 445.324  17
 -10   3   6 2609.29 540.598   8
  10  -3  -6 2385.45 524.724   7
  10   3  -6 2948.90 573.811   7
 -10  -3   6 2545.04 571.891  13
  10  -3  -5 6927.51 786.134  10
  10   3  -5 7949.22 763.897   9
 -10  -3   5 8782.24 902.337  17
 -10   3   5 7880.73 889.100   8
  10  -3  -5 8174.09 906.715   3
  10  -3  -5 7140.62 867.131   7
  10   3  -5 7934.44 899.930   7
 -10  -3   5 8094.07 905.558  13
 -10   3   5 8482.90 804.556  12
 -10  -3   5 8799.96 829.182  12
  10  -3  -4 15502.7 1149.00  10
 -10  -3   4 12220.6 1050.93  17
 -10   3   4 11753.2 1088.62   8
  10  -3  -4 12878.9 1140.32   3
  10  -3  -4 12832.1 1113.81   7
  10   3  -4 12889.5 1150.93   7
 -10  -3   4 14445.9 1186.22  13
 -10   3   4 11916.7 995.559  12
 -10  -3   4 12519.3 1003.21  12
 -10  -3   3 12963.7 1069.64  17
 -10   3   3 11387.8 1070.77   8
  10  -3  -3 12588.5 1128.40   3
  10  -3  -3 12510.8 1075.88   7
  10   3  -3 10880.5 1070.38   7
  10  -3  -3 13729.6 984.516  14
 -10  -3   3 12753.8 1138.44  13
 -10   3   3 12639.2 1058.94  12
 -10  -3   3 11809.0 1027.68  12
 -10  -3   2-88.0611 203.448  17
 -10   3   2 207.683 307.217   8
  10  -3  -2 102.607 212.663   7
  10  -3  -2 183.511 188.581  14
  10   3  -2 253.737 309.138   7
  10  -3  -2 93.6241 266.008   3
 -10   3   2-56.8089 271.459  12
 -10  -3   2 324.418 282.547  12
 -10  -3   1 24271.9 1498.53  17
 -10   3   1 22686.1 1547.25   8
  10  -3  -1 22755.9 1412.10   7
  10  -3  -1 24201.7 1525.80   3
  10   3  -1 23036.1 1526.36   7
  10  -3  -1 22189.2 1379.48  14
 -10   3   1 26010.1 1594.59  12
 -10  -3   1 25318.1 1564.15  12
 -10  -3   0 10273.6 1002.44  17
  10  -3   0 10963.3 981.662   7
  10  -3   0 11256.1 1052.21   3
  10   3   0 9631.12 1002.24   7
  10  -3   0 11153.9 1023.03  14
 -10   3   0 10377.1 1062.03  12
 -10  -3   0 11710.9 1130.61  12
 -10  -3  -1 8865.39 956.676  17
  10  -3   1 9052.32 949.814   3
  10   3   1 8425.46 944.051   7
  10  -3   1 8485.84 932.107  14
 -10   3  -1 8071.42 976.340  12
 -10  -3  -1 8525.38 1005.44  12
 -10  -3  -2 2.92763 207.039  17
  10  -3   2-342.110 338.954  14
  10   3   2-635.892 412.277  14
  10   3   2-99.0987 405.920   7
  10  -3   2 225.302 321.008   3
 -10   3  -2-0.65608 314.505  12
 -10  -3  -2-156.943 314.976  12
 -10  -3  -3 6676.18 877.439  17
  10  -3   3 5446.36 746.659   3
  10   3   3 6137.25 835.798   7
  10  -3   3 5515.14 839.635  14
  10   3   3 5563.36 845.222  14
 -10   3  -3 5896.15 911.085  12
 -10  -3  -3 5520.18 903.815  12
 -10  -3  -4 3571.12 686.818  17
  10  -3   4 2969.54 633.870  14
  10   3   4 2158.53 584.063  14
  10   3   4 2389.97 576.937   7
 -10   3  -4 2896.13 688.436  12
 -10  -3  -4 3506.19 741.192  12
 -10  -3  -5 5681.03 854.978  17
  10  -3   5 7054.45 993.882  14
  10   3   5 5390.64 886.021  14
  10   3   5 5573.05 835.002   7
 -10  -3  -5 7724.29 1081.72  12
 -10   3  -5 7051.47 1043.31  12
  10  -3   6 125.940 211.083  18
  10  -3   6 177.605 361.504  14
  10   3   6 547.324 386.974  14
  10   3   6-225.750 352.746   7
 -10   3  -6 466.206 470.490  12
 -10  -3  -6-39.6379 334.708  12
  10  -3   7 786.245 366.024  18
 -10   3  -7 1082.48 453.445   5
  10  -3   7 1289.70 497.407  14
  10   3   7 2068.21 618.929  14
 -10   3  -7 1991.97 607.013  12
 -10  -3  -7 801.896 553.190  12
  10  -3   8 213.686 228.021  18
  10  -3   8-56.8973 291.971  14
  10   3   8 255.639 373.541  14
 -10   3  -8-134.975 372.959  12
 -10  -3  -8 301.593 413.561  12
  10   4 -17 476.696 328.857  10
  10  -4 -16 3354.71 738.295  10
  10   4 -16 4208.46 807.349   9
 -10  -4  16 3680.81 769.631  17
 -10   4  16 3669.21 733.848  15
 -10  -4  16 3909.27 794.729  13
 -10  -4  16 3647.60 813.565   6
 -10   4  16 2704.38 675.119   6
  10  -4 -15 111.816 321.853  10
  10   4 -15-250.439 301.517   9
 -10  -4  15 73.8170 292.141  17
 -10  -4  15 178.473 248.549  13
 -10  -4  15 508.295 398.912   6
 -10   4  15-405.792 432.317   6
  10  -4 -14 1586.16 504.253  10
  10   4 -14 1227.22 439.510   9
 -10  -4  14 1094.87 447.597  17
 -10  -4  14 2821.98 652.939  13
 -10  -4  14 2815.00 707.361   6
 -10   4  14 1543.00 540.138   6
  10  -4 -13 514.541 319.124  10
  10   4 -13 351.539 401.766   9
 -10  -4  13 263.772 325.259  17
 -10  -4  13 40.3210 255.207   6
 -10  -4  13 278.894 251.007  13
 -10   4  13 80.8682 349.147   6
  10  -4 -12 3320.05 644.828  10
  10   4 -12 1796.44 547.297   9
 -10  -4  12 3197.03 662.038  17
  10   4 -12 2728.16 541.668   7
 -10  -4  12 3170.69 737.629   6
 -10  -4  12 3004.74 629.605  13
 -10   4  12 3283.30 703.769   6
  10  -4 -11 1184.63 480.168  10
  10   4 -11 535.176 306.379   9
 -10  -4  11 1506.72 514.758  17
  10   4 -11 642.607 349.988   7
 -10  -4  11 702.779 358.585  13
 -10   4  11 860.403 386.791   6
  10  -4 -10 14865.0 1303.93  10
  10   4 -10 14227.8 1234.51   9
 -10  -4  10 13979.8 1286.35  17
  10   4 -10 13423.1 1177.60   7
 -10  -4  10 14649.4 1315.21  13
 -10   4  10 12540.9 1160.41   6
  10  -4  -9 749.764 403.258  10
  10   4  -9 1672.71 482.607   9
 -10  -4   9 1556.27 461.322  17
  10   4  -9 1240.43 417.641   7
 -10  -4   9 942.941 358.058  13
 -10   4   9 1427.91 387.958   6
  10  -4  -8 24741.6 1621.43  10
  10   4  -8 23918.7 1509.95   9
 -10  -4   8 23234.3 1561.87  17
  10   4  -8 21461.4 1486.59   7
 -10  -4   8 24795.7 1653.53  13
 -10   4   8 25583.1 1540.84   6
  10  -4  -7 5869.49 779.997  10
  10   4  -7 5384.90 702.155   9
 -10  -4   7 5985.52 806.626  17
  10  -4  -7 4752.09 758.915   7
  10   4  -7 4268.91 696.785   7
 -10  -4   7 4717.91 734.150  13
 -10   4   7 4883.23 662.385   6
  10  -4  -6 11911.9 1083.87  10
  10   4  -6 11025.7 945.561   9
 -10  -4   6 8969.04 987.244  17
 -10   4   6 8925.39 972.573   8
  10  -4  -6 10038.3 1043.24   7
  10  -4  -6 9493.66 1018.32   3
  10   4  -6 10361.4 1031.54   7
 -10  -4   6 11051.9 1080.70  13
  10  -4  -5 1003.40 357.536  10
 -10  -4   5 315.710 228.817  17
 -10   4   5 604.552 299.001   8
  10  -4  -5 1185.34 407.360   7
  10   4  -5 1158.78 422.078   7
  10  -4  -5 717.106 365.226   3
 -10  -4   5 1701.57 491.919  13
 -10  -4   5 453.324 255.880  12
  10  -4  -4 12536.5 1101.99  10
 -10  -4   4 11511.1 1072.51  17
 -10   4   4 11162.9 1109.47   8
  10  -4  -4 10653.3 1033.47   7
  10  -4  -4 10956.2 1094.64   3
  10   4  -4 12466.1 1157.77   7
 -10  -4   4 11425.4 1103.22  13
 -10   4   4 12028.9 1043.70  12
 -10  -4   4 9740.62 921.483  12
 -10  -4   3 2511.17 502.958  17
 -10   4   3 3922.65 685.184   8
  10  -4  -3 2388.97 501.691   7
  10   4  -3 3296.59 626.036   7
  10  -4  -3 3206.83 613.184   3
 -10  -4   3 3301.89 614.802  13
 -10   4   3 2176.62 497.039  12
 -10  -4   3 3106.98 582.953  12
 -10  -4   2 10383.5 1036.20  17
 -10   4   2 11534.6 1153.44   8
  10  -4  -2 12256.7 1071.49   7
  10  -4  -2 11539.0 1094.42   3
  10   4  -2 11649.0 1127.84   7
  10  -4  -2 11774.3 970.438  14
 -10  -4   2 12658.5 1188.85  13
 -10   4   2 11912.2 1093.57  12
 -10  -4   2 12149.0 1090.21  12
 -10  -4   1 3197.03 605.345  17
 -10   4   1 2967.15 654.997   8
  10  -4  -1 3565.48 593.090   7
  10  -4  -1 3065.38 534.854  14
  10   4  -1 2825.54 569.559   7
  10  -4  -1 2035.18 491.680   3
 -10   4   1 2729.00 580.984  12
 -10  -4   1 3080.73 609.322  12
 -10  -4   0 3318.85 637.063  17
  10  -4   0 2247.33 504.734  14
  10   4   0 2486.53 581.770   7
  10  -4   0 2505.48 541.800   3
 -10   4   0 2952.55 623.204  12
 -10  -4   0 2214.44 533.788  12
 -10  -4  -1 2427.55 551.941  17
  10  -4   1 2545.69 509.281  14
  10   4   1 2982.05 602.230   7
  10  -4   1 2498.56 544.982   3
 -10   4  -1 3491.24 696.262  12
 -10  -4  -1 2218.45 561.728  12
 -10  -4  -2 9350.29 1040.05  17
  10  -4   2 10470.4 1067.53   3
  10   4   2 9922.69 1084.09   7
  10  -4   2 10851.4 1106.51  14
 -10   4  -2 10896.3 1169.78  12
 -10  -4  -2 7989.44 1018.06  12
 -10  -4  -3 4015.30 718.883  17
  10  -4   3 3831.00 709.803  14
  10   4   3 3481.45 657.855   7
  10  -4   3 2901.35 567.400   3
 -10   4  -3 3997.80 735.101  12
 -10  -4  -3 4975.09 852.506  12
 -10   4  -4 18767.9 1612.45   5
 -10  -4  -4 19597.3 1589.30  17
  10  -4   4 19852.1 1469.05   3
  10   4   4 19443.7 1526.50   7
  10  -4   4 20309.9 1626.22  14
 -10   4  -4 20727.0 1693.84  12
 -10  -4  -4 20473.5 1675.26  12
 -10   4  -5 116.077 361.130   5
 -10  -4  -5 84.9853 258.473  17
  10  -4   5 834.952 368.831  14
  10   4   5 768.325 394.293   7
 -10   4  -5 394.049 427.139  12
 -10  -4  -5 198.441 280.010  12
 -10   4  -6 6312.40 960.221   5
  10  -4   6 5603.95 938.377  14
  10   4   6 6377.34 933.224   7
 -10   4  -6 7259.65 1072.89  12
 -10  -4  -6 7795.86 1107.58  12
 -10   4  -7-24.2494 278.419   5
  10  -4   7 116.424 266.142  14
  10   4   7 1190.50 482.908  14
 -10   4  -7 638.434 428.655  12
 -10  -4  -7 787.253 437.294  12
 -10   4  -8-196.401 300.069   5
  10  -5 -15 5483.00 922.224  10
  10   5 -15 2952.63 723.041   9
 -10  -5  15 5730.60 948.910  17
 -10  -5  15 4579.82 859.389  13
 -10   5  15 3416.69 782.792   6
  10  -5 -14 916.751 463.799  10
  10   5 -14 1242.03 505.926   9
 -10  -5  14 1244.09 475.814  17
 -10  -5  14 1499.69 528.358  13
 -10   5  14 789.245 400.763   6
  10  -5 -13 14347.8 1414.18  10
  10   5 -13 10885.3 1213.95   9
 -10  -5  13 13873.6 1435.73  17
 -10  -5  13 11863.9 1289.34  13
 -10   5  13 12616.0 1345.43   6
  10  -5 -12-115.976 295.273  10
  10   5 -12 122.447 260.808   9
 -10  -5  12 171.378 270.129  17
 -10  -5  12 144.562 322.651  13
  10  -5 -11 15201.4 1426.10  10
  10   5 -11 15257.6 1370.92   9
 -10  -5  11 14281.7 1380.80  17
  10   5 -11 13200.1 1191.91   7
 -10  -5  11 14572.3 1386.57  13
  10  -5 -10 4332.61 758.776  10
 -10  -5  10 6181.16 884.221  17
  10   5 -10 4113.61 712.822   9
  10   5 -10 4586.66 721.512   7
 -10  -5  10 3627.72 693.067  13
  10  -5  -9 6689.25 908.508  10
 -10  -5   9 6843.82 917.597  17
  10   5  -9 5418.70 771.356   9
  10   5  -9 4523.57 698.734   7
 -10  -5   9 5370.65 837.524  13
 -10   5   8 441.128 334.516   1
  10  -5  -8 455.297 360.306  10
 -10   5   8-9.11392 202.164   5
  10   5  -8 1.66843 230.260   9
 -10  -5   8 513.351 319.220  17
  10   5  -8 611.310 331.919   7
 -10  -5   8 461.090 362.617  13
  10  -5  -7 1924.34 504.820  10
 -10   5   7 1697.33 459.903   5
  10   5  -7 2241.41 476.141   9
 -10  -5   7 2331.55 525.829  17
 -10   5   7 1924.45 474.166   8
  10   5  -7 2328.41 555.461   7
  10  -5  -7 3234.18 669.686   3
 -10  -5   7 1789.52 485.185  13
 -10   5   6 4947.21 744.043   5
  10  -5  -6 6050.53 843.184  10
  10   5  -6 5722.98 708.473   9
 -10  -5   6 6234.04 857.725  17
 -10   5   6 5155.21 760.035   8
  10   5  -6 5035.92 760.824   7
  10  -5  -6 4914.53 789.052   3
 -10  -5   6 4780.07 751.421  13
 -10   5   5 7093.95 916.205   5
  10  -5  -5 7581.04 922.263  10
 -10  -5   5 8867.42 983.540  17
 -10   5   5 6780.59 872.673   8
  10  -5  -5 7462.23 914.863   3
  10   5  -5 7857.87 964.498   7
 -10  -5   5 8565.28 998.736  13
  10  -5  -4 521.515 356.691  10
 -10  -5   4-348.318 289.796  17
 -10   5   4 119.023 287.153   8
  10   5  -4 493.266 315.098   7
  10  -5  -4 405.450 351.915   3
 -10  -5   4 100.460 285.221  13
 -10   5   4 26.9130 244.627  12
 -10  -5   3 29932.0 1828.87  17
 -10   5   3 31064.9 1893.33   8
  10  -5  -3 27448.0 1758.26   3
  10   5  -3 28566.7 1793.68   7
 -10  -5   3 31371.8 1909.07  13
 -10   5   3 29600.6 1736.26  12
 -10  -5   3 30755.3 1747.48  12
 -10  -5   2 384.714 304.328  17
 -10   5   2 268.014 250.047   8
  10  -5  -2 513.014 322.130   7
 -10  -5   2 818.599 345.353   4
  10   5  -2-340.103 430.862   7
  10  -5  -2 15.6693 277.615   3
 -10  -5   2 428.589 351.627  13
 -10   5   2 256.573 317.539  12
 -10  -5   2 794.592 383.955  12
 -10   5   1 16949.7 1493.27   5
 -10  -5   1 19289.4 1485.00  17
 -10   5   1 17710.4 1469.89   8
  10  -5  -1 16816.0 1393.80   3
  10   5  -1 16844.4 1403.37   7
 -10  -5   1 19109.0 1503.94  13
 -10   5   1 17245.8 1403.33  12
 -10  -5   1 18206.8 1446.22  12
 -10   5   0-110.665 322.310   5
 -10  -5   0 261.587 326.271  17
  10  -5   0-100.886 172.230  14
  10   5   0-130.335 326.430   7
  10  -5   0 111.112 321.544   3
 -10   5   0 746.045 424.610  12
 -10  -5   0 39.5239 292.522  12
 -10   5  -1 1953.06 539.741   5
 -10  -5  -1 1526.99 437.610  17
  10  -5   1 2041.75 492.899  14
  10   5   1 1121.04 464.059   7
  10  -5   1 2206.10 549.843   3
 -10   5  -1 1460.77 507.363  12
 -10  -5  -1 2249.00 559.014  12
 -10   5  -2 1787.85 516.250   5
 -10  -5  -2 1700.14 543.373  17
  10  -5   2 2493.03 552.745  14
  10   5   2 2155.55 591.203   7
  10  -5   2 1884.93 491.680   3
 -10   5  -2 2113.29 543.563  12
 -10  -5  -2 1872.14 529.521  12
 -10   5  -3 953.987 468.694   5
 -10  -5  -3 2639.21 615.226  17
  10  -5   3 1635.47 496.948  14
  10   5   3 1329.69 459.164   7
  10  -5   3 2175.27 542.823   3
 -10   5  -3 1140.48 526.684  12
 -10  -5  -3 2228.69 597.357  12
 -10   5  -4 234.870 277.532   5
 -10  -5  -4 70.4186 261.036  17
  10  -5   4-270.286 267.333  14
  10   5   4 204.166 272.891   7
  10  -5   4-432.464 331.453   3
 -10   5  -4-189.197 398.471  12
 -10  -5  -4-7.12204 328.082  12
 -10   5  -5 2493.45 609.940   5
 -10  -5  -5 4049.68 806.983  17
  10  -5   5 3695.13 764.522  14
  10   5   5 3011.66 688.787   7
 -10   5  -5 3590.14 776.373  12
 -10  -5  -5 2969.73 684.797  12
 -10   5  -6 1668.68 548.916   5
  10  -5   6 2003.79 587.778  14
  10   5   6 2274.00 626.656   7
 -10   5  -6 2822.45 687.129  12
 -10  -5  -6 2490.93 629.640  12
 -10   5  -7 3904.30 776.615   5
  10   5   7 3627.77 769.037   7
  10  -6 -14 1116.95 439.348  10
  10   6 -14 1246.66 517.838   9
 -10  -6  14 1533.85 575.612  17
 -10  -6  14 1902.61 582.168  13
  10  -6 -13 853.422 463.228  10
  10   6 -13 1075.55 489.746   9
 -10  -6  13 1707.33 534.931  17
 -10  -6  13 867.553 416.783  13
  10  -6 -12 4285.19 820.917  10
  10   6 -12 4538.35 831.000   9
 -10  -6  12 3846.32 752.130  17
 -10  -6  12 4647.33 842.788  13
 -10   6  11 128.299 323.757   1
  10  -6 -11 636.877 426.454  10
  10   6 -11-94.2625 299.756   9
 -10  -6  11 501.408 257.439  17
 -10  -6  11 104.002 326.446  13
  10  -6 -10 12359.1 1274.17  10
  10   6 -10 9374.29 1075.99   9
 -10  -6  10 9755.29 1161.47  17
  10   6 -10 10268.6 1065.31   7
 -10   6  10 7035.11 915.692   1
 -10  -6  10 10529.4 1198.58  13
  10  -6  -9 398.113 346.663  10
  10   6  -9 501.705 351.562   9
 -10  -6   9 458.539 348.189  17
 -10   6   9-185.428 302.263   1
  10   6  -9 11.1770 226.062   7
 -10  -6   9 126.508 274.822  13
 -10   6   8 3165.29 592.370   1
  10  -6  -8 3441.04 688.147  10
  10   6  -8 3068.02 612.227   9
 -10  -6   8 3403.91 683.509  17
 -10   6   8 2671.97 577.054   8
  10   6  -8 4044.93 698.713   7
  10  -6  -8 3779.68 683.561   3
 -10  -6   8 4144.33 758.362  13
  10  -6  -7 1431.07 462.458  10
 -10   6   7 379.486 223.885   5
  10   6  -7 956.890 365.943   9
 -10  -6   7 1004.01 435.135  17
 -10   6   7 981.756 405.305   8
  10   6  -7 1676.20 486.268   7
  10  -6  -7 1214.27 530.700   3
 -10  -6   7 971.245 378.513  13
  10  -6  -6 2714.42 594.231  10
 -10   6   6 3663.98 674.967   5
 -10  -6   6 3384.25 677.555  17
 -10   6   6 3705.49 685.708   8
  10   6  -6 3279.04 654.391   7
  10  -6  -6 3041.40 645.854   3
 -10  -6   6 3379.00 683.729  13
  10  -6  -5 668.193 405.220  10
 -10   6   5 311.558 237.648   5
 -10  -6   5 899.879 402.478  17
 -10   6   5 637.446 370.801   8
  10   6  -5 610.354 380.985   7
  10  -6  -5 552.973 350.317   3
 -10  -6   5 637.654 402.214  13
 -10   6   4 11575.3 1202.72   5
 -10  -6   4 11277.1 1181.07  17
 -10   6   4 11923.2 1212.35   8
  10  -6  -4 10022.8 1112.46   3
  10   6  -4 11182.9 1155.28   7
 -10  -6   4 11958.2 1234.70  13
 -10   6   3 3451.24 722.825   5
 -10  -6   3 4296.16 746.306  17
 -10   6   3 4305.91 756.051   8
  10   6  -3 3939.54 693.704   7
  10  -6  -3 3536.80 703.612   3
 -10  -6   3 3186.29 660.697  13
 -10   6   2 14077.7 1387.22   5
 -10  -6   2 14685.7 1338.12  17
 -10  -6   2 17158.6 1339.84   4
 -10   6   2 17221.3 1485.55   8
  10  -6  -2 15757.4 1388.21   3
  10   6  -2 16699.1 1448.87   7
 -10  -6   2 15758.8 1416.81  13
 -10   6   2 16870.5 1409.33  12
 -10   6   1 1214.42 453.706   5
 -10  -6   1 1079.55 401.320  17
  10   6  -1 526.000 344.162   7
 -10  -6   1 1429.97 462.548  13
  10  -6  -1 1301.08 406.980   3
 -10   6   1 919.095 395.254  12
 -10  -6   1 974.832 384.528  12
 -10   6   0 11558.3 1297.17   5
 -10  -6   0 11261.6 1203.95  17
  10  -6   0 10215.3 1150.27   3
  10   6   0 11462.3 1230.89   7
 -10  -6   0 10958.2 1183.45  13
 -10   6   0 10682.8 1192.18  12
 -10  -6   0 11738.9 1251.15  12
 -10   6  -1 1085.56 433.872   5
 -10  -6  -1 1346.19 476.698  17
  10  -6   1 1592.28 441.562  14
 -10  -6  -1 2416.01 617.107  13
  10   6   1 2092.88 581.322   7
  10  -6   1 2439.74 599.589   3
 -10   6  -1 1669.69 519.451  12
 -10  -6  -1 1280.97 456.198  12
 -10   6  -2 2830.40 671.746   5
 -10  -6  -2 3284.66 718.281  17
  10  -6   2 2319.30 547.026  14
  10   6   2 3470.54 731.336   7
  10  -6   2 3146.88 681.358   3
 -10   6  -2 3935.95 786.437  12
 -10  -6  -2 4073.47 776.206  12
 -10   6  -3 365.134 319.454   5
 -10  -6  -3 87.8212 230.496  17
  10  -6   3-107.720 297.260  14
  10   6   3 173.789 307.051   7
  10  -6   3 48.1564 294.635   3
 -10   6  -3-21.2992 417.052  12
 -10  -6  -3 391.391 439.345  12
 -10   6  -4 3789.74 786.833   5
 -10  -6  -4 4222.28 815.039  17
  10  -6   4 4437.05 809.130  14
  10   6   4 2849.41 680.833   7
  10  -6   4 3469.99 698.104   3
 -10   6  -4 4253.23 841.225  12
 -10  -6  -4 3136.37 743.672  12
 -10   6  -5 540.937 416.402   5
 -10  -6  -5-421.941 345.755  17
  10  -6   5 290.550 343.676  14
  10   6   5 125.818 253.989   7
  10  -6   5 176.144 294.772   3
 -10   6  -5-179.638 407.731  12
 -10  -6  -5-264.243 421.412  12
  10   6   6 2512.80 654.867   7
  10   7 -13 747.162 402.825   9
  10  -7 -12-354.490 406.520  10
  10   7 -12 157.224 326.706   9
 -10  -7  12-344.684 347.325  17
 -10  -7  12 114.828 308.957  13
 -10   7  12 554.728 430.211   1
  10  -7 -11 1871.93 579.131  10
 -10   7  11 1507.69 497.750   1
  10   7 -11 1316.79 476.307   9
 -10  -7  11 1464.76 535.911  17
 -10  -7  11 535.020 395.130  13
  10  -7 -10 2453.13 666.032  10
  10   7 -10 1952.63 573.370   9
 -10  -7  10 1468.04 517.018  17
 -10   7  10 1627.61 564.099   8
 -10   7  10 361.376 348.059   1
 -10  -7  10 699.114 382.542  13
  10  -7  -9 10132.0 1192.39  10
  10   7  -9 9963.76 1126.20   9
 -10  -7   9 11435.9 1290.76  17
 -10   7   9 5979.43 913.273   1
 -10   7   9 9791.57 1144.47   8
  10  -7  -9 10299.7 1180.98   3
  10   7  -9 10133.6 1104.32   7
 -10  -7   9 11051.9 1259.94  13
  10  -7  -8-513.104 398.401  10
  10   7  -8-216.357 351.371   9
 -10  -7   8 238.691 291.043  17
 -10   7   8-197.576 262.328   8
  10   7  -8 357.546 304.569   7
  10  -7  -8 584.887 415.986   3
 -10  -7   8 207.323 339.251  13
 -10   7   8 167.532 271.025   1
 -10   7   7 20086.6 1581.42   5
  10  -7  -7 21081.0 1688.02  10
 -10  -7   7 20052.1 1652.99  17
 -10   7   7 17337.3 1481.95   8
  10  -7  -7 19486.5 1580.26   3
  10   7  -7 19162.6 1523.79   7
 -10  -7   7 22242.0 1742.98  13
 -10   7   6 1355.75 462.417   5
  10  -7  -6 1413.49 553.135  10
 -10  -7   6 92.6755 292.844  17
 -10   7   6 602.517 276.356   8
  10   7  -6 1074.04 457.215   7
  10  -7  -6 769.418 411.472   3
 -10  -7   6 1287.67 444.831  13
 -10   7   5 9421.55 1116.45   5
 -10  -7   5 11289.1 1234.78  17
 -10   7   5 8877.23 1074.77   8
  10  -7  -5 11464.6 1231.54   3
  10   7  -5 11205.8 1202.05   7
 -10  -7   5 11809.7 1301.52  13
 -10   7   4-81.1958 327.765   5
 -10  -7   4 531.282 338.250  17
 -10   7   4 359.991 285.555   8
 -10  -7   4 527.888 366.771   4
  10   7  -4-1.42090 286.009   7
  10  -7  -4-266.680 301.701   3
 -10  -7   4 834.040 410.288  13
 -10   7   3 770.252 367.628   5
 -10  -7   3 861.018 392.092  17
 -10   7   3 710.003 408.794   8
 -10  -7   3 921.140 347.076   4
  10   7  -3 914.019 368.693   7
  10  -7  -3 1543.02 527.067   3
 -10  -7   3 500.676 263.371  13
 -10   7   2 392.789 322.527   5
 -10  -7   2-271.106 365.952  17
 -10  -7   2 77.1392 256.952   4
  10   7  -2 132.323 300.399   7
 -10  -7   2-251.877 308.494  13
  10  -7  -2-193.679 246.721   3
 -10   7   1 535.547 396.009   5
 -10  -7   1-170.618 378.060  17
 -10  -7   1 296.586 234.654   4
  10   7  -1 523.869 393.880   7
 -10  -7   1 291.017 337.367  13
  10  -7  -1 689.102 363.038   3
 -10   7   0 93.0397 325.993   5
 -10  -7   0-208.692 238.441  17
  10   7   0 301.144 357.785   7
 -10  -7   0 115.810 280.150  13
  10  -7   0-80.3111 265.633   3
 -10   7   0 132.162 364.865  12
 -10   7  -1 9183.93 1199.58   5
 -10  -7  -1 9217.37 1148.73  17
  10  -7   1 8833.89 1115.84   3
  10   7   1 9640.01 1184.70   7
 -10  -7  -1 8258.23 1076.71  13
 -10   7  -1 8913.54 1131.42  12
 -10   7  -2 362.974 306.631   5
 -10  -7  -2 2304.42 642.074  17
  10   7   2 1058.38 438.239   7
 -10  -7  -2 1367.96 486.375  13
  10  -7   2 1800.03 563.253   3
 -10   7  -2 911.515 445.888  12
 -10   7  -3 8804.89 1213.87   5
 -10  -7  -3 9497.41 1204.92  17
  10  -7   3 9693.36 1169.90   3
  10  -7   3 9489.62 1138.03  14
  10   7   3 9169.74 1182.77   7
 -10  -7  -3 10376.1 1229.08  13
 -10   7  -3 8821.50 1170.51  12
 -10   7  -4 255.517 358.120   5
 -10  -7  -4 230.365 276.984  17
  10  -7   4-435.419 365.106  14
  10   7   4 325.829 360.893   7
  10  -7   4 227.559 250.636   3
 -10   8  12 4439.39 823.895   8
 -10   8  11 36.1885 352.116   1
  10   8 -11 773.422 372.543   9
 -10   8  11-251.558 345.844   8
  10  -8 -10 3354.44 766.014  10
  10   8 -10 2490.40 626.221   9
 -10  -8  10 3004.70 732.247  17
 -10   8  10 2437.53 610.705   8
 -10   8  10 1285.90 505.131   1
 -10  -8  10 2779.83 699.020  13
 -10   8   9-117.334 386.434   1
  10  -8  -9-395.431 333.811  10
  10   8  -9 971.173 501.260   9
 -10  -8   9 39.8353 256.524  17
 -10   8   9-212.167 366.588   8
  10  -8  -9 134.684 355.343   3
 -10  -8   9-123.672 284.222  13
  10  -8  -8 1398.73 461.990  10
 -10  -8   8 722.175 368.134  17
 -10   8   8 1372.68 460.921   8
 -10   8   8 241.778 342.633   1
  10  -8  -8 1681.74 545.433   3
 -10  -8   8 830.190 409.256  13
  10  -8  -7 459.788 341.293  10
 -10  -8   7 70.0135 258.476  17
 -10   8   7 328.709 315.231   8
  10   8  -7 308.451 311.810   7
  10  -8  -7 493.677 437.319   3
 -10  -8   7 913.125 419.631  13
 -10   8   6 4950.76 839.448   5
 -10  -8   6 4320.98 816.247  17
 -10   8   6 4386.27 800.569   8
  10   8  -6 4385.29 797.599   7
  10  -8  -6 4098.96 775.689   3
 -10  -8   6 4306.32 818.097  13
 -10   8   5 859.175 420.369   5
 -10  -8   5 554.159 279.452  17
 -10   8   5 583.299 343.395   8
 -10  -8   5 664.844 345.549   4
  10   8  -5 539.066 340.892   7
  10  -8  -5 941.781 391.423   3
 -10   8   4 7228.19 1047.95   5
 -10  -8   4 6529.96 993.540  17
 -10  -8   4 6765.32 966.210   4
 -10   8   4 5596.11 917.546   8
 -10  -8   4 6818.02 1006.61  13
  10   8  -4 5403.68 876.708   7
  10  -8  -4 3997.76 773.838   3
 -10   8   3 19.9640 280.791   5
 -10   8   3 535.322 329.810   8
 -10  -8   3 638.286 350.616  17
 -10  -8   3 186.846 226.508   4
  10   8  -3 134.828 296.929   7
  10  -8  -3 293.386 359.682   3
 -10  -8   3 77.2278 236.655  13
 -10   8   2 5879.75 998.415   5
 -10  -8   2 4802.33 843.864  17
 -10  -8   2 4977.54 812.869   4
  10   8  -2 4098.90 783.367   7
 -10  -8   2 5670.17 907.356  13
  10  -8  -2 4186.53 793.226   3
 -10   8   1 2030.73 644.827   5
 -10  -8   1 1551.80 501.047  17
 -10  -8   1 1712.10 486.529   4
  10   8  -1 1742.81 553.321   7
 -10  -8   1 1138.29 484.593  13
  10  -8  -1 1225.22 510.582   3
 -10   8   0 5575.95 970.397   5
 -10  -8   0 5336.23 919.816  17
  10   8   0 5190.91 892.233   7
 -10  -8   0 5707.32 918.412  13
  10  -8   0 5969.83 958.570   3
 -10   8  -1 556.581 405.430   5
 -10  -8  -1-261.318 359.825  17
  10   8   1-441.430 422.670   7
 -10  -8  -1-410.017 383.413  13
  10  -8   1 281.992 367.215   3
 -10  -8  -2 6209.54 978.858  13
  10  -8   2 4602.02 851.785   3
 -10   8  -2 4323.50 880.072  12
  10  -9  -9 1775.04 549.812   3
  10  -9  -8 674.897 399.612   3
 -10   9   8-52.5891 344.792   1
 -10  -9   7 4628.74 871.974   4
  10  -9  -7 4169.87 795.969   3
 -10  -9   7 4494.39 859.299  13
 -10   9   7 2667.12 758.727   1
 -10  -9   6-352.532 397.445  17
 -10  -9   6 431.654 329.887   4
  10   9  -6 887.473 479.610   7
  10  -9  -6-184.328 316.832   3
 -10  -9   6 3.46528 240.550  13
 -10   9   5 7202.01 1074.11   5
 -10  -9   5 8656.61 1171.84  17
 -10  -9   5 10110.1 1253.45   4
 -10   9   5 6828.43 1002.73   8
  10  -9  -5 8278.21 1113.30   3
  10   9  -5 7836.88 1082.61   7
 -10  -9   5 10007.0 1237.25  13
 -10   9   4 1064.68 464.774   5
 -10  -9   4 1519.50 528.691  17
 -10  -9   4 491.085 317.692   4
  10   9  -4 1591.52 554.859   7
  10  -9  -4 1104.56 455.323   3
 -10  -9   4 1220.42 492.586  13
 -10   9   3 1737.93 577.449   5
 -10  -9   3 2293.39 616.593  17
 -10  -9   3 1187.43 455.318   4
  10   9  -3 829.966 422.277   7
  10  -9  -3 2161.81 582.005   3
 -10  -9   3 1286.05 472.633  13
 -10   9   2-109.482 336.490   5
 -10  -9   2-282.252 324.622   4
  10   9  -2 220.045 318.728   7
 -10  -9   2-133.407 336.957  13
 -10  -9   1 672.055 352.799   4
 -10  -9   1 688.220 369.182  13
  11   0 -17 5343.63 903.674  10
  11   0 -16-176.113 303.364  10
 -11   0  16-28.6930 214.541  17
 -11   0  16-221.854 358.899   6
  11   0 -15 1709.60 494.204  10
 -11   0  15 2331.77 564.801  17
 -11   0  15 2392.82 588.069   6
  11   0 -14 140.460 253.778  10
 -11   0  14-215.260 258.799  17
  11   0 -14 282.158 309.802   7
 -11   0  14-293.146 402.014   6
  11   0 -13 1899.15 497.835  10
 -11   0  13 2292.50 520.684  17
  11   0 -13 2528.13 614.079   7
 -11   0  13 3089.90 689.858   6
  11   0 -12 33.4488 275.092  10
  11   0 -12-150.757 316.288   7
 -11   0  12-400.647 299.669   6
  11   0 -11 36765.7 1892.70  10
  11   0 -11 31227.5 1907.35   7
 -11   0  11 33641.3 1949.39   6
  11   0 -10 471.639 300.549  10
  11   0 -10 140.110 284.691   7
 -11   0  10-439.959 375.062   6
  11   0  -9 46361.5 1987.80  10
  11   0  -9 43490.6 2194.28   7
 -11   0   9 44221.7 1960.18  13
 -11   0   9 41903.3 2022.25   6
  11   0  -8-30.2140 210.704  10
  11   0  -8 233.850 316.583   7
 -11   0   8-49.2993 187.747  13
 -11   0   8-373.582 252.260   6
  11   0  -7 522.231 275.030   7
 -11   0   7 447.138 198.802  13
 -11   0   7 660.530 290.769   6
 -11   0   6-125.593 306.773   8
  11   0  -6-387.558 356.005   7
 -11   0   6-43.2365 187.726  13
 -11   0   5 229.688 180.585   8
  11   0  -5-127.068 353.592   7
 -11   0   5 281.889 227.294  13
 -11   0   4 239.685 259.614   8
  11   0  -4 157.063 265.941   7
 -11   0   4 189.449 223.911  13
 -11   0   4 69.6500 235.219  12
 -11   0   3 12354.0 1081.03   8
  11   0  -3 11161.9 1075.93   7
  11   0  -3 11495.5 1017.79  14
 -11   0   3 10497.8 991.275  12
 -11   0   2 150.088 301.414   8
  11   0  -2-102.156 274.873   7
  11   0  -2 252.957 272.612  14
 -11   0   2-558.421 405.774  12
 -11   0   1 12032.0 1091.92   8
  11   0  -1 12198.8 1111.04   7
  11   0  -1 13202.5 1151.72  14
 -11   0   1 14048.2 1213.72  12
  11   0   0 617.081 369.001  14
  11   0   0-56.1387 260.294   7
 -11   0   0 222.545 250.076  12
  11   0   1 17147.7 1320.16   7
  11   0   1 17754.4 1424.37  14
 -11   0  -1 19705.1 1543.65  12
  11   0   2-206.022 385.287  14
  11   0   2-77.0157 210.198   7
 -11   0  -2-14.6049 337.175  12
  11   0   3 15693.5 1413.50  14
 -11   0  -3 14454.8 1387.98  12
  11   0   4 166.455 283.113  14
 -11   0  -4-757.696 537.127  12
  11   0   5 1695.32 566.727  14
 -11   0  -5 2961.29 713.574  12
  11   0   6 858.301 467.634  14
 -11   0  -6-683.253 526.908  12
  11   0   7 691.026 410.003  14
 -11   0  -7 436.976 420.892  12
  11   1 -17-30.7971 284.151  10
 -11  -1  17-292.379 263.947  17
  11   1 -16 5740.24 890.912  10
  11  -1 -16 5738.15 919.914  10
 -11  -1  16 4270.53 762.072  17
 -11  -1  16 4686.31 854.449   6
 -11   1  16 4865.41 877.131   6
  11   1 -15 158.010 235.961  10
  11  -1 -15-499.980 422.453  10
 -11  -1  15-283.880 326.455  17
  11   1 -15-749.746 415.748   7
 -11  -1  15-516.357 459.258   6
 -11   1  15 279.402 367.832   6
  11   1 -14 1974.19 512.341  10
  11  -1 -14 3211.94 686.070  10
 -11  -1  14 2638.33 587.464  17
  11   1 -14 2164.69 586.385   7
 -11  -1  14 2367.35 632.901   6
 -11   1  14 2898.31 708.744   6
  11   1 -13-114.207 295.869  10
  11  -1 -13 6.54413 283.018  10
 -11  -1  13 476.278 355.972  17
  11  -1 -13-34.9400 265.886   7
  11   1 -13-187.769 282.063   7
 -11  -1  13 137.840 301.618   6
 -11   1  13 86.9691 398.838   6
  11   1 -12 10555.6 1037.18  10
  11  -1 -12 10671.9 1076.40  10
 -11  -1  12 9190.03 1025.35  17
  11  -1 -12 8315.21 1011.71   7
  11   1 -12 7553.33 1026.87   7
 -11  -1  12 9828.91 1007.50  13
 -11  -1  12 10517.4 1147.80   6
 -11   1  12 10441.7 1148.63   6
  11   1 -11 1278.20 373.670  10
  11  -1 -11 1839.63 483.565  10
 -11  -1  11 1539.27 439.158  17
  11  -1 -11 705.107 373.093   7
  11   1 -11 1587.68 443.207   7
 -11  -1  11 1650.40 438.640  13
 -11  -1  11 1206.48 412.062   6
 -11   1  11 1688.01 514.148   6
  11   1 -10 17733.8 1238.01  10
  11  -1 -10 17710.1 1319.66  10
 -11  -1  10 18579.5 1338.48  17
  11  -1 -10 15805.7 1364.27   7
  11   1 -10 18344.8 1432.85   7
 -11  -1  10 17101.5 1281.42  13
 -11  -1  10 17816.7 1385.33   6
 -11   1  10 16201.8 1304.41   6
  11  -1  -9-38.6263 208.811  10
 -11  -1   9 20.4348 182.889  17
  11  -1  -9-608.759 380.006   7
  11   1  -9 59.7098 221.452   7
 -11  -1   9-242.518 261.981  13
 -11  -1   9 262.861 248.893   6
 -11   1   9 312.041 320.933   6
  11  -1  -8 3697.38 589.296  10
 -11  -1   8 3103.26 547.738  17
  11  -1  -8 1923.22 505.442   7
  11   1  -8 2372.11 541.885   7
 -11  -1   8 1759.91 453.983  13
 -11  -1   8 2166.18 482.279   6
 -11   1   8 2639.19 532.648   6
  11  -1  -7 916.026 311.813  10
 -11  -1   7 593.332 249.503  17
  11  -1  -7 1773.58 497.113   7
  11   1  -7 1348.65 442.120   7
 -11  -1   7 1027.92 358.652  13
 -11  -1   7 1263.61 358.369   6
 -11   1   7 1214.54 353.870   6
  11  -1  -6 5746.46 691.485  10
 -11  -1   6 5691.11 690.833  17
 -11   1   6 5783.42 769.540   8
 -11  -1   6 5158.88 679.811   8
  11  -1  -6 6244.29 837.728   7
  11   1  -6 4900.98 721.391   7
 -11  -1   6 6709.64 797.848  13
 -11  -1   6 6288.46 727.640   6
  11  -1  -5 1141.06 341.987  10
 -11  -1   5 1125.76 332.869  17
 -11  -1   5 698.509 246.584   8
 -11   1   5 760.566 293.632   8
  11  -1  -5 832.313 360.108   7
  11   1  -5 854.741 375.419   7
 -11   1   5 947.910 311.812  13
 -11  -1   5 1575.28 429.247  13
 -11  -1   4 55945.9 2083.26  17
 -11  -1   4 53132.4 2152.62   8
 -11   1   4 50619.8 2238.17   8
  11  -1  -4 51149.3 2272.94   7
  11   1  -4 52939.8 2324.83   7
  11  -1  -4 57077.7 2129.88  14
 -11   1   4 51392.9 2056.22  13
 -11  -1   4 55687.3 2289.96  13
 -11   1   4 54349.7 2131.58  12
 -11  -1   4 54270.8 2137.59  12
 -11  -1   3-129.149 201.814   8
 -11   1   3 138.087 269.837   8
  11  -1  -3 62.0027 274.093   7
  11  -1  -3 223.849 273.260  14
  11   1  -3-6.26675 267.295   7
 -11   1   3 97.8598 212.161  12
 -11  -1   3 206.256 229.883  12
 -11  -1   2 25674.0 1540.07   8
 -11   1   2 25551.1 1623.76   8
  11  -1  -2 28373.2 1668.72   7
  11   1  -2 28251.9 1697.81   7
  11  -1  -2 29362.9 1637.93  14
  11   1  -2 29494.2 1703.86  14
 -11   1   2 27224.7 1619.52  12
 -11  -1   2 28362.5 1669.58  12
 -11   1   1 3264.49 622.995   8
  11  -1  -1 4425.16 694.315   7
  11  -1  -1 3098.54 566.377  14
  11   1  -1 3677.43 618.411  14
  11   1  -1 3897.73 662.442   7
 -11   1   1 4487.77 724.222  12
 -11  -1   1 3641.56 670.959  12
  11  -1   0-96.6693 242.752  14
  11  -1   0 24.2028 204.395   7
  11   1   0 434.202 354.215  14
  11   1   0-284.439 295.785   7
 -11   1   0-251.250 268.331  12
  11  -1   1 1535.54 467.804  14
  11  -1   1 801.178 316.074   7
  11   1   1 1054.43 448.821  14
  11   1   1 969.691 365.279   7
 -11   1  -1 935.702 448.246  12
 -11  -1  -1 1812.58 506.815  12
  11  -1   2 3724.90 693.779  14
  11   1   2 4268.45 781.031  14
  11   1   2 4047.86 659.308   7
 -11   1  -2 3378.23 697.789  12
 -11  -1  -2 4123.04 790.168  12
  11  -1   3 1353.58 485.520  14
  11   1   3 825.687 359.335  14
  11   1   3 1428.14 439.205   7
 -11   1  -3 547.567 369.586  12
 -11  -1  -3 887.055 476.877  12
  11  -1   4 10908.9 1226.87  14
  11   1   4 11703.3 1279.06  14
 -11   1  -4 10597.9 1249.11  12
 -11  -1  -4 11926.1 1310.55  12
  11  -1   5 2096.43 572.978  14
  11   1   5 1986.73 543.949  14
 -11   1  -5 2230.31 662.560  12
 -11  -1  -5 3061.13 690.477  12
  11  -1   6 4082.75 830.918  14
  11   1   6 1685.63 496.893  14
 -11   1  -6 3195.15 722.521  12
 -11  -1  -6 3528.03 809.501  12
  11   2 -17 6591.13 976.061  10
  11   2 -16-60.6957 276.502  10
  11  -2 -16-152.327 203.527  10
  11   2 -16 304.555 317.748   9
 -11  -2  16 365.379 357.413  17
 -11  -2  16 646.995 499.501   6
 -11   2  16 263.981 252.833   6
  11   2 -15 12848.8 1262.64  10
  11  -2 -15 14166.4 1388.26  10
  11   2 -15 10620.9 1236.56   9
 -11  -2  15 11816.7 1297.74  17
 -11  -2  15 11457.5 1215.31  13
 -11  -2  15 10431.0 1268.07   6
 -11   2  15 13261.4 1403.69   6
  11   2 -14 978.826 362.660  10
  11  -2 -14 1895.13 522.268  10
  11   2 -14 1024.90 379.285   9
 -11  -2  14 1539.91 487.302  17
  11   2 -14 2340.45 559.551   7
 -11  -2  14 1533.10 501.766  13
 -11  -2  14 2044.68 622.700   6
 -11   2  14 2097.32 606.214   6
  11   2 -13 1388.77 434.386  10
  11  -2 -13 833.629 388.972  10
  11   2 -13 2091.41 543.067   9
 -11  -2  13 1859.73 514.543  17
  11   2 -13 2459.44 605.469   7
 -11  -2  13 1791.72 493.842  13
 -11  -2  13 1622.80 537.353   6
 -11   2  13 1641.34 492.363   6
  11  -2 -12 1882.40 526.613  10
  11   2 -12 1642.87 478.804   9
 -11  -2  12 2576.31 559.174  17
  11   2 -12 2058.20 525.607   7
 -11  -2  12 2308.58 533.279  13
 -11  -2  12 1622.88 556.629   6
 -11   2  12 1747.07 548.006   6
  11  -2 -11 4900.09 730.900  10
  11   2 -11 3105.56 616.257   9
 -11  -2  11 4888.94 760.384  17
  11  -2 -11 3869.37 730.176   7
  11   2 -11 3733.30 682.412   7
 -11  -2  11 3977.71 689.829  13
 -11  -2  11 3446.19 701.799   6
 -11   2  11 4931.22 784.263   6
  11  -2 -10 304.213 267.513  10
  11   2 -10 109.585 227.639   9
 -11  -2  10 771.030 395.080  17
  11  -2 -10 294.400 339.274   7
  11   2 -10 148.913 266.531   7
 -11  -2  10 147.182 220.071  13
 -11  -2  10-79.7917 297.979   6
 -11   2  10 660.028 339.152   6
  11  -2  -9 15186.1 1227.29  10
  11   2  -9 16367.9 1272.86   9
 -11  -2   9 15328.9 1242.28  17
  11  -2  -9 13469.0 1260.70   7
  11   2  -9 12770.8 1192.48   7
 -11  -2   9 14221.8 1220.67  13
 -11  -2   9 14350.9 1246.98   6
 -11   2   9 15234.5 1230.76   6
  11  -2  -8 1415.03 426.901  10
 -11  -2   8 1149.78 371.325  17
  11  -2  -8 586.978 357.755   7
  11   2  -8 694.816 325.278   7
 -11  -2   8 1013.22 385.798  13
 -11  -2   8 793.040 355.935   6
 -11   2   8 751.786 306.700   6
  11  -2  -7 16101.3 1229.88  10
 -11  -2   7 14723.3 1197.47  17
  11  -2  -7 14496.9 1301.57   7
  11   2  -7 16562.8 1338.13   7
 -11  -2   7 17577.5 1336.41  13
  11  -2  -6 2703.46 525.780  10
 -11  -2   6 1617.61 383.101  17
 -11   2   6 1894.77 504.522   8
 -11  -2   6 1731.73 414.506   8
  11  -2  -6 2697.30 582.398   7
  11   2  -6 2234.38 530.926   7
 -11  -2   6 2688.80 541.298  13
  11  -2  -5 15212.1 1134.89  10
 -11  -2   5 14289.3 1129.88  17
 -11  -2   5 14360.4 1092.01   8
 -11   2   5 15129.6 1275.04   8
  11  -2  -5 13785.2 1215.93   7
  11   2  -5 15156.6 1274.81   7
 -11  -2   5 15862.2 1258.88  13
  11  -2  -4-47.4276 173.980  10
 -11  -2   4-65.9262 194.383  17
 -11  -2   4 142.394 168.755   8
 -11   2   4 202.771 304.448   8
  11  -2  -4-128.935 291.907   7
  11   2  -4 166.557 308.192   7
 -11  -2   4-153.001 241.449  13
 -11   2   4 148.229 250.032  12
 -11  -2   4 324.164 355.308  12
 -11  -2   3 10679.6 977.696  17
 -11  -2   3 12045.2 1012.24   8
 -11   2   3 10140.4 1058.05   8
  11  -2  -3 9727.14 988.924   7
  11   2  -3 9509.11 1035.32   7
  11  -2  -3 12553.7 1037.73  14
 -11  -2   3 10442.5 1062.59  13
 -11   2   3 11905.6 1074.95  12
 -11  -2   3 11509.6 1038.54  12
 -11  -2   2 5328.40 706.162  17
 -11  -2   2 5784.07 711.455   8
 -11   2   2 5862.22 833.611   8
  11  -2  -2 6072.23 796.466   7
  11   2  -2 6424.47 854.845   7
  11  -2  -2 5331.41 694.954  14
 -11   2   2 6030.44 802.346  12
 -11  -2   2 5014.72 753.698  12
 -11  -2   1 2722.83 525.976  17
 -11   2   1 1690.29 496.770   8
  11  -2  -1 2096.40 489.968   7
  11  -2  -1 2288.54 493.305  14
  11   2  -1 1575.39 437.420   7
 -11   2   1 2137.06 528.328  12
 -11  -2   1 2252.72 568.379  12
 -11  -2   0-188.349 210.782  17
  11  -2   0 135.125 235.332   7
  11  -2   0 144.230 193.403  14
  11   2   0-122.607 290.414  14
  11   2   0-240.959 292.756   7
 -11   2   0 711.764 376.206  12
 -11  -2   0 252.529 334.691  12
 -11  -2  -1 8146.79 903.283  17
  11  -2   1 6404.13 803.947   3
  11   2   1 7220.45 904.372   7
  11  -2   1 9265.46 1025.38  14
  11   2   1 9345.45 1061.94  14
 -11   2  -1 7817.24 1002.31  12
 -11  -2  -1 7315.05 964.632  12
  11  -2   2 4912.72 726.075   3
  11   2   2 5255.25 815.927   7
  11  -2   2 3929.43 734.621  14
  11   2   2 4280.62 763.938  14
 -11   2  -2 4744.16 838.702  12
 -11  -2  -2 4822.44 839.523  12
  11   2   3 18942.9 1482.08   7
  11  -2   3 20366.8 1619.97  14
  11   2   3 20306.5 1639.67  14
 -11   2  -3 16562.6 1492.80  12
 -11  -2  -3 23341.4 1780.04  12
  11  -2   4 390.593 330.620  14
  11   2   4 338.250 339.160  14
  11   2   4 155.372 275.871   7
 -11   2  -4 196.956 327.257  12
 -11  -2  -4 214.801 379.881  12
  11  -2   5 1676.87 548.389  14
  11   2   5 1300.75 479.849  14
 -11   2  -5 2243.97 588.298  12
 -11  -2  -5 1982.58 596.828  12
  11  -2   6 71.7908 292.638  14
  11   2   6 168.700 309.623  14
 -11  -2  -6-263.010 328.982   2
 -11   2  -6-46.6586 347.746  12
 -11  -2  -6 214.375 365.656  12
 -11  -2  -7 73.7904 227.165   2
  11  -3 -16 3218.57 746.009  10
 -11  -3  16 2947.63 669.325  17
 -11  -3  16 2138.39 577.452  13
 -11   3  16 2823.35 664.940   6
  11  -3 -15 495.786 404.360  10
  11   3 -15 146.421 276.160   9
 -11  -3  15-139.205 332.031  17
 -11  -3  15-252.322 274.821  13
 -11  -3  15-150.680 309.201   6
 -11   3  15-422.139 385.705   6
  11  -3 -14 2224.67 567.216  10
  11   3 -14 1948.24 544.571   9
 -11  -3  14 2703.73 637.405  17
 -11  -3  14 1736.69 495.472  13
 -11  -3  14 2057.36 604.089   6
 -11   3  14 2273.35 629.106   6
  11  -3 -13 2195.97 603.716  10
  11   3 -13 960.927 465.834   9
 -11  -3  13 1527.77 508.630  17
  11   3 -13 1797.05 476.265   7
 -11  -3  13 2220.09 562.930  13
 -11  -3  13 567.952 407.082   6
 -11   3  13 823.366 398.540   6
  11  -3 -12 7339.93 964.205  10
  11   3 -12 5799.08 882.846   9
 -11  -3  12 6980.41 943.249  17
  11   3 -12 6337.70 866.758   7
 -11  -3  12 7630.22 1017.41  13
 -11  -3  12 6283.27 921.124   6
 -11   3  12 6835.44 931.429   6
  11  -3 -11 582.200 337.338  10
  11   3 -11 1878.11 510.192   9
 -11  -3  11 1872.55 521.891  17
  11   3 -11 1502.25 464.237   7
 -11  -3  11 1489.77 437.388  13
 -11  -3  11 1685.79 495.839   6
 -11   3  11 2078.88 538.189   6
  11  -3 -10 21432.8 1542.48  10
  11   3 -10 19800.2 1459.32   9
 -11  -3  10 21420.7 1554.90  17
  11  -3 -10 18544.2 1548.60   7
  11   3 -10 17560.9 1416.03   7
 -11  -3  10 19614.9 1514.50  13
 -11  -3  10 18505.7 1488.40   6
 -11   3  10 18228.8 1414.81   6
  11  -3  -9 1968.32 477.315  10
  11   3  -9 1474.42 432.117   9
 -11  -3   9 2314.91 532.969  17
  11  -3  -9 3092.03 669.345   7
  11   3  -9 1598.14 434.523   7
 -11  -3   9 1923.19 528.042  13
 -11   3   9 2050.62 499.169   6
  11  -3  -8 8158.10 958.597  10
  11   3  -8 8173.24 892.653   9
 -11  -3   8 8666.60 958.915  17
  11  -3  -8 8591.35 1023.84   7
  11   3  -8 7424.25 920.063   7
 -11  -3   8 8871.74 1003.10  13
 -11   3   8 7715.34 851.034   6
  11  -3  -7 848.985 350.495  10
  11   3  -7 1476.04 397.999   9
 -11  -3   7 1275.24 447.815  17
 -11   3   7 1049.59 344.981   8
  11  -3  -7 953.964 435.933   7
  11   3  -7 1155.96 431.042   7
 -11  -3   7 1599.10 467.002  13
  11  -3  -6 6598.08 822.234  10
 -11  -3   6 6587.50 824.742  17
 -11   3   6 5403.45 809.403   8
  11   3  -6 6741.45 880.727   7
  11  -3  -6 5806.63 798.314   7
 -11  -3   6 6107.22 821.970  13
  11  -3  -5 2238.51 498.244  10
 -11  -3   5 1562.31 436.883  17
 -11   3   5 1666.70 495.892   8
  11  -3  -5 1173.32 443.965   7
  11   3  -5 1277.76 447.487   7
 -11  -3   5 1032.49 350.116  13
  11  -3  -4 17858.1 1291.53  10
 -11  -3   4 16735.3 1287.21  17
 -11   3   4 16015.5 1342.92   8
  11  -3  -4 14977.1 1266.75   7
  11   3  -4 15886.7 1326.08   7
 -11  -3   4 17833.0 1403.65  13
 -11   3   4 17251.2 1265.93  12
 -11  -3   4 16668.8 1233.78  12
 -11  -3   3 375.788 279.902  17
 -11   3   3 25.2923 229.459   8
  11  -3  -3 718.360 398.246   3
  11  -3  -3 298.788 277.742   7
  11   3  -3 334.007 330.261   7
 -11  -3   3-102.246 255.014  13
 -11   3   3 307.770 302.891  12
 -11  -3   3-82.5514 290.287  12
 -11  -3   2 5499.02 763.759  17
 -11   3   2 5944.39 861.475   8
  11  -3  -2 6337.45 869.447   3
  11  -3  -2 6367.35 820.518   7
  11   3  -2 6710.51 884.132   7
  11  -3  -2 6368.13 775.328  14
 -11  -3   2 4293.30 727.876  13
 -11   3   2 5686.37 789.496  12
 -11  -3   2 5915.95 806.285  12
 -11   3   1 41.3587 271.676   8
 -11  -3   1 151.250 204.496  17
  11  -3  -1 564.003 315.003   7
  11  -3  -1 159.223 198.504  14
  11   3  -1 459.274 377.319   7
  11  -3  -1-102.768 260.309   3
 -11   3   1 238.296 250.823  12
 -11  -3   1 316.928 238.421  12
 -11  -3   0 5792.68 796.378  17
  11  -3   0 6006.10 827.661   3
  11   3   0 6795.51 903.150   7
  11  -3   0 5952.82 806.169  14
 -11   3   0 6593.29 913.406  12
 -11  -3   0 5810.25 831.509  12
 -11  -3  -1 147.215 272.806  17
  11  -3   1-50.4398 314.738  14
  11   3   1 727.127 379.422   7
  11  -3   1 233.895 294.366   3
 -11   3  -1 366.383 363.541  12
 -11  -3  -1 956.739 501.990  12
 -11  -3  -2 14762.2 1312.68  17
  11  -3   2 14478.5 1256.85   3
  11   3   2 14642.7 1325.97   7
  11  -3   2 16628.4 1410.69  14
 -11   3  -2 17428.1 1536.73  12
 -11  -3  -2 15221.9 1428.94  12
 -11  -3  -3 244.771 273.112  17
  11  -3   3 500.708 347.932  14
  11   3   3 451.333 372.921  14
  11   3   3 103.420 311.621   7
 -11  -3  -3 824.864 513.435  12
 -11  -3  -4 7706.33 1007.04  17
  11   3   4 7337.68 969.398   7
  11  -3   4 9618.80 1162.52  14
  11   3   4 7107.04 1006.45  14
 -11  -3  -4 10409.1 1240.28  12
 -11   3  -4 7495.39 1055.90  12
  11  -3   5 1442.37 498.378  14
  11   3   5 1452.57 480.656  14
  11   3   5 549.976 292.510   7
 -11   3  -5 1507.95 536.360  12
 -11  -3  -5 1087.94 512.614  12
 -11   3  -6 29.2224 298.655   5
  11  -3   6 76.8282 325.354  14
  11   3   6 257.742 347.154  14
 -11   3  -6 462.061 367.171  12
 -11  -3  -6 209.728 315.249  12
  11  -4 -15 7211.19 1050.13  10
  11   4 -15 5667.13 952.180   9
 -11  -4  15 7818.29 1103.53  17
 -11   4  15 7521.16 1098.31   6
 -11  -4  15 6188.61 988.728  13
  11  -4 -14-495.615 373.757  10
  11   4 -14 446.208 338.568   9
 -11  -4  14-20.7703 331.552  17
 -11  -4  14-372.803 390.253  13
 -11   4  14-15.9233 285.297   6
  11  -4 -13 4182.94 758.456  10
  11   4 -13 4402.52 792.165   9
 -11  -4  13 4407.34 819.300  17
 -11  -4  13 4912.08 835.487  13
 -11   4  13 4898.35 858.763   6
  11  -4 -12 2278.17 565.358  10
  11   4 -12 1771.24 542.514   9
 -11  -4  12 1654.85 514.925  17
  11   4 -12 1449.73 448.495   7
 -11  -4  12 2451.76 598.381  13
 -11   4  12 1336.69 457.970   6
  11  -4 -11 2989.74 640.526  10
  11   4 -11 3275.86 688.515   9
 -11  -4  11 2517.78 596.231  17
  11   4 -11 3300.57 667.680   7
 -11  -4  11 3127.63 668.717  13
 -11   4  11 3781.60 709.831   6
  11  -4 -10 480.622 296.041  10
  11   4 -10-306.905 383.939   9
 -11  -4  10 215.344 238.625  17
  11   4 -10 283.339 282.370   7
 -11  -4  10 254.982 274.374  13
 -11   4  10 279.371 317.824   6
  11  -4  -9 3797.61 681.976  10
  11   4  -9 2139.49 509.991   9
 -11  -4   9 4031.69 727.185  17
  11   4  -9 3529.82 658.808   7
 -11  -4   9 3816.34 684.466  13
 -11   4   9 2960.61 592.813   6
  11  -4  -8 7849.07 954.718  10
  11   4  -8 8030.20 881.640   9
 -11  -4   8 8377.35 998.322  17
  11   4  -8 7517.17 942.632   7
 -11  -4   8 6753.34 954.606  13
  11  -4  -7 9015.08 1000.64  10
  11   4  -7 5950.14 749.266   9
 -11  -4   7 8196.61 972.702  17
 -11   4   7 8482.92 1017.99   8
  11  -4  -7 7856.94 983.545   7
  11   4  -7 7198.16 920.540   7
 -11  -4   7 7636.40 963.729  13
  11  -4  -6 719.293 352.931  10
 -11  -4   6 575.832 288.813  17
 -11   4   6 342.267 237.242   8
  11  -4  -6 829.209 367.300   7
  11   4  -6 911.854 382.602   7
 -11  -4   6 1100.82 405.541  13
  11  -4  -5 24623.5 1611.54  10
 -11  -4   5 21392.0 1524.72  17
 -11   4   5 24686.6 1699.97   8
  11  -4  -5 23550.9 1623.21   7
  11  -4  -5 23417.4 1629.28   3
  11   4  -5 23272.7 1636.33   7
 -11  -4   5 24826.6 1711.27  13
 -11  -4   4 4416.47 713.971  17
 -11   4   4 4461.40 778.269   8
  11  -4  -4 4499.42 712.785   7
  11   4  -4 3399.81 690.490   7
  11  -4  -4 4045.29 729.880   3
 -11  -4   4 3220.62 639.184  13
 -11   4   4 3756.61 631.755  12
 -11  -4   4 3816.86 679.019  12
 -11  -4   3 22463.7 1566.51  17
 -11   4   3 23293.9 1670.26   8
  11  -4  -3 24489.8 1609.27   7
  11  -4  -3 26312.6 1741.05   3
  11   4  -3 25787.9 1737.33   7
 -11  -4   3 24453.9 1705.41  13
 -11   4   3 23943.6 1580.98  12
 -11  -4   3 24702.9 1599.00  12
 -11  -4   2 353.871 256.415  17
 -11   4   2 808.160 341.156   8
  11  -4  -2 714.830 355.377   7
  11   4  -2 934.284 447.730   7
  11  -4  -2 159.523 300.867   3
 -11  -4   2 695.980 412.076  13
 -11   4   2 390.538 322.515  12
 -11  -4   2 837.967 357.465  12
 -11   4   1 3202.94 680.986   8
 -11  -4   1 3614.84 658.095  17
  11  -4  -1 3512.86 619.435  14
 -11  -4   1 2829.45 637.103  13
  11   4  -1 3182.13 662.583   7
  11  -4  -1 3325.77 641.855   3
 -11   4   1 2959.91 600.611  12
 -11  -4   1 3779.68 725.060  12
 -11  -4   0 595.758 348.555  17
  11  -4   0 478.103 225.078  14
  11   4   0-132.855 360.754   7
  11  -4   0 676.646 368.859   3
 -11   4   0 797.424 391.309  12
 -11  -4   0 819.422 413.261  12
 -11  -4  -1 753.753 369.406  17
  11  -4   1 256.514 225.798  14
  11   4   1 277.717 314.851   7
  11  -4   1 777.982 368.304   3
 -11   4  -1 848.941 424.967  12
 -11  -4  -1 1629.65 545.094  12
 -11  -4  -2 311.914 254.868  17
  11  -4   2-161.268 293.165  14
  11   4   2-451.700 440.828   7
  11  -4   2 74.2003 224.440   3
 -11   4  -2 367.068 377.801  12
 -11  -4  -2-236.532 383.495  12
 -11  -4  -3 3272.14 686.762  17
  11  -4   3 4187.87 760.569  14
  11   4   3 3381.26 660.555   7
  11  -4   3 3350.89 645.501   3
 -11   4  -3 5085.86 905.187  12
 -11  -4  -3 4737.37 852.903  12
 -11   4  -4-297.862 379.150   5
 -11  -4  -4 192.255 286.623  17
  11  -4   4 56.5573 253.498  14
  11   4   4-261.959 333.854   7
 -11   4  -4 820.837 484.107  12
 -11  -4  -4-274.979 367.966  12
 -11   4  -5 5098.10 909.207   5
  11  -4   5 4607.32 836.849  14
  11   4   5 3058.95 665.834   7
 -11   4  -5 5733.76 996.441  12
 -11  -4  -5 3654.57 783.840  12
 -11   4  -6-20.5874 309.675   5
  11   4   6-765.493 454.746   7
  11  -5 -14 240.078 263.253  10
  11   5 -14 985.806 444.158   9
 -11  -5  14 2011.47 616.598  17
 -11  -5  14 1366.67 506.489  13
 -11   5  14 1471.00 519.452   6
  11  -5 -13 448.416 338.329  10
  11   5 -13 187.652 285.697   9
 -11  -5  13 108.544 304.596  17
 -11  -5  13 569.819 409.043  13
 -11   5  13 113.879 245.084   6
  11  -5 -12 15995.9 1501.19  10
  11   5 -12 13777.4 1373.45   9
 -11  -5  12 13338.4 1399.17  17
 -11  -5  12 12334.9 1357.94  13
 -11   5  12 13823.5 1399.69   6
  11  -5 -11-213.735 321.699  10
  11   5 -11 483.028 335.579   9
 -11  -5  11 221.251 286.955  17
  11   5 -11 204.762 284.362   7
 -11  -5  11 94.4010 295.591  13
 -11   5  11-99.4268 217.088   6
  11  -5 -10 17555.8 1553.47  10
  11   5 -10 18590.5 1484.38   9
 -11  -5  10 17961.3 1558.26  17
  11   5 -10 17560.0 1441.83   7
 -11  -5  10 18275.0 1580.56  13
 -11   5  10 16011.2 1382.15   6
  11  -5  -9 163.403 314.269  10
  11   5  -9-89.5841 262.082   9
 -11  -5   9 79.3637 243.282  17
  11   5  -9 1011.36 450.033   7
 -11  -5   9 349.457 349.740  13
  11  -5  -8 3727.43 723.958  10
 -11   5   8 3495.18 642.765   5
  11   5  -8 3668.57 627.924   9
 -11  -5   8 3775.26 727.985  17
 -11   5   8 3641.88 710.870   8
  11   5  -8 3085.75 641.584   7
 -11  -5   8 3934.14 747.892  13
 -11   5   7 114.001 213.327   5
 -11  -5   7 436.584 315.252  17
 -11   5   7 426.491 293.169   8
  11   5  -7 761.224 415.997   7
 -11  -5   7 315.287 331.616  13
  11  -5  -6 1472.73 472.381  10
 -11   5   6 35.0636 292.411   5
 -11  -5   6 1092.47 443.971  17
 -11   5   6 766.291 375.716   8
  11   5  -6 1246.00 454.828   7
  11  -5  -6 1018.42 474.429   3
 -11  -5   6 85.3773 320.203  13
  11  -5  -5 1365.65 468.766  10
 -11  -5   5 1000.16 414.667  17
 -11   5   5 800.179 357.546   8
  11   5  -5 1875.43 563.632   7
  11  -5  -5 1820.77 536.327   3
 -11  -5   5 1297.64 526.035  13
 -11  -5   4 5445.71 817.271  17
 -11   5   4 5266.51 831.372   8
  11   5  -4 5158.72 810.605   7
  11  -5  -4 5483.04 851.539   3
 -11  -5   4 4566.96 789.334  13
 -11  -5   4 6233.45 815.190  12
 -11   5   4 4533.10 710.538  12
 -11  -5   3 1971.60 548.273  17
 -11   5   3 2491.41 617.058   8
  11  -5  -3 2847.46 598.092   7
  11   5  -3 2463.31 651.758   7
  11  -5  -3 2084.07 531.902   3
 -11  -5   3 2271.05 585.154  13
 -11   5   3 1925.26 492.944  12
 -11  -5   3 2414.08 590.510  12
 -11  -5   2 11630.4 1192.06  17
 -11   5   2 10547.5 1203.44   8
  11  -5  -2 11719.2 1218.57   3
  11   5  -2 8863.14 1057.87   7
 -11  -5   2 11304.2 1210.12  13
 -11   5   2 10383.2 1131.75  12
 -11  -5   2 10962.6 1152.18  12
 -11   5   1 4616.30 865.704   5
 -11  -5   1 3374.00 664.439  17
  11   5  -1 2402.90 590.757   7
  11  -5  -1 4663.29 811.903   3
 -11  -5   1 5500.79 866.275  13
 -11   5   1 4101.45 737.099  12
 -11  -5   1 2911.13 633.932  12
 -11   5   0 5970.67 952.113   5
 -11  -5   0 5848.85 904.127  17
  11  -5   0 7113.69 959.916   3
  11   5   0 6355.95 943.477   7
 -11  -5   0 8209.15 1059.75  13
 -11   5   0 6471.72 948.605  12
 -11  -5   0 6604.21 967.392  12
 -11   5  -1 1437.65 510.040   5
 -11  -5  -1 1648.49 505.419  17
  11  -5   1 1772.14 494.901  14
  11   5   1 1821.86 526.760   7
  11  -5   1 1241.47 431.894   3
 -11   5  -1 2377.04 671.985  12
 -11  -5  -1 1356.17 509.094  12
 -11   5  -2 6698.35 1044.74   5
 -11  -5  -2 6730.40 983.991  17
  11  -5   2 6455.41 918.769  14
  11   5   2 6295.09 920.948   7
  11  -5   2 4967.97 813.657   3
 -11   5  -2 5400.85 936.669  12
 -11  -5  -2 6092.56 918.818  12
 -11   5  -3 549.805 405.388   5
 -11  -5  -3 292.651 294.067  17
  11  -5   3 1508.17 527.000  14
  11   5   3 510.087 368.008   7
  11  -5   3 757.965 383.837   3
 -11   5  -3 560.927 364.342  12
 -11  -5  -3 930.612 434.138  12
 -11   5  -4 4380.18 870.992   5
 -11  -5  -4 4399.36 850.614  17
  11  -5   4 4204.52 796.248  14
  11   5   4 4425.24 822.941   7
 -11   5  -4 5041.85 963.254  12
 -11  -5  -4 4909.91 909.189  12
 -11  -5  -5 110.659 262.191  17
  11  -5   5 363.906 350.232  14
  11   5   5 286.840 358.213   7
  11  -6 -13 2437.27 676.240  10
  11   6 -13 2390.76 659.933   9
 -11  -6  13 1159.27 510.281  17
 -11  -6  13 2627.18 652.662  13
 -11   6  13 1979.09 608.406   6
  11  -6 -12 2245.83 614.484  10
  11   6 -12 1663.64 545.360   9
 -11  -6  12 2568.92 713.373  17
 -11  -6  12 1660.86 573.821  13
 -11   6  12 1503.62 518.955   6
  11  -6 -11 7151.15 1033.05  10
 -11  -6  11 6258.03 1000.95  17
  11   6 -11 5951.56 906.835   9
 -11  -6  11 6883.56 1036.58  13
 -11   6  11 4651.93 800.959   6
  11  -6 -10 387.340 400.952  10
  11   6 -10 46.4133 258.400   9
 -11  -6  10-34.1980 263.231  17
 -11   6  10 167.481 204.763   8
  11   6 -10-260.096 296.276   7
 -11  -6  10 161.733 288.245  13
  11  -6  -9 10677.4 1201.52  10
  11   6  -9 9593.79 1065.59   9
 -11  -6   9 11558.7 1278.11  17
 -11   6   9 9259.40 1139.66   8
  11   6  -9 10440.3 1152.79   7
 -11  -6   9 10500.9 1219.82  13
  11  -6  -8 3150.64 746.317  10
 -11  -6   8 2661.24 626.714  17
 -11   6   8 2321.92 639.821   8
  11   6  -8 2936.48 629.726   7
 -11  -6   8 2554.50 648.254  13
  11  -6  -7 7703.33 1022.46  10
 -11   6   7 5082.84 814.824   5
 -11  -6   7 6844.69 994.543  17
 -11   6   7 5835.51 884.892   8
  11   6  -7 4395.06 771.011   7
  11  -6  -7 5500.38 888.621   3
 -11  -6   7 6040.06 939.065  13
  11  -6  -6 513.430 358.822  10
 -11   6   6 470.086 266.175   5
 -11  -6   6 1008.25 450.454  17
 -11   6   6 270.086 339.746   8
  11   6  -6 516.174 379.399   7
  11  -6  -6 1004.74 421.999   3
 -11  -6   6 580.802 446.684  13
 -11   6   5 5322.22 870.768   5
 -11  -6   5 5417.60 866.830  17
 -11   6   5 3218.55 660.318   8
  11   6  -5 4308.84 796.152   7
  11  -6  -5 4359.34 811.401   3
 -11  -6   5 3399.48 678.859  13
 -11   6   4-155.667 327.934   5
 -11  -6   4 112.843 248.149  17
 -11   6   4 203.490 315.770   8
  11   6  -4 210.034 336.101   7
  11  -6  -4-222.956 315.443   3
 -11  -6   4 12.0776 326.396  13
 -11   6   3 5016.65 841.430   5
 -11  -6   3 3877.07 737.821  17
 -11   6   3 4359.76 779.377   8
 -11  -6   3 4393.79 722.298   4
  11   6  -3 4103.52 743.965   7
  11  -6  -3 4842.09 816.229   3
 -11  -6   3 5378.89 882.037  13
 -11   6   3 4162.41 747.411  12
 -11   6   2-231.993 240.373   5
 -11   6   2 771.197 417.872   8
 -11  -6   2 303.777 317.150  17
  11   6  -2-283.874 412.053   7
  11  -6  -2 109.880 299.879   3
 -11  -6   2-75.8765 298.140  13
 -11   6   2 183.939 286.814  12
 -11   6   1 7089.09 1054.14   5
 -11  -6   1 7757.13 1052.44  17
  11  -6  -1 8325.84 1080.45   3
 -11  -6   1 11325.6 1268.53  13
  11   6  -1 5994.72 931.235   7
 -11   6   1 9070.69 1112.07  12
 -11  -6   1 8397.08 1091.78  12
 -11   6   0 1587.34 542.056   5
 -11  -6   0 608.804 326.618  17
  11   6   0 1135.20 457.653   7
  11  -6   0 1512.46 472.478   3
 -11  -6   0 1093.44 426.804  13
 -11   6   0 1591.51 517.087  12
 -11  -6   0 1400.88 514.887  12
 -11   6  -1 6549.58 1051.12   5
 -11  -6  -1 7461.48 1032.70  17
  11  -6   1 8382.34 1077.10   3
  11   6   1 8504.60 1142.40   7
 -11  -6  -1 8505.97 1117.36  13
 -11   6  -1 10761.4 1263.49  12
 -11  -6  -1 11033.7 1281.35  12
 -11   6  -2 97.6285 230.693   5
 -11  -6  -2 456.939 365.636  17
  11  -6   2 906.249 394.784  14
 -11  -6  -2 244.165 296.818  13
  11   6   2-136.939 369.670   7
  11  -6   2-2.32416 217.462   3
 -11   6  -2 190.765 348.843  12
 -11  -6  -2 74.0647 320.523  12
 -11   6  -3 1292.50 553.236   5
 -11  -6  -3 896.588 442.507  17
  11  -6   3 1284.37 484.532  14
  11   6   3 1705.71 551.959   7
  11  -6   3 1779.40 515.389   3
 -11   6  -3 2198.91 638.441  12
 -11  -6  -3 3005.47 703.381  12
  11  -6   4 2410.97 641.224  14
  11  -6   4 1740.72 530.394   3
  11   7 -12 2961.86 711.579   9
  11  -7 -11 447.989 366.610  10
  11   7 -11 954.319 421.963   9
 -11  -7  11 49.7062 232.528  17
 -11   7  11-388.709 412.222   8
 -11  -7  11 161.222 346.374  13
  11  -7 -10 744.914 447.528  10
  11   7 -10 1055.40 490.424   9
 -11  -7  10 269.566 257.962  17
 -11   7  10-11.4266 245.329   8
 -11  -7  10 309.460 341.507  13
  11  -7  -9 264.128 344.497  10
 -11  -7   9 684.290 406.335  17
 -11   7   9-253.197 361.056   8
  11   7  -9-94.0276 212.655   7
 -11  -7   9 127.058 335.315  13
  11  -7  -8 4912.17 888.784  10
 -11  -7   8 4277.72 821.787  17
 -11   7   8 4107.15 799.589   8
  11  -7  -8 4102.63 797.800   3
  11   7  -8 4102.72 755.468   7
 -11  -7   8 5097.50 893.201  13
 -11   7   8 2042.15 522.933   1
 -11   7   7 1014.51 424.647   5
  11  -7  -7 857.750 455.416  10
 -11  -7   7 690.294 366.379  17
 -11   7   7-93.6753 251.065   8
  11   7  -7 1092.95 498.422   7
  11  -7  -7-150.286 343.469   3
 -11  -7   7 1991.85 624.629  13
 -11   7   6 12462.7 1330.07   5
 -11  -7   6 12614.8 1350.48  17
 -11   7   6 11749.2 1284.93   8
  11  -7  -6 11029.8 1234.20   3
  11   7  -6 11396.4 1251.56   7
 -11  -7   6 11962.0 1339.42  13
 -11   7   5 652.646 369.920   5
 -11  -7   5 1247.50 505.868  17
 -11   7   5 341.358 305.041   8
  11   7  -5 515.636 385.189   7
  11  -7  -5 544.224 397.334   3
 -11  -7   5 1132.22 439.037  13
 -11   7   4 6930.87 1030.76   5
 -11  -7   4 7654.76 1058.49  17
 -11   7   4 6883.71 1004.68   8
 -11  -7   4 7788.70 1016.45   4
  11   7  -4 7928.64 1071.64   7
 -11  -7   4 8143.49 1099.23  13
  11  -7  -4 6466.06 944.841   3
 -11   7   3 1777.09 534.344   5
 -11   7   3 1948.22 549.275   8
 -11  -7   3 1152.64 466.743  17
 -11  -7   3 1622.37 482.207   4
  11   7  -3 1190.89 481.562   7
  11  -7  -3 1732.32 561.811   3
 -11  -7   3 2631.43 626.820  13
 -11   7   3 1219.05 460.633  12
 -11   7   2 1363.85 532.637   5
 -11  -7   2 2297.67 645.178  17
  11   7  -2 1039.57 436.027   7
  11  -7  -2 1600.10 473.269   3
 -11  -7   2 1977.48 589.531  13
 -11   7   2 1585.91 525.895  12
 -11   7   1 313.148 385.233   5
 -11  -7   1 259.436 269.529  17
  11   7  -1 519.217 390.880   7
  11  -7  -1 531.806 383.529   3
 -11  -7   1 228.964 327.960  13
 -11   7   1 228.775 302.178  12
 -11   7   0 1040.27 514.599   5
 -11  -7   0 1417.44 517.658  17
  11   7   0 1245.22 490.240   7
 -11  -7   0 1015.08 418.172  13
  11  -7   0 1099.45 454.813   3
 -11   7   0 837.143 423.808  12
 -11   7  -1 1025.95 461.102   5
 -11  -7  -1 1582.96 520.221  17
  11   7   1 1502.51 557.254   7
 -11  -7  -1 1304.09 529.555  13
  11  -7   1 1255.07 491.203   3
 -11   7  -1 1480.48 534.866  12
 -11   8  10 244.579 285.058   8
 -11   8  10 14.7911 304.525   1
 -11   8   9 759.930 400.793   1
 -11   8   9 2541.57 630.464   8
 -11   8   8-890.885 518.917   1
 -11   8   8 45.7011 224.315   8
  11   8  -8-391.571 362.502   7
  11  -8  -8 402.648 380.200   3
 -11  -8   7 6968.13 1052.50  17
 -11   8   7 5031.95 879.888   8
  11  -8  -7 6685.64 1013.10   3
  11   8  -7 6476.89 980.899   7
 -11  -8   7 8068.00 1131.26  13
 -11   8   6 330.043 289.438   5
 -11  -8   6 1414.98 513.723  17
 -11   8   6 578.919 328.875   8
 -11  -8   6 833.112 394.176   4
  11   8  -6 576.889 405.923   7
  11  -8  -6 323.412 327.733   3
 -11  -8   6 1138.76 527.849  13
 -11   8   5 2670.41 711.686   5
 -11  -8   5 2859.30 692.822  17
 -11   8   5 2628.38 651.349   8
 -11  -8   5 2572.99 642.828   4
  11   8  -5 2531.51 657.143   7
  11  -8  -5 2863.50 688.733   3
 -11  -8   5 3204.08 717.632  13
 -11   8   4 91.3547 310.744   5
 -11  -8   4 421.320 301.190  17
 -11   8   4 702.948 477.637   8
 -11  -8   4 235.183 289.545   4
  11   8  -4-309.140 415.441   7
  11  -8  -4-28.6538 363.146   3
 -11  -8   4 17.2025 301.224  13
 -11   8   3 678.275 367.629   5
 -11  -8   3 930.422 455.492  17
 -11  -8   3 646.438 355.976   4
  11   8  -3 672.022 396.232   7
  11  -8  -3 881.303 443.777   3
 -11  -8   3 553.737 365.762  13
 -11   8   3 153.819 287.882  12
 -11   8   2 1008.27 521.893   5
 -11  -8   2 7.13691 228.616  17
  11   8  -2 776.881 436.320   7
  11  -8  -2 1738.74 571.935   3
 -11  -8   2 999.445 415.080  13
 -11   8   2 325.620 268.026  12
 -11   8   1 5943.77 987.580  12
  12   0 -16 1423.34 451.766  10
  12   0 -15 138.702 228.894  10
 -12   0  15-286.968 406.832   6
  12   0 -14 160.428 215.658  10
  12   0 -14 9.32073 278.112   7
 -12   0  14-233.005 402.984   6
  12   0 -13 224.084 243.865  10
  12   0 -13 116.363 283.329   7
 -12   0  13-113.845 286.999   6
  12   0 -12 4469.18 720.435  10
  12   0 -12 4454.85 782.270   7
 -12   0  12 3891.60 742.951   6
  12   0 -11-282.883 302.286  10
  12   0 -11 501.683 404.294   7
 -12   0  11 533.902 418.435   6
  12   0 -10 11168.9 1194.47   7
 -12   0  10 10806.4 1109.56   6
  12   0  -9 518.013 330.910   7
 -12   0   9-120.732 260.668   6
  12   0  -8 5647.21 841.828   7
 -12   0   8 6914.11 822.593   6
 -12   0   7-169.600 279.541   8
  12   0  -7 5.93264 353.607   7
 -12   0   7 179.723 191.422  13
 -12   0   6 14525.8 1244.55   8
  12   0  -6 16168.6 1368.51   7
 -12   0   6 17095.0 1304.31  13
 -12   0   5-14.3125 298.232   8
  12   0  -5 191.254 281.607   7
 -12   0   5 411.448 278.304  13
 -12   0   4 13556.3 1212.40   8
  12   0  -4 17165.2 1410.60   7
 -12   0   4 16475.1 1302.69  13
 -12   0   4 16108.3 1257.07  12
 -12   0   3-84.4865 217.019   8
  12   0  -3 63.9146 273.887   7
  12   0  -3 347.152 264.159  14
 -12   0   3-223.789 335.567  12
 -12   0   2 615.229 397.716   8
  12   0  -2 910.236 408.691   7
  12   0  -2 1035.16 432.908  14
 -12   0   2 185.078 332.372  12
  12   0  -1 114.416 255.755   7
  12   0  -1 220.216 318.721  14
 -12   0   1 205.251 338.776  12
  12   0   0 5249.22 793.125   7
  12   0   0 6446.15 905.543  14
 -12   0   0 3470.84 685.012  12
  12   0   1 138.120 242.360  14
  12   0   1-70.0750 209.331   7
 -12   0  -1-48.2678 329.957  12
  12   0   2 14340.7 1260.40   7
  12   0   2 13064.1 1322.48  14
 -12   0  -2 13052.0 1359.54  12
  12   0   3-131.691 233.786  14
 -12   0  -3-249.576 473.271  12
  12   0   4 2847.81 715.642  14
 -12   0  -4 3486.01 821.743  12
  12   0   5-128.926 316.409  14
 -12   0  -5-356.929 470.678  12
  12   1 -16-199.774 260.855  10
  12  -1 -16-408.523 331.017  10
  12   1 -15 2447.52 597.920  10
  12  -1 -15 2026.82 567.815  10
 -12  -1  15 1347.14 453.589  17
  12   1 -15 706.477 335.972   7
 -12  -1  15 1771.40 572.158   6
 -12   1  15 1180.56 487.924   6
  12   1 -14 803.614 385.811  10
  12  -1 -14 846.962 413.865  10
 -12  -1  14 205.670 234.306  17
  12   1 -14 504.156 342.110   7
 -12  -1  14 579.558 436.368   6
 -12   1  14 979.643 412.149   6
  12  -1 -13 9021.02 1058.82  10
  12  -1 -13 8762.87 1105.39   7
  12   1 -13 9269.20 1123.95   7
 -12  -1  13 10546.4 1202.19   6
 -12   1  13 9910.05 1183.96   6
  12  -1 -12 731.192 371.328  10
  12  -1 -12-27.9158 250.601   7
  12   1 -12-154.610 300.553   7
 -12  -1  12-103.248 303.157   6
 -12   1  12-47.1958 279.082   6
  12  -1 -11 20633.8 1501.92  10
  12  -1 -11 20934.5 1649.20   7
  12   1 -11 19922.3 1581.27   7
 -12  -1  11 21539.2 1618.37   6
 -12   1  11 21131.6 1597.42   6
  12  -1 -10 1728.44 456.732  10
  12  -1 -10 936.137 391.697   7
  12   1 -10 1376.67 471.021   7
 -12  -1  10 649.010 307.196  13
 -12  -1  10 1250.52 439.028   6
 -12   1  10 1203.86 415.383   6
  12  -1  -9 5781.46 777.172  10
  12  -1  -9 5133.64 833.580   7
  12   1  -9 5497.04 854.461   7
 -12  -1   9 4793.02 721.612  13
 -12  -1   9 3637.94 642.439   6
 -12   1   9 5021.79 733.751   6
  12  -1  -8 1697.17 410.826  10
  12  -1  -8 2198.68 585.568   7
  12   1  -8 1661.27 506.000   7
 -12  -1   8 1620.33 434.545  13
 -12  -1   8 1812.23 466.429   6
 -12   1   7 4254.90 714.728   8
 -12  -1   7 3066.28 593.325   8
  12  -1  -7 3208.67 655.064   7
  12   1  -7 3892.82 735.208   7
 -12  -1   7 3852.28 646.470  13
 -12  -1   6-141.464 246.713   8
 -12   1   6 298.572 283.206   8
  12  -1  -6-218.224 317.253   7
  12   1  -6-126.548 333.191   7
 -12  -1   6 127.495 200.949  13
 -12  -1   5 11536.3 1092.01   8
 -12   1   5 11386.5 1140.35   8
  12  -1  -5 12564.7 1209.14   7
  12   1  -5 11809.8 1176.52   7
 -12  -1   5 14190.5 1215.29  13
 -12  -1   4 5460.01 761.680   8
 -12   1   4 5840.76 819.827   8
  12   1  -4 6394.40 889.160   7
  12  -1  -4 7588.86 839.657  14
  12  -1  -4 5207.74 820.662   7
 -12   1   4 6960.60 817.528  13
 -12  -1   4 5748.22 810.619  13
 -12   1   4 6490.43 819.566  12
 -12  -1   4 6378.00 789.111  12
 -12  -1   3 9250.06 973.619   8
 -12   1   3 10137.7 1108.04   8
  12  -1  -3 8758.42 1001.83   7
  12   1  -3 9634.09 1061.28   7
  12  -1  -3 10797.3 1035.48  14
 -12  -1   3 9028.61 1011.21  13
 -12   1   3 9036.50 991.353  12
 -12  -1   3 8496.69 959.776  12
 -12  -1   2 895.351 393.508   8
 -12   1   2 827.464 345.662   8
  12  -1  -2 1517.10 430.992   7
  12  -1  -2 912.176 362.189  14
  12   1  -2 1905.45 510.799   7
 -12   1   2 723.228 309.146  12
 -12  -1   2 1940.27 514.676  12
  12  -1  -1 6972.89 900.111   7
  12   1  -1 6954.24 894.067   7
  12  -1  -1 7554.76 939.047  14
  12   1  -1 6504.29 878.250  14
 -12  -1   1 6709.83 904.642  12
 -12   1   1 6545.09 909.235  12
  12  -1   0 3102.99 589.898   7
  12  -1   0 3328.95 665.322  14
  12   1   0 2366.09 569.239  14
  12   1   0 3250.02 620.331   7
 -12   1   0 3445.99 691.472  12
 -12  -1   0 2494.27 604.986  12
  12  -1   1 11518.2 1134.05   7
  12   1   1 9703.68 1085.01   7
  12  -1   1 10794.5 1171.79  14
  12   1   1 11348.4 1218.47  14
 -12   1  -1 11171.3 1241.51  12
 -12  -1  -1 12371.0 1289.68  12
  12  -1   2 445.448 295.674  14
  12   1   2 908.304 411.496  14
  12   1   2 1205.37 435.038   7
 -12   1  -2 1121.96 507.727  12
 -12  -1  -2 826.052 435.838  12
  12  -1   3 2240.88 621.645  14
  12   1   3 1244.52 437.146  14
 -12   1  -3 2782.71 698.795  12
 -12  -1  -3 2470.67 654.054  12
  12  -1   4 555.919 406.449  14
  12   1   4 240.544 346.218  14
 -12   1  -4-57.7072 322.994  12
 -12  -1  -4 607.681 403.765  12
  12  -1   5 415.188 397.156  14
  12   1   5 554.716 405.505  14
 -12   1  -5 165.002 336.111  12
 -12  -1  -5-30.2614 297.954  12
 -12  -2  16 2578.02 666.086  17
  12  -2 -15 118.585 219.138  10
 -12  -2  15 997.647 441.932  17
  12   2 -15-89.1255 313.353   7
 -12  -2  15 412.082 369.108   6
 -12   2  15 1139.16 541.375   6
  12  -2 -14 4678.34 851.337  10
 -12  -2  14 3400.98 696.482  17
  12   2 -14 4729.18 818.962   7
 -12  -2  14 4441.71 819.580   6
 -12   2  14 3954.71 785.295   6
  12  -2 -13 491.956 360.123  10
 -12  -2  13 171.924 238.901  17
  12   2 -13 355.342 403.296   7
 -12  -2  13-117.579 282.372  13
 -12  -2  13-59.2498 253.919   6
 -12   2  13 290.389 317.956   6
  12  -2 -12 11064.4 1163.74  10
 -12  -2  12 10057.9 1135.79  17
  12  -2 -12 11019.4 1261.83   7
  12   2 -12 11668.8 1228.09   7
 -12  -2  12 10799.2 1153.45  13
 -12  -2  12 11308.8 1248.95   6
 -12   2  12 11122.1 1213.16   6
  12  -2 -11 2775.55 615.733  10
 -12  -2  11 2772.23 599.363  17
  12  -2 -11 4012.73 788.873   7
  12   2 -11 2539.16 575.087   7
 -12  -2  11 2463.01 591.348  13
 -12  -2  11 2913.25 651.302   6
 -12   2  11 3356.23 691.401   6
  12  -2 -10 2837.54 614.315  10
 -12  -2  10 3727.99 695.894  17
  12  -2 -10 3981.91 758.276   7
  12   2 -10 2640.79 590.503   7
 -12  -2  10 3328.91 637.886  13
 -12  -2  10 3088.87 674.557   6
 -12   2  10 3146.37 605.083   6
  12  -2  -9 1217.88 392.445  10
 -12  -2   9 849.113 309.463  17
  12  -2  -9 982.989 397.789   7
  12   2  -9 1069.36 370.945   7
 -12  -2   9 1496.77 466.880   6
 -12  -2   9 883.691 351.806  13
  12  -2  -8 1103.55 370.643  10
 -12  -2   8 1383.54 397.343  17
 -12   2   8 1321.92 463.643   8
  12  -2  -8 1107.39 426.458   7
  12   2  -8 983.567 357.469   7
 -12  -2   8 737.867 331.498  13
  12  -2  -7 3108.44 571.874  10
 -12  -2   7 1843.24 443.173  17
 -12   2   7 3342.46 655.874   8
 -12  -2   7 1474.98 415.543   8
  12  -2  -7 2755.09 631.984   7
  12   2  -7 1787.39 482.910   7
 -12  -2   7 3194.10 612.635  13
  12  -2  -6 19503.5 1358.44  10
 -12  -2   6 18590.3 1346.36  17
 -12  -2   6 16425.8 1255.26   8
 -12   2   6 18673.9 1491.60   8
  12  -2  -6 17606.0 1459.60   7
  12   2  -6 18131.6 1476.85   7
 -12  -2   6 16763.7 1390.94  13
 -12  -2   5 1502.50 432.259  17
 -12  -2   5 989.589 348.859   8
 -12   2   5 2072.60 544.305   8
  12  -2  -5 1593.17 496.040   7
  12   2  -5 1509.23 535.701   7
 -12  -2   5 1810.81 473.888  13
 -12  -2   4 14890.0 1204.09  17
 -12   2   4 15259.8 1349.30   8
  12  -2  -4 13504.0 1245.07   7
  12   2  -4 14442.4 1336.17   7
 -12  -2   4 15497.2 1352.76  13
 -12  -2   4 14290.2 1206.68  12
 -12   2   3 72.4308 316.868   8
  12  -2  -3-209.235 261.382   7
  12   2  -3-393.041 381.139   7
 -12  -2   3 319.819 343.868  13
 -12   2   3 248.351 259.316  12
 -12  -2   3 746.569 423.874  12
 -12   2   2 1444.12 469.075   8
  12  -2  -2 1179.19 428.948   7
  12  -2  -2 990.152 360.718  14
  12   2  -2 2075.00 538.271   7
 -12   2   2 860.132 370.646  12
 -12  -2   2 1645.81 476.414  12
  12  -2  -1-30.4415 196.647   7
  12  -2  -1 280.211 259.059  14
  12   2  -1-151.325 297.867   7
 -12   2   1 106.166 261.404  12
 -12  -2   1-221.673 338.220  12
  12  -2   0 5394.93 775.333   7
  12  -2   0 4279.76 716.177  14
  12   2   0 3810.16 689.049   7
 -12   2   0 4577.66 800.892  12
 -12  -2   0 4318.09 773.072  12
  12  -2   1-277.985 345.187  14
  12   2   1-222.518 317.976  14
  12   2   1-38.1247 269.834   7
 -12   2  -1-512.641 377.791  12
 -12  -2  -1-467.665 395.980  12
  12   2   2 11987.0 1238.50   7
  12  -2   2 12294.7 1287.39  14
  12   2   2 14722.4 1443.28  14
 -12   2  -2 14225.0 1486.39  12
 -12  -2  -2 15635.7 1505.78  12
  12  -2   3 231.424 281.939  14
  12   2   3 912.717 445.520  14
  12   2   3 803.830 412.358   7
 -12   2  -3 0.83961 389.405  12
 -12  -2  -3 465.442 359.562  12
  12  -2   4 2959.73 703.122  14
  12   2   4 3704.06 769.800  14
 -12   2  -4 4498.76 881.370  12
 -12  -2  -4 3222.97 797.212  12
  12  -3 -15 3624.71 760.833  10
 -12  -3  15 5179.61 905.761  17
 -12  -3  15 4191.08 813.370  13
 -12   3  15 3858.99 795.554   6
  12  -3 -14 176.777 226.417  10
  12   3 -14-189.620 399.485   9
 -12  -3  14 419.864 391.822  17
  12   3 -14 54.9755 235.531   7
 -12  -3  14 323.690 264.209  13
 -12  -3  14 594.868 422.673   6
 -12   3  14 344.881 288.250   6
  12  -3 -13 3488.17 777.377  10
  12   3 -13 2666.59 632.641   9
 -12  -3  13 2906.65 653.259  17
  12   3 -13 2925.56 653.427   7
 -12  -3  13 3338.66 721.884  13
 -12  -3  13 2915.98 690.705   6
 -12   3  13 2598.37 636.034   6
  12  -3 -12 2051.97 561.916  10
  12   3 -12 1001.62 387.748   9
 -12  -3  12 2459.31 642.382  17
  12   3 -12 1478.80 490.249   7
 -12  -3  12 1406.32 523.308   6
 -12  -3  12 1996.33 531.620  13
 -12   3  12 2107.96 603.113   6
  12  -3 -11 2988.14 628.910  10
  12   3 -11 2219.03 527.614   9
 -12  -3  11 3448.96 678.476  17
  12   3 -11 2822.63 620.422   7
 -12  -3  11 3778.71 786.813  13
 -12   3  11 2127.35 540.544   6
  12  -3 -10-4.01542 242.403  10
  12   3 -10-379.547 334.081   9
 -12  -3  10 401.546 368.633  17
  12  -3 -10-343.224 360.296   7
  12   3 -10-579.133 367.637   7
 -12  -3  10 190.021 227.711  13
 -12   3  10 54.7990 237.845   6
  12  -3  -9 4493.10 748.751  10
  12   3  -9 4538.74 714.964   9
 -12  -3   9 5593.30 819.272  17
  12  -3  -9 4804.10 823.955   7
  12   3  -9 4298.28 742.249   7
 -12  -3   9 5997.66 881.820  13
  12  -3  -8 270.473 246.944  10
 -12  -3   8 365.076 327.249  17
 -12   3   8 497.925 322.127   8
  12  -3  -8 351.650 315.211   7
  12   3  -8-388.444 382.168   7
 -12  -3   8 473.666 355.229  13
  12  -3  -7 15226.9 1292.05  10
 -12  -3   7 15530.6 1302.32  17
 -12   3   7 12245.4 1259.38   8
  12  -3  -7 14882.7 1393.45   7
  12   3  -7 14341.1 1335.26   7
 -12  -3   7 14453.3 1330.53  13
  12  -3  -6 222.563 291.027  10
 -12  -3   6 118.353 171.360  17
 -12   3   6-89.7452 276.328   8
  12  -3  -6-195.026 287.760   7
  12   3  -6 205.555 261.756   7
 -12  -3   6 221.216 269.159  13
  12  -3  -5 24312.5 1571.30  10
 -12  -3   5 22616.7 1577.91  17
 -12   3   5 21468.3 1653.63   8
  12  -3  -5 21956.8 1623.65   7
  12   3  -5 22361.9 1669.18   7
 -12  -3   5 23342.3 1683.17  13
 -12  -3   4 1183.02 420.815  17
 -12   3   4 2016.74 583.282   8
  12  -3  -4 1107.54 447.404   7
  12   3  -4 688.918 417.770   7
 -12  -3   4 938.830 401.788  13
 -12  -3   4 1104.99 382.842  12
 -12  -3   3 1360.85 391.105  17
 -12   3   3 2136.21 562.271   8
  12  -3  -3 2052.10 513.718   7
  12   3  -3 1725.88 543.696   7
 -12  -3   3 1662.81 475.433  13
 -12   3   3 2312.04 526.361  12
 -12  -3   3 1878.95 497.113  12
 -12  -3   2-133.250 265.698  17
 -12   3   2 256.522 371.846   8
  12  -3  -2 251.514 289.358   7
  12   3  -2-91.6137 212.189   7
 -12  -3   2-421.755 327.579  13
 -12   3   2 378.392 341.592  12
 -12  -3   2-27.3297 272.740  12
 -12  -3   1 200.109 219.103  17
  12  -3  -1-147.168 231.806   7
  12  -3  -1 383.490 304.850  14
  12   3  -1-157.129 326.072   7
 -12   3   1 163.946 254.333  12
 -12  -3   1 184.055 270.301  12
 -12  -3   0 1061.21 407.668  17
  12  -3   0 1244.39 470.677   3
  12  -3   0 879.481 371.877  14
  12   3   0 637.858 421.634   7
 -12   3   0 952.743 475.256  12
 -12  -3   0 294.993 310.004  12
 -12  -3  -1 9759.63 1088.72  17
  12  -3   1 9617.76 1078.53   3
  12   3   1 10595.9 1180.02   7
  12  -3   1 10154.9 1142.73  14
 -12   3  -1 10240.5 1208.84  12
 -12  -3  -1 10303.6 1193.43  12
  12  -3   2 123.762 253.120  14
  12   3   2 42.3592 254.520   7
 -12   3  -2 313.673 350.522  12
 -12  -3  -2-194.599 346.587  12
  12   3   3 8205.93 1054.50   7
  12  -3   3 8260.69 1099.75  14
 -12   3  -3 8151.94 1138.99  12
 -12  -3  -3 11405.6 1352.53  12
  12  -3   4-11.8221 245.816  14
  12   3   4 612.132 352.704   7
 -12   3  -4-3.60368 346.831  12
 -12  -3  -4 61.5697 300.040  12
  12  -4 -14 6901.03 1026.19  10
  12   4 -14 4154.16 797.168   9
 -12  -4  14 5958.62 967.910  17
 -12  -4  14 7086.43 1044.21  13
 -12   4  14 6080.50 966.703   6
  12  -4 -13 380.361 270.272  10
  12   4 -13 302.374 335.115   9
 -12  -4  13 523.954 374.608  17
  12   4 -13-61.6405 233.750   7
 -12  -4  13 95.1250 299.225  13
 -12   4  13-190.164 290.823   6
  12  -4 -12 21288.7 1702.03  10
  12   4 -12 17852.5 1539.53   9
 -12  -4  12 20315.0 1709.10  17
  12   4 -12 16401.6 1460.16   7
 -12  -4  12 18106.2 1629.30  13
 -12   4  12 15970.0 1478.83   6
  12  -4 -11 202.093 347.460  10
  12   4 -11 281.120 287.120   9
 -12  -4  11 445.966 282.128  17
  12   4 -11 43.5242 256.207   7
 -12  -4  11 845.868 432.768  13
 -12   4  11 346.948 333.293   6
  12  -4 -10 8299.72 1046.53  10
  12   4 -10 8011.71 992.566   9
 -12  -4  10 9259.77 1097.15  17
  12   4 -10 7229.58 983.787   7
 -12  -4  10 6970.14 1000.66  13
  12  -4  -9 1092.85 441.439  10
  12   4  -9 499.034 302.031   9
 -12  -4   9 1018.50 370.567  17
 -12   4   9 1101.57 401.571   8
  12   4  -9 715.766 407.086   7
 -12  -4   9 551.664 344.550  13
  12  -4  -8 567.100 321.561  10
 -12  -4   8 155.648 201.188  17
 -12   4   8 581.926 342.787   8
  12  -4  -8 671.666 376.600   7
  12   4  -8 148.425 283.745   7
 -12  -4   8 39.0859 297.494  13
  12  -4  -7-28.9679 298.685  10
 -12  -4   7 506.182 316.486  17
 -12   4   7 1159.57 517.417   8
  12  -4  -7 230.889 220.398   7
  12   4  -7 1076.94 462.879   7
 -12  -4   7 20.4267 214.356  13
  12  -4  -6 2301.53 557.859  10
 -12  -4   6 3072.31 615.887  17
 -12   4   6 2949.16 636.568   8
  12  -4  -6 2633.66 647.539   7
  12   4  -6 2490.36 622.736   7
 -12  -4   6 2262.92 566.292  13
 -12  -4   5 760.135 318.415  17
 -12   4   5 397.157 336.274   8
  12  -4  -5 487.113 353.724   7
  12   4  -5 297.668 342.739   7
 -12  -4   5 587.123 447.403  13
 -12  -4   4 10785.8 1135.72  17
 -12   4   4 11797.5 1257.14   8
  12  -4  -4 10443.1 1124.69   7
  12   4  -4 11042.8 1207.11   7
 -12  -4   4 12468.7 1294.63  13
 -12  -4   4 8924.67 1028.39  12
 -12  -4   3 301.624 245.280  17
 -12   4   3 685.806 399.689   8
  12  -4  -3 265.351 193.709   7
  12   4  -3 831.380 424.517   7
  12  -4  -3 353.051 402.287   3
 -12  -4   3 124.907 261.216  13
 -12   4   3 840.979 411.944  12
 -12  -4   3-68.5166 306.480  12
 -12  -4   2 10063.8 1112.16  17
 -12   4   2 10883.5 1253.70   8
  12  -4  -2 9549.11 1048.32   7
  12  -4  -2 10257.1 1152.51   3
  12   4  -2 9568.60 1126.69   7
 -12  -4   2 11285.5 1237.18  13
 -12   4   2 11722.3 1209.42  12
 -12  -4   2 10849.7 1168.14  12
 -12  -4   1 267.163 199.326  17
  12   4  -1 772.402 421.846   7
  12  -4  -1 1046.52 474.553   3
 -12  -4   1 315.472 295.364  13
 -12   4   1 742.656 406.964  12
 -12  -4   1 1296.83 503.939  12
 -12  -4   0 7256.85 986.337  17
  12  -4   0 6550.31 933.159   3
  12   4   0 8715.25 1131.68   7
  12  -4   0 6830.69 909.728  14
 -12   4   0 7599.62 1070.89  12
 -12  -4   0 8398.83 1098.39  12
 -12  -4  -1 536.695 343.269  17
  12  -4   1-25.5720 249.540  14
  12   4   1 1159.37 512.847   7
  12  -4   1 270.866 287.613   3
 -12   4  -1-150.493 281.405  12
 -12  -4  -1 246.826 326.014  12
 -12  -4  -2 3457.17 697.963  17
  12  -4   2 3521.71 711.976  14
  12   4   2 3336.99 712.359   7
  12  -4   2 3078.05 660.567   3
 -12   4  -2 4045.71 831.603  12
 -12  -4  -2 2179.18 599.067  12
 -12   4  -3 1043.05 523.118   5
 -12  -4  -3 797.203 366.750  17
  12  -4   3 1372.16 495.515  14
  12   4   3 1587.64 534.506   7
 -12   4  -3 1205.53 520.738  12
 -12  -4  -3 893.467 456.834  12
 -12  -4  -4-94.0581 234.249  17
  12  -4   4 700.555 454.572  14
  12   4   4 972.314 470.505   7
  12  -5 -13 614.180 421.830  10
  12   5 -13-31.1840 279.914   9
 -12  -5  13 494.742 388.446  17
 -12  -5  13 161.475 329.426  13
 -12   5  13 1039.43 508.663   6
  12  -5 -12 385.027 383.014  10
  12   5 -12 325.824 286.802   9
 -12  -5  12 6.00608 284.966  17
  12   5 -12 104.881 190.868   7
 -12  -5  12 215.764 352.313  13
 -12   5  12 176.674 292.213   6
  12  -5 -11 4526.78 812.492  10
  12   5 -11 4609.03 789.559   9
 -12  -5  11 4253.04 806.113  17
  12   5 -11 3835.99 727.900   7
 -12  -5  11 4714.07 875.416  13
  12  -5 -10 601.451 336.234  10
  12   5 -10 1351.82 423.278   9
 -12  -5  10 392.241 240.528  17
 -12   5  10 1323.95 459.994   8
  12   5 -10 1456.56 441.511   7
 -12  -5  10 2162.01 577.219  13
  12  -5  -9 7890.37 1050.53  10
 -12  -5   9 8709.71 1097.39  17
 -12   5   9 6309.97 957.371   8
  12   5  -9 7730.46 1011.80   7
 -12  -5   9 7466.10 1066.77  13
  12  -5  -8 11.7332 341.529  10
 -12  -5   8 655.754 368.475  17
 -12   5   8 616.643 346.659   8
  12   5  -8 603.687 336.565   7
 -12  -5   8 516.117 355.548  13
 -12   5   7 5885.84 887.284   5
  12  -5  -7 7627.80 1006.70  10
 -12  -5   7 7004.80 1001.48  17
 -12   5   7 6526.43 988.015   8
  12   5  -7 6418.95 958.759   7
 -12  -5   7 7971.14 1064.83  13
  12  -5  -6-59.1377 249.258  10
 -12   5   6 758.862 386.156   5
 -12  -5   6 661.616 342.191  17
 -12   5   6 340.612 251.773   8
  12   5  -6 386.573 367.166   7
 -12  -5   6 199.917 323.843  13
 -12  -5   5 3202.58 656.937  17
 -12   5   5 4070.32 782.182   8
  12  -5  -5 4186.49 773.184   3
  12   5  -5 4501.83 799.004   7
 -12  -5   5 5030.07 841.519  13
 -12  -5   4-100.458 281.428  17
 -12   5   4 788.120 404.812   8
  12   5  -4 430.849 324.488   7
  12  -5  -4 589.638 399.122   3
 -12  -5   4 442.875 394.076  13
 -12  -5   4-209.273 324.122  12
 -12  -5   3 3582.31 759.021  17
 -12   5   3 4862.38 869.199   8
  12   5  -3 4262.78 805.549   7
  12  -5  -3 4494.71 805.908   3
 -12  -5   3 2874.68 648.116  13
 -12   5   3 3768.67 704.128  12
 -12  -5   3 3363.32 676.854  12
 -12   5   2 42.6189 316.794   5
 -12  -5   2-106.543 271.979  17
  12   5  -2-114.246 317.451   7
  12  -5  -2 436.885 405.457   3
 -12  -5   2-95.2117 314.912  13
 -12   5   2 62.2175 316.528  12
 -12  -5   2-113.026 350.659  12
 -12   5   1 7300.61 1094.81   5
 -12  -5   1 5520.17 887.810  17
  12   5  -1 5971.92 957.216   7
 -12  -5   1 6376.36 978.287  13
  12  -5  -1 6554.46 969.599   3
 -12   5   1 6554.49 967.641  12
 -12  -5   1 7305.74 1016.92  12
 -12   5   0 129.830 310.222   5
 -12  -5   0 139.119 236.011  17
  12   5   0 410.253 357.542   7
  12  -5   0 775.753 428.313   3
 -12  -5   0-241.147 362.222  13
 -12   5   0 258.463 349.570  12
 -12  -5   0-311.344 362.717  12
 -12   5  -1 5169.35 940.320   5
 -12  -5  -1 4120.99 778.760  17
 -12  -5  -1 4192.25 790.147  13
  12   5   1 3132.74 724.384   7
  12  -5   1 3917.86 764.190   3
 -12   5  -1 4569.56 871.299  12
 -12  -5  -1 5638.91 941.450  12
 -12   5  -2 1283.02 507.589   5
 -12  -5  -2 965.649 446.008  17
  12  -5   2 1404.83 489.383  14
  12   5   2 489.782 375.786   7
  12  -5   2 862.711 389.062   3
 -12   5  -2 1259.00 499.470  12
 -12  -5  -2 726.308 453.018  12
 -12  -5  -3 2305.09 610.995  17
  12  -5   3 1560.44 490.768  14
  12   6 -12 2042.57 568.857   9
  12  -6 -11-389.616 428.431  10
  12   6 -11-267.788 338.690   9
 -12  -6  11 101.437 224.694  17
 -12   6  11 27.6184 245.904   8
 -12  -6  11-140.624 293.344  13
  12  -6 -10 5071.79 883.963  10
 -12  -6  10 3194.08 730.522  17
 -12   6  10 3191.58 702.404   8
  12   6 -10 3682.10 753.689   7
 -12  -6  10 4784.30 879.977  13
  12  -6  -9 1507.79 529.339  10
 -12  -6   9 663.767 407.023  17
 -12   6   9 889.736 505.633   8
  12   6  -9 571.481 354.359   7
 -12  -6   9 778.726 429.956  13
  12  -6  -8 7908.53 1087.06  10
 -12  -6   8 5908.75 953.955  17
 -12   6   8 4684.11 831.071   8
  12   6  -8 5330.36 884.798   7
 -12  -6   8 7605.92 1081.87  13
  12  -6  -7 3504.72 726.215  10
 -12   6   7 2677.58 610.840   5
 -12  -6   7 2483.26 618.952  17
 -12   6   7 3969.62 778.357   8
  12   6  -7 3219.60 715.754   7
 -12  -6   7 2313.66 659.456  13
 -12   6   6 6736.79 991.966   5
 -12   6   6 7298.10 1026.27   8
 -12  -6   6 6182.59 939.158  17
  12  -6  -6 9453.68 1181.53   3
  12   6  -6 8795.51 1130.37   7
 -12  -6   6 7742.95 1093.07  13
 -12   6   5 1988.90 566.300   5
 -12  -6   5 1902.33 546.220  17
 -12   6   5 2748.30 693.355   8
  12   6  -5 1757.75 545.070   7
  12  -6  -5 2208.77 645.565   3
 -12  -6   5 2452.14 653.671  13
 -12   6   4 5337.10 926.627   5
 -12  -6   4 5458.53 909.566  17
 -12   6   4 4673.41 844.462   8
  12   6  -4 5170.21 877.104   7
  12  -6  -4 4776.90 847.180   3
 -12  -6   4 4223.03 825.419  13
 -12   6   3 6531.70 1041.51   5
 -12   6   3 4456.26 829.953   8
 -12  -6   3 4496.18 850.198  17
  12   6  -3 6944.61 1022.50   7
  12  -6  -3 4757.73 856.563   3
 -12  -6   3 6464.47 1005.25  13
 -12   6   3 5512.48 875.863  12
 -12   6   2 742.914 445.073   5
 -12  -6   2 1997.57 555.434  17
  12   6  -2 1489.38 634.402   7
  12  -6  -2 1666.76 560.953   3
 -12  -6   2 703.261 342.617  13
 -12   6   2 1615.54 537.284  12
 -12   6   1 262.212 296.491   5
 -12  -6   1 1300.89 511.044  17
  12   6  -1 538.802 396.401   7
  12  -6  -1 1298.81 503.979   3
 -12  -6   1 1009.66 456.926  13
 -12   6   1 641.063 357.138  12
 -12  -6   1 522.944 329.690  12
 -12   6   0 2854.60 768.512   5
 -12  -6   0 2695.87 664.154  17
  12   6   0 2013.67 559.706   7
  12  -6   0 3088.53 716.064   3
 -12  -6   0 2972.81 698.417  13
 -12   6   0 3023.00 711.990  12
 -12  -6   0 2867.92 709.897  12
 -12  -6  -1 3360.83 730.440  17
  12  -6   1 3412.41 717.753   3
 -12   6  -1 3870.83 813.713  12
 -12   7   9 2466.78 667.734   8
  12   7  -9 2603.80 622.022   7
  12  -7  -8 308.155 291.330  10
 -12  -7   8-199.239 323.916  17
 -12   7   8-3.46251 328.659   8
  12   7  -8 7.31891 286.317   7
 -12  -7   7 3818.22 790.429  17
 -12   7   7 2361.69 640.658   8
  12  -7  -7 3565.68 779.035   3
  12   7  -7 3619.35 749.252   7
 -12  -7   7 3426.43 763.183  13
 -12   7   6 906.413 448.817   5
 -12  -7   6 456.054 326.475  17
 -12   7   6 1836.27 621.926   8
  12   7  -6 1786.40 567.339   7
  12  -7  -6 1987.20 627.791   3
 -12  -7   6 1358.38 558.807  13
 -12   7   5 1470.04 526.347   5
 -12  -7   5 1459.61 549.757  17
 -12   7   5 1339.90 501.633   8
 -12  -7   5 739.721 377.791   4
  12   7  -5 1202.38 480.253   7
  12  -7  -5 1545.20 513.557   3
 -12  -7   5 2090.11 622.661  13
 -12   7   4 169.505 267.353   5
 -12  -7   4 547.569 422.950  17
 -12   7   4 259.240 321.324   8
  12   7  -4 327.103 374.464   7
  12  -7  -4 327.987 431.388   3
 -12  -7   4-72.2964 259.817  13
 -12   7   3 3324.13 774.061   5
 -12  -7   3 4603.12 841.766  17
  12   7  -3 3085.84 702.071   7
  12  -7  -3 4166.04 821.947   3
 -12  -7   3 3070.29 720.091  13
 -12  -7   2 94.2403 268.321  17
 -12   7   2-328.385 355.599  12
 -12   7   1 6635.78 1025.55  12
  13   0 -14-221.652 313.387   7
 -13   0  14-112.358 256.478   6
  13   0 -13 8355.79 1111.61   7
 -13   0  13 6830.20 1005.37   6
  13   0 -12 535.287 423.674   7
 -13   0  12-68.8257 296.027   6
  13   0 -11 3833.75 739.131   7
 -13   0  11 2441.97 582.938   6
  13   0 -10-3.85900 340.084   7
 -13   0  10 554.647 352.270   6
 -13   0   9 1130.75 389.483   8
  13   0  -9 470.913 332.139   7
 -13   0   8 347.194 357.213   8
  13   0  -8 26.7818 256.310   7
 -13   0   7 6922.95 931.671   8
  13   0  -7 5708.49 890.526   7
 -13   0   6 257.674 333.291   8
  13   0  -6 144.491 279.757   7
 -13   0   6 203.223 267.610  13
 -13   0   5 9027.73 1050.64   8
  13   0  -5 9523.01 1104.87   7
 -13   0   5 11350.7 1121.05  13
 -13   0   4-312.809 311.053   8
  13   0  -4-610.914 365.199   7
 -13   0   4 92.4644 220.039  13
 -13   0   3 8386.70 1026.84   8
  13   0  -3 10561.7 1165.46   7
 -13   0   3 9436.95 1064.24  13
 -13   0   3 11647.5 1177.29  12
  13   0  -2-287.320 352.108   7
  13   0  -2-154.471 283.232  14
 -13   0   2 537.060 364.896  12
  13   0  -1 13470.9 1301.37   7
  13   0  -1 12135.4 1254.58  14
 -13   0   1 11831.0 1269.20  12
  13   0   0-146.887 258.386   7
  13   0   0-27.7410 303.098  14
 -13   0   0-67.1085 377.364  12
  13   0   1 3304.75 675.156   7
  13   0   1 3852.21 773.509  14
 -13   0  -1 3424.79 750.605  12
  13   0   2 189.615 274.163  14
 -13   0  -2-56.0120 318.465  12
  13   0   3 318.277 359.933  14
  13  -1 -15-246.076 308.077  10
  13  -1 -14 4212.55 769.731  10
  13   1 -14 2716.19 677.629   7
 -13   1  14 3789.51 790.700   6
  13  -1 -13 1355.45 473.804  10
  13  -1 -13 1269.10 504.159   7
  13   1 -13 1779.35 624.037   7
 -13  -1  13 1226.65 479.135   6
 -13   1  13 766.048 366.358   6
  13  -1 -12 6631.55 931.141  10
  13  -1 -12 5683.03 940.392   7
  13   1 -12 5732.97 924.100   7
 -13  -1  12 6695.96 975.346   6
 -13   1  12 6223.57 931.829   6
  13  -1 -11 3333.48 702.585   7
  13   1 -11 3465.32 715.816   7
 -13  -1  11 2255.16 597.863   6
 -13   1  11 3252.17 655.332   6
  13  -1 -10 2801.95 676.753   7
  13   1 -10 4482.38 819.948   7
 -13  -1  10 4583.72 772.478   6
 -13   1   9-119.175 339.675   8
  13  -1  -9 127.541 359.831   7
  13   1  -9 61.1530 280.371   7
 -13  -1   9-458.446 368.316  13
 -13   1   8 9637.90 1121.71   8
 -13  -1   8 11296.8 1164.48   8
  13  -1  -8 13684.1 1379.52   7
  13   1  -8 9497.64 1148.02   7
 -13  -1   8 12811.9 1215.96  13
 -13  -1   7 2462.05 570.328   8
 -13   1   7 2125.50 582.503   8
  13  -1  -7 2894.28 683.384   7
  13   1  -7 3102.59 712.439   7
 -13  -1   7 2944.97 597.712  13
 -13  -1   6 10685.7 1118.28   8
 -13   1   6 9571.84 1110.91   8
  13  -1  -6 12510.1 1277.32   7
  13   1  -6 12157.8 1281.56   7
 -13  -1   6 10451.1 1106.81  13
 -13  -1   5 708.845 289.871   8
 -13   1   5 137.210 242.044   8
  13  -1  -5 373.069 307.498   7
  13   1  -5 482.527 387.345   7
 -13  -1   5 323.335 300.145  13
 -13  -1   4 62.2768 220.095   8
 -13   1   4 148.941 211.150   8
  13  -1  -4-85.4406 352.921   7
  13   1  -4-78.0351 288.250   7
 -13  -1   4-151.670 263.096  13
 -13  -1   3 1684.59 473.731   8
 -13   1   3 1792.54 554.156   8
  13  -1  -3 916.436 380.823   7
  13   1  -3 1317.73 459.362   7
  13  -1  -3 723.251 341.183  14
 -13  -1   3 221.472 265.944  13
 -13   1   3 2093.04 534.816  12
 -13  -1   3 1494.44 514.014  12
  13  -1  -2 448.378 247.851   7
  13   1  -2 485.409 310.172   7
  13  -1  -2 705.323 297.647  14
 -13   1   2 1229.99 479.345  12
 -13  -1   2 1580.83 497.877  12
  13  -1  -1 505.628 366.356   7
  13  -1  -1 623.048 384.860  14
  13   1  -1 156.112 290.080   7
 -13   1   1 381.589 335.732  12
 -13  -1   1 976.852 490.652  12
  13  -1   0 14177.3 1337.81   7
  13   1   0 15138.1 1400.39   7
  13  -1   0 15149.0 1411.44  14
  13   1   0 15974.3 1488.82  14
 -13   1   0 16809.6 1545.89  12
 -13  -1   0 14105.5 1419.44  12
  13  -1   1 94.4649 300.115  14
  13   1   1 267.858 350.713  14
  13   1   1-235.326 323.604   7
 -13   1  -1-166.554 292.078  12
 -13  -1  -1-297.140 337.551  12
  13   1   2 6232.49 924.013   7
  13   1   2 7419.46 1080.97  14
  13  -1   2 7251.87 1045.75  14
 -13   1  -2 5540.53 949.873  12
 -13  -1  -2 6505.19 1026.52  12
  13  -1   3 337.271 304.402  14
  13  -2 -14 71.6434 257.394  10
  13   2 -14 161.311 325.066   7
 -13  -2  14 612.740 368.916   6
 -13   2  14-256.316 350.489   6
  13  -2 -13 6099.85 921.880  10
  13   2 -13 5223.82 884.989   7
 -13   2  13 6802.23 1011.89   6
 -13  -2  13 5956.62 966.844   6
  13  -2 -12 468.565 320.478  10
  13  -2 -12 1078.38 525.177   7
  13   2 -12-209.426 303.564   7
 -13  -2  12 431.394 311.677  13
 -13  -2  12 1045.67 428.749   6
 -13   2  12 287.500 339.308   6
  13  -2 -11 2985.66 630.621  10
  13  -2 -11 2875.95 709.362   7
  13   2 -11 2951.61 657.743   7
 -13  -2  11 3891.72 739.871  13
 -13  -2  11 3118.85 697.304   6
  13  -2 -10-59.7421 204.785  10
  13  -2 -10 72.9948 346.233   7
  13   2 -10-125.576 314.240   7
 -13  -2  10 443.744 325.481  13
  13  -2  -9 1844.42 498.305  10
 -13   2   9 1504.23 521.528   8
 -13  -2   9 2537.30 568.363   8
  13  -2  -9 1536.36 542.054   7
  13   2  -9 467.011 289.188   7
 -13  -2   9 2002.57 565.439  13
 -13   2   8-32.9732 250.378   8
  13  -2  -8-345.108 330.889   7
  13   2  -8 293.426 340.784   7
 -13  -2   8 440.297 296.926  13
 -13   2   7 11302.0 1248.48   8
  13  -2  -7 10784.7 1225.24   7
  13   2  -7 11546.5 1244.36   7
 -13  -2   7 11979.5 1232.22  13
 -13   2   6 1290.52 464.447   8
  13  -2  -6 1123.30 459.086   7
  13   2  -6 1231.85 463.523   7
 -13  -2   6 1048.41 404.262  13
 -13   2   5 9817.17 1155.42   8
  13  -2  -5 9743.08 1112.34   7
  13   2  -5 8826.81 1096.80   7
 -13  -2   5 9554.47 1123.45  13
 -13   2   4 708.264 479.207   8
  13  -2  -4 638.432 346.106   7
  13   2  -4-84.2980 301.978   7
 -13  -2   4-57.2268 306.482  13
 -13   2   3 2024.21 583.044   8
  13  -2  -3 2224.08 591.044   7
  13   2  -3 3223.22 663.614   7
 -13  -2   3 2260.10 539.560  13
 -13   2   3 2847.06 614.079  12
 -13  -2   3 3013.10 647.273  12
  13  -2  -2 1082.59 412.015   7
  13   2  -2 1537.36 456.642   7
 -13  -2   2 3122.47 698.273  13
 -13   2   2 1591.51 506.372  12
 -13  -2   2 1911.38 546.988  12
  13  -2  -1 7082.65 944.903  14
  13  -2  -1 5463.35 815.970   7
  13   2  -1 5826.64 880.321   7
 -13  -2   1 7042.79 999.728  12
 -13   2   1 6932.01 970.501  12
  13  -2   0 703.369 401.794  14
  13   2   0 722.160 395.739   7
 -13   2   0 384.843 356.084  12
 -13  -2   0-82.4250 340.807  12
  13  -2   1 3934.52 741.287  14
  13   2   1 3915.89 771.871   7
 -13   2  -1 2581.92 671.409  12
 -13  -2  -1 4527.41 832.213  12
  13  -2   2 414.450 355.577  14
  13   2   2 685.085 445.152  14
  13   2   2 549.411 376.132   7
 -13   2  -2-165.370 310.587  12
 -13  -2  -2 170.266 295.517  12
 -13  -3  14 10410.1 1250.98  17
  13   3 -14 9526.06 1180.28   7
 -13  -3  14 8988.53 1157.28  13
 -13   3  14 10355.3 1254.36   6
  13  -3 -13 120.283 230.932  10
 -13  -3  13 262.567 279.922  17
  13   3 -13 171.660 299.791   7
 -13  -3  13-6.50625 322.619  13
 -13   3  13 426.514 375.828   6
  13  -3 -12 6181.77 928.365  10
 -13  -3  12 4530.19 824.389  17
  13   3 -12 4119.68 767.622   7
 -13  -3  12 4485.22 810.682  13
  13  -3 -11 2709.84 642.443  10
 -13  -3  11 1385.90 449.072  17
  13   3 -11 1522.70 483.582   7
 -13  -3  11 1706.03 499.743  13
  13  -3 -10-238.970 338.537  10
 -13  -3  10 623.081 335.367  17
 -13   3  10 406.686 326.428   8
  13  -3 -10-295.167 367.785   7
  13   3 -10-203.169 368.308   7
 -13  -3  10 226.742 334.593  13
  13  -3  -9 94.4729 224.584  10
 -13  -3   9-234.895 289.684  17
 -13   3   9-159.755 359.193   8
  13  -3  -9-135.451 353.478   7
  13   3  -9-208.757 347.633   7
 -13  -3   9-436.792 326.783  13
  13  -3  -8 4012.37 704.301  10
 -13  -3   8 4331.03 756.020  17
 -13   3   8 2026.81 550.581   8
  13  -3  -8 3141.06 688.225   7
  13   3  -8 3776.46 731.150   7
 -13  -3   8 3428.44 690.650  13
  13  -3  -7 634.684 332.379  10
 -13  -3   7 618.726 263.443  17
 -13   3   7 477.886 385.003   8
  13  -3  -7 651.169 401.521   7
  13   3  -7 614.822 382.537   7
 -13  -3   7 1183.69 425.524  13
 -13  -3   6 14527.8 1305.79  17
 -13   3   6 13847.7 1406.56   8
  13  -3  -6 14104.8 1377.55   7
  13   3  -6 17357.5 1544.57   7
 -13  -3   6 14610.2 1454.66  13
 -13  -3   5-10.5845 204.793  17
 -13   3   5 152.429 307.153   8
  13  -3  -5 253.781 347.498   7
  13   3  -5 27.4562 250.888   7
 -13  -3   5-97.1223 246.824  13
 -13   3   4 8783.94 1115.26   8
  13  -3  -4 9173.66 1139.51   7
  13   3  -4 8462.58 1095.32   7
 -13  -3   4 10612.6 1219.78  13
 -13   3   3 260.179 293.138   8
  13  -3  -3-138.756 260.016   7
  13   3  -3 288.183 317.698   7
 -13  -3   3-159.631 272.390  13
 -13   3   3 405.551 369.640  12
 -13  -3   3-93.2006 275.230  12
  13  -3  -2 2151.54 557.722   7
  13   3  -2 2840.05 697.193   7
 -13  -3   2 1988.66 584.776  13
 -13   3   2 1708.20 510.991  12
 -13  -3   2 2195.54 568.730  12
 -13  -3   1-111.630 322.366  13
  13   3  -1-71.5176 301.829   7
 -13   3   1-166.240 358.845  12
 -13  -3   1-142.656 344.247  12
  13  -3   0 3944.47 720.282  14
  13   3   0 3511.65 745.260   7
 -13   3   0 2050.47 609.277  12
 -13  -3   0 2880.87 687.802  12
  13  -3   1 694.383 336.913  14
  13   3   1 544.962 409.600   7
 -13   3  -1 866.958 492.146  12
 -13  -3  -1 721.886 464.360  12
  13  -3   2 1100.70 426.378  14
  13   3   2 1445.33 494.071   7
  13   4 -13 2072.36 591.515   7
  13  -4 -12-107.074 324.596  10
  13   4 -12-292.850 294.235   9
 -13  -4  12 218.370 275.471  17
  13   4 -12 335.740 333.105   7
 -13  -4  12 19.6659 255.018  13
  13  -4 -11 7581.05 1057.92  10
  13   4 -11 7666.89 1003.38   9
 -13  -4  11 8208.33 1103.88  17
  13   4 -11 8971.06 1142.56   7
 -13  -4  11 7426.37 1085.76  13
  13  -4 -10-3.06610 253.009  10
 -13  -4  10-90.5966 276.899  17
 -13   4  10 105.572 297.330   8
  13   4 -10 62.0952 238.192   7
 -13  -4  10 324.345 292.363  13
  13  -4  -9 9449.30 1139.66  10
 -13  -4   9 10675.2 1204.92  17
 -13   4   9 9090.87 1158.19   8
  13   4  -9 8219.07 1085.92   7
 -13  -4   9 10882.5 1289.99  13
  13  -4  -8 870.830 442.257  10
 -13  -4   8 98.3925 191.385  17
 -13   4   8 361.017 312.053   8
  13  -4  -8 198.310 335.789   7
  13   4  -8 26.8213 287.772   7
 -13  -4   8 550.857 367.530  13
  13  -4  -7 5906.74 877.015  10
 -13   4   7 6178.76 979.088   8
 -13  -4   7 4916.69 837.990  17
  13  -4  -7 4840.74 845.765   7
  13   4  -7 4852.00 861.171   7
 -13  -4   7 6119.46 958.280  13
 -13  -4   6 249.742 240.670  17
 -13   4   6 884.037 504.626   8
  13  -4  -6 1096.83 491.876   7
  13   4  -6-31.6028 276.673   7
 -13  -4   6 393.649 279.057  13
 -13  -4   5 875.864 424.128  17
 -13   4   5 659.156 358.935   8
  13  -4  -5 471.559 362.749   7
  13   4  -5 839.120 465.889   7
 -13  -4   5 662.761 348.469  13
 -13  -4   4 255.111 278.997  17
 -13   4   4 50.4931 292.923   8
  13  -4  -4-134.314 268.417   7
  13   4  -4 896.531 474.955   7
 -13  -4   4 54.5991 292.758  13
 -13  -4   3 475.938 336.028  17
 -13   4   3 1584.98 559.066   8
  13  -4  -3 964.488 404.898   7
  13   4  -3 732.496 470.106   7
 -13  -4   3 403.885 320.723  13
 -13  -4   3 921.295 394.401  12
 -13  -4   2 408.132 290.882  17
  13   4  -2 1015.40 484.981   7
 -13  -4   2 996.294 422.323  13
 -13   4   2 694.399 424.684  12
 -13  -4   2 1384.19 537.781  12
 -13  -4   1 6526.48 935.806  17
  13   4  -1 7646.63 1082.80   7
 -13  -4   1 7216.06 1056.88  13
 -13   4   1 7736.93 1077.56  12
 -13  -4   1 7520.20 1051.98  12
 -13  -4   0 535.793 326.662  17
 -13  -4   0-121.662 218.249  13
  13   4   0-411.616 376.747   7
 -13   4   0 237.383 352.213  12
 -13  -4   0-18.3274 373.902  12
  13  -4   1 6401.78 930.236   3
  13   4   1 4528.27 837.993   7
 -13   4  -1 7647.78 1110.14  12
  13  -4   2 1410.69 481.900  14
  13   5 -12 2667.85 639.228   9
  13  -5 -11-174.820 331.640  10
 -13  -5  11-26.1931 255.576  17
  13   5 -11-142.606 332.033   7
  13  -5 -10 2996.47 709.413  10
 -13  -5  10 2360.96 650.622  17
 -13   5  10 1704.70 568.031   8
  13   5 -10 1934.81 539.616   7
 -13  -5  10 1952.23 555.262  13
  13  -5  -9-28.7613 226.111  10
 -13  -5   9 136.327 310.615  17
 -13   5   9-645.530 484.412   8
  13   5  -9-154.437 321.364   7
 -13  -5   9 82.7348 272.346  13
  13  -5  -8 4155.48 791.591  10
 -13  -5   8 3125.94 688.197  17
 -13   5   8 3329.02 697.940   8
  13   5  -8 3292.50 733.172   7
 -13  -5   8 3720.73 791.031  13
  13  -5  -7-20.6136 313.691  10
 -13   5   7 172.035 317.105   5
 -13  -5   7 393.022 329.129  17
 -13   5   7 1022.98 511.045   8
  13   5  -7 201.864 313.807   7
 -13  -5   7 249.894 278.957  13
 -13   5   6 5695.82 945.176   5
 -13  -5   6 5082.81 861.308  17
 -13   5   6 6077.01 969.069   8
  13   5  -6 4677.37 840.783   7
 -13  -5   6 5085.87 909.726  13
 -13   5   5 2656.49 709.179   5
 -13  -5   5 2672.79 629.108  17
 -13   5   5 3077.77 680.107   8
  13   5  -5 3023.23 692.355   7
 -13  -5   5 3877.82 808.692  13
 -13   5   4 4521.91 875.638   5
 -13  -5   4 3651.72 753.012  17
 -13   5   4 4177.72 843.842   8
  13   5  -4 3858.77 803.190   7
 -13  -5   4 4944.62 877.064  13
 -13   5   3-442.752 439.908   5
 -13   5   3 425.216 404.294   8
 -13  -5   3-6.41938 249.568  17
  13  -5  -3 181.568 305.624   3
  13   5  -3 538.910 403.621   7
 -13  -5   3-26.1284 318.190  13
 -13  -5   3-369.432 348.533  12
 -13   5   2 5224.13 942.319   5
 -13  -5   2 5352.79 907.503  17
 -13  -5   2 6649.76 1030.93  13
  13   5  -2 5637.62 956.486   7
  13  -5  -2 5682.53 945.090   3
 -13   5   2 5869.84 928.506  12
 -13  -5   2 5080.43 875.438  12
 -13  -5   1 2742.40 663.184  17
  13  -5  -1 2085.90 631.300   3
 -13   5   1 1264.17 464.008  12
 -13  -5   1 1200.14 426.587  12
 -13  -5   0 4514.25 832.858  17
  13  -6  -8 1716.81 541.454  10
 -13  -6   8 1523.37 521.911  17
 -13   6   7 933.332 396.600   5
 -13  -6   7 2271.21 610.078  17
  13   6  -7 2850.90 696.377   7
 -13   6   6 389.650 324.181   5
 -13  -6   6 991.256 485.717  17
 -13   6   5 1095.39 518.234   5
 -13  -6   5 1607.52 531.065  17
 -13   6   4-223.580 331.455   5
 -13  -6   4-194.280 366.145  17
 -13  -6   3 3305.67 725.198  17
 -13   6   2 217.904 354.272  12
 -14   0  13 817.749 457.977   6
  14   0 -12 2711.25 656.163   7
  14   0 -11 1146.87 540.445   7
 -14   0  10 6070.36 926.442   8
  14   0 -10 6848.87 1020.03   7
 -14   0   9 23.8783 230.738   8
  14   0  -9 423.609 379.505   7
 -14   0   8 13804.9 1364.36   8
  14   0  -8 15615.4 1510.57   7
 -14   0   7-234.090 307.128   8
  14   0  -7 51.9450 277.180   7
 -14   0   6 713.448 410.583   8
  14   0  -6 406.942 302.770   7
 -14   0   5 524.951 338.843   8
  14   0  -5-330.465 278.122   7
 -14   0   4 702.481 411.463   8
  14   0  -4-266.584 350.542   7
  14   0  -3-550.284 421.437   7
 -14   0   3-125.491 233.986  13
  14   0  -2 9257.39 1144.91   7
 -14   0   2 10236.3 1198.90  12
  14   0  -1 238.808 276.958   7
  14   0  -1 755.764 473.208  14
 -14   0   1 134.289 300.364  12
  14   0   0 8624.12 1093.75   7
  14   0   0 9957.87 1222.42  14
 -14   0   0 8567.40 1143.29  12
 -14  -1  13 1890.88 592.935   6
 -14   1  13 1114.42 467.985   6
  14   1 -12 250.565 371.157   7
 -14  -1  12 214.721 267.245   6
  14  -1 -11 404.025 261.048   7
  14   1 -11 1232.61 483.572   7
 -14   1  10 185.520 274.313   8
 -14  -1  10 93.9197 227.713   8
  14  -1 -10 528.340 352.068   7
  14   1 -10 610.479 386.834   7
 -14   1   9 5572.99 919.335   8
 -14  -1   9 5594.76 858.577   8
  14  -1  -9 4591.45 879.487   7
  14   1  -9 6812.11 1009.52   7
 -14  -1   8 402.156 337.233   8
 -14   1   8 147.716 334.723   8
  14  -1  -8-118.236 280.821   7
  14   1  -8 296.577 381.013   7
 -14   1   7 6003.96 933.622   8
 -14  -1   7 5271.32 824.732   8
  14  -1  -7 7045.52 1028.69   7
  14   1  -7 6597.63 990.820   7
 -14  -1   7 9094.20 1080.20  13
 -14  -1   6-90.3078 251.222   8
 -14   1   6 466.706 375.338   8
  14  -1  -6 232.575 290.196   7
  14   1  -6 371.620 352.074   7
 -14  -1   6 478.576 311.702  13
 -14   1   5 2344.81 605.620   8
  14  -1  -5 958.403 433.866   7
  14   1  -5 1848.81 603.066   7
 -14  -1   5 1821.65 519.812  13
 -14   1   4 336.967 318.822   8
  14  -1  -4-78.0038 235.233   7
  14   1  -4 1131.57 486.509   7
 -14  -1   4 934.849 404.940  13
 -14   1   3 4365.42 807.887   8
  14  -1  -3 4753.04 824.560   7
  14   1  -3 4997.81 853.266   7
 -14  -1   3 4090.93 761.369  13
  14  -1  -2 95.5892 244.733   7
  14   1  -2-533.493 420.191   7
 -14  -1   2-153.234 300.603  13
 -14   1   2 67.1551 287.829  12
 -14  -1   2-279.919 347.285  12
  14  -1  -1 4896.61 833.336   7
  14   1  -1 4340.72 798.469   7
  14  -1  -1 4382.74 772.280  14
 -14   1   1 4345.25 809.134  12
 -14  -1   1 5620.92 914.003  12
  14   1   0-117.503 269.538   7
  14  -1   0-48.0147 275.147  14
 -14   1   0 36.0409 269.899  12
 -14  -1   0 754.325 454.774  12
  14   1   1 416.076 265.294   7
 -14   2  11-354.029 356.804   8
  14  -2 -11-206.528 318.870   7
  14   2 -11 270.024 298.104   7
 -14   2  10 1004.86 459.073   8
  14  -2 -10 1159.55 490.543   7
  14   2 -10 1148.15 452.944   7
 -14  -2  10 1345.86 464.212  13
 -14   2   9 747.765 382.582   8
  14  -2  -9 307.790 334.090   7
  14   2  -9 499.631 348.551   7
 -14  -2   9 823.729 394.858  13
 -14   2   8 8852.90 1145.07   8
  14  -2  -8 7489.89 1072.40   7
  14   2  -8 9201.06 1162.38   7
 -14  -2   8 8424.71 1091.61  13
 -14   2   7 276.776 361.189   8
  14  -2  -7 316.062 368.802   7
  14   2  -7 215.820 352.496   7
 -14  -2   7 136.637 216.819  13
 -14   2   6 6097.08 943.259   8
  14  -2  -6 5246.26 894.363   7
  14   2  -6 6387.89 959.619   7
 -14  -2   6 7283.07 1008.56  13
 -14   2   5 610.537 384.577   8
  14  -2  -5 1218.29 490.376   7
  14   2  -5 682.649 374.955   7
 -14  -2   5 979.889 470.008  13
 -14   2   4 2312.96 643.087   8
  14  -2  -4 2665.48 647.789   7
  14   2  -4 2054.59 614.167   7
 -14  -2   4 2878.85 663.567  13
 -14   2   3 877.084 397.485   8
  14  -2  -3 181.245 263.502   7
  14   2  -3-18.9010 331.704   7
 -14  -2   3-370.310 389.386  13
  14  -2  -2 4298.90 772.615   7
  14   2  -2 4579.66 841.401   7
 -14  -2   2 3629.51 757.327  13
 -14   2   2 3519.58 745.034  12
 -14  -2   2 3789.79 750.378  12
  14   2  -1 487.201 334.902   7
 -14  -2   1 504.494 408.549  13
 -14   2   1 918.323 474.908  12
 -14  -2   1-140.132 335.172  12
  14  -2   0 1803.06 553.813  14
  14   2   0 2053.62 578.391   7
  14  -3 -12-56.5315 199.031  10
  14  -3 -11 4194.25 769.215  10
 -14  -3  11 5363.44 907.902  13
  14  -3 -10 26.7962 279.141   7
  14   3 -10-300.510 301.185   7
 -14  -3  10 468.827 349.046  13
 -14   3   9 3967.97 813.776   8
  14  -3  -9 3771.84 797.869   7
  14   3  -9 3721.68 769.326   7
 -14  -3   9 2844.42 697.239  13
 -14   3   8 586.648 390.200   8
  14  -3  -8-68.5838 254.949   7
  14   3  -8-188.330 339.402   7
 -14  -3   8 301.200 336.342  13
 -14   3   7 1018.90 455.458   8
  14  -3  -7 694.117 420.858   7
  14   3  -7-60.8602 301.902   7
 -14  -3   7 465.972 309.867  13
 -14   3   6 7.70020 278.074   8
  14  -3  -6 236.676 249.917   7
  14   3  -6-59.8663 297.219   7
 -14  -3   6 505.891 350.840  13
 -14   3   5 1460.01 527.062   8
  14  -3  -5 1134.43 421.186   7
  14   3  -5 838.843 428.410   7
 -14  -3   5 1446.24 503.474  13
 -14   3   4 1338.48 507.526   8
  14  -3  -4 990.169 444.829   7
  14   3  -4 714.911 429.952   7
 -14  -3   4 1550.12 553.687  13
  14  -3  -3 7673.23 1046.38   7
  14   3  -3 7320.99 1052.16   7
 -14  -3   3 8014.33 1115.56  13
  14   3  -2 1956.93 579.134   7
 -14  -3   2 707.390 430.773  13
 -14   3   2 1535.96 531.082  12
 -14  -3   2 1407.49 512.761  12
 -14   3   1 4950.60 880.571  12
 -14  -3   1 6452.42 1005.24  12
  14  -4 -10-19.3132 310.912  10
 -14  -4  10 1297.88 465.073  17
  14  -4  -9 355.587 343.479  10
 -14  -4   9-46.4738 234.655  17
  14  -4  -8 6701.78 952.857  10
 -14  -4   8 7602.02 1049.26  17
 -14  -4   8 7514.80 1074.73  13
 -14  -4   7 884.998 426.924  17
  14  -4  -7 1470.03 572.521   7
 -14  -4   7 1645.04 552.598  13
  14  -4  -6 7667.34 1080.76   7
 -14  -4   6 5698.42 952.806  13
  14  -4  -5-191.007 271.838   7
 -14  -4   5-102.637 288.977  13
  14  -4  -4 1671.63 512.959   7
 -14  -4   2 3002.11 692.108  12
 -15   0   8 76.1212 234.843   8
 -15   0   7 1595.82 519.618   8
 -15   0   6-148.974 259.040   8
 -15   0   5 184.100 292.448   8
 -15  -1   5-145.913 210.814  13
   0   0   0    0.00    0.00   0
;
_shelx_res_checksum              50771
_shelx_res_file
;
TITL exp_681_rt in P2(1)/n
REM P2(1)/n (#14 in standard setting)
CELL 0.71073   9.3600   7.81198  11.9892  90.0000 110.110  90.0000
ZERR    2.00   0.0003   0.00019   0.0003   0.0000   0.003   0.0000
LATT  1
SYMM -x+1/2, y+1/2,-z+1/2
SFAC C H N O P Cl Pd
UNIT 12 44 4 4 4 8 2
OMIT -3 70
LIST 4 ! automatically inserted. Change 6 to 4 for CHECKCIF!!
L.S. 4
ACTA
BOND $H
EQIV $1 -x, -y, -z+1
EQIV $2 -x+1/2, y-1/2, -z+1/2
HTAB N1 Cl1
HTAB N1 O1_$1
HTAB N1 Cl1_$2
HTAB N1 CL2_$2
CONF
FMAP 2
PLAN -20
WGHT    0.017800    0.217000
EXTI    0.004041
FVAR       5.25116
MOLE   1
REM Anion
PD1   7    0.000000    0.000000    0.000000    10.50000    0.02378    0.02169 =
         0.02289   -0.00143    0.00878   -0.00035
CL1   6    0.228770    0.042617    0.151188    11.00000    0.02834    0.04381 =
         0.02818   -0.00045    0.00520   -0.00517
CL2   6    0.072053    0.200559   -0.111159    11.00000    0.04472    0.03740 =
         0.03567    0.00673    0.01464   -0.00905
REM Cation
O1    4    0.132292   -0.012724    0.622404    11.00000    0.03006    0.03082 =
         0.03149    0.00279    0.01424   -0.00090
P1    5    0.219465    0.129715    0.592397    11.00000    0.02492    0.02507 =
         0.02430    0.00136    0.00827    0.00067
N1    3    0.158981   -0.058122    0.387985    11.00000    0.03375    0.03242 =
         0.03281   -0.00360    0.01697   -0.00069
H11   2    0.066400   -0.046209    0.383759    11.00000    0.05607
H12   2    0.166704   -0.063789    0.317003    11.00000    0.05505
H13   2    0.192593   -0.151453    0.421221    11.00000    0.04919
C1    1    0.120358    0.328425    0.570505    11.00000    0.05292    0.03136 =
         0.05723    0.00871    0.02796    0.01110
AFIX 137
H1A   2    0.025116    0.317440    0.506403    11.00000   -1.50000
H1B   2    0.180680    0.415470    0.551496    11.00000   -1.50000
H1C   2    0.101856    0.359479    0.641815    11.00000   -1.50000
AFIX   0
C2    1    0.402395    0.166549    0.699422    11.00000    0.03539    0.04660 =
         0.03690    0.00157    0.00269   -0.00865
AFIX 137
H2A   2    0.391932    0.203788    0.772535    11.00000   -1.50000
H2B   2    0.453773    0.253290    0.670805    11.00000   -1.50000
H2C   2    0.460422    0.062493    0.712816    11.00000   -1.50000
AFIX   0
C3    1    0.253180    0.083780    0.453440    11.00000    0.03582    0.04038 =
         0.03359   -0.00371    0.01901   -0.00941
AFIX  23
H3A   2    0.231128    0.185382    0.403912    11.00000   -1.20000
H3B   2    0.359632    0.055496    0.471252    11.00000   -1.20000
AFIX   0
HKLF 4
REM  exp_681_rt in P2(1)/n
REM R1 =  0.0223 for    3077 Fo > 4sig(Fo)  and  0.0302 for all    3595 data
REM     94 parameters refined using      0 restraints
END
WGHT      0.0176      0.2433
REM Highest difference peak  0.455,  deepest hole -0.571,  1-sigma level  0.072
Q1    1   0.1882  0.0997  0.1608  11.00000  0.05    0.46
Q2    1  -0.1793  0.3723  0.1674  11.00000  0.05    0.42
Q3    1  -0.2652  0.4137  0.0200  11.00000  0.05    0.39
Q4    1  -0.3440  0.4371  0.0980  11.00000  0.05    0.32
Q5    1  -0.2022  0.3784 -0.0780  11.00000  0.05    0.30
Q6    1  -0.4120  0.4611  0.1390  11.00000  0.05    0.29
Q7    1  -0.1369 -0.1582  0.1016  11.00000  0.05    0.29
Q8    1  -0.1020  0.0563  0.0050  11.00000  0.05    0.28
Q9    1   0.2359 -0.0414  0.1665  11.00000  0.05    0.28
Q10   1   0.1330  0.0500  0.0685  11.00000  0.05    0.28
Q11   1   0.1811 -0.0964  0.1789  11.00000  0.05    0.28
Q12   1  -0.0665  0.2128  0.1129  11.00000  0.05    0.27
Q13   1   0.1777 -0.0041  0.1932  11.00000  0.05    0.26
Q14   1  -0.0602 -0.2140  0.0695  11.00000  0.05    0.26
Q15   1  -0.3372  0.2645  0.0907  11.00000  0.05    0.26
Q16   1   0.2326  0.0173  0.2284  11.00000  0.05    0.25
Q17   1   0.1921 -0.0192  0.6004  11.00000  0.05    0.25
Q18   1   0.1349  0.2778 -0.0530  11.00000  0.05    0.25
Q19   1   0.2460  0.0578  0.1115  11.00000  0.05    0.24
Q20   1   0.2165 -0.1270  0.5899  11.00000  0.05    0.23
;
_shelxl_version_number           20.13
#END Tags that were not found in dictionaries
loop_
_space_group_symop_operation_xyz
'x, y, z'
'-x+1/2, y+1/2, -z+1/2'
'-x, -y, -z'
'x-1/2, -y-1/2, z-1/2'
loop_
_atom_site_type_symbol
_atom_site_label
_atom_site_fract_x
_atom_site_fract_y
_atom_site_fract_z
_atom_site_U_iso_or_equiv
_atom_site_adp_type
_atom_site_calc_flag
_atom_site_occupancy
Pd Pd1 0.0000 0.0000 0.0000 0.02259(4) Uani d 1
Cl Cl1 0.22877(4) 0.04262(5) 0.15119(3) 0.03461(8) Uani d 1
Cl Cl2 0.07205(5) 0.20056(5) -0.11116(4) 0.03905(9) Uani d 1
O O1 0.13229(12) -0.01272(13) 0.62240(10) 0.0298(2) Uani d 1
P P1 0.21946(4) 0.12971(5) 0.59240(3) 0.02481(7) Uani d 1
N N1 0.15898(16) -0.05812(19) 0.38798(13) 0.0316(3) Uani d 1
H H11 0.066(3) -0.046(3) 0.384(2) 0.056(6) Uiso d 1
H H12 0.167(2) -0.064(3) 0.317(2) 0.055(6) Uiso d 1
H H13 0.193(2) -0.151(3) 0.421(2) 0.049(6) Uiso d 1
C C1 0.1204(2) 0.3284(2) 0.57050(18) 0.0448(4) Uani d 1
H H1A 0.0251 0.3174 0.5064 0.067 Uiso calc 1
H H1B 0.1807 0.4155 0.5515 0.067 Uiso calc 1
H H1C 0.1019 0.3595 0.6418 0.067 Uiso calc 1
C C2 0.40239(19) 0.1665(2) 0.69942(15) 0.0422(4) Uani d 1
H H2A 0.3919 0.2038 0.7725 0.063 Uiso calc 1
H H2B 0.4538 0.2533 0.6708 0.063 Uiso calc 1
H H2C 0.4604 0.0625 0.7128 0.063 Uiso calc 1
C C3 0.25318(18) 0.0838(2) 0.45344(14) 0.0348(3) Uani d 1
H H3A 0.2311 0.1854 0.4039 0.042 Uiso calc 1
H H3B 0.3596 0.0555 0.4713 0.042 Uiso calc 1
loop_
_atom_site_aniso_label
_atom_site_aniso_U_11
_atom_site_aniso_U_22
_atom_site_aniso_U_33
_atom_site_aniso_U_12
_atom_site_aniso_U_13
_atom_site_aniso_U_23
Pd1 0.02378(7) 0.02169(7) 0.02289(7) -0.00035(5) 0.00878(5) -0.00143(5)
Cl1 0.02834(16) 0.0438(2) 0.02818(16) -0.00517(14) 0.00520(13) -0.00045(14)
Cl2 0.0447(2) 0.0374(2) 0.03567(19) -0.00905(16) 0.01464(16) 0.00673(15)
O1 0.0301(5) 0.0308(5) 0.0315(5) -0.0009(4) 0.0142(4) 0.0028(4)
P1 0.02492(16) 0.02507(16) 0.02430(15) 0.00067(12) 0.00827(12) 0.00136(12)
N1 0.0337(7) 0.0324(6) 0.0328(6) -0.0007(5) 0.0170(5) -0.0036(5)
C1 0.0529(10) 0.0314(8) 0.0572(11) 0.0111(7) 0.0280(9) 0.0087(7)
C2 0.0354(8) 0.0466(10) 0.0369(8) -0.0086(7) 0.0027(6) 0.0016(7)
C3 0.0358(8) 0.0404(8) 0.0336(7) -0.0094(6) 0.0190(6) -0.0037(6)
loop_
_atom_type_symbol
_atom_type_description
_atom_type_scat_dispersion_real
_atom_type_scat_dispersion_imag
_atom_type_scat_source
C C 0.0033 0.0016 'International Tables Vol C Tables 4.2.6.8 and 6.1.1.4'
H H 0.0000 0.0000 'International Tables Vol C Tables 4.2.6.8 and 6.1.1.4'
N N 0.0061 0.0033 'International Tables Vol C Tables 4.2.6.8 and 6.1.1.4'
O O 0.0106 0.0060 'International Tables Vol C Tables 4.2.6.8 and 6.1.1.4'
P P 0.1023 0.0942 'International Tables Vol C Tables 4.2.6.8 and 6.1.1.4'
Cl Cl 0.1484 0.1585 'International Tables Vol C Tables 4.2.6.8 and 6.1.1.4'
Pd Pd -0.9988 1.0072 'International Tables Vol C Tables 4.2.6.8 and 6.1.1.4'
loop_
_geom_angle_atom_site_label_1
_geom_angle_atom_site_label_2
_geom_angle_atom_site_label_3
_geom_angle_site_symmetry_1
_geom_angle_site_symmetry_3
_geom_angle
Cl2 Pd1 Cl2 3 . 180.0
Cl2 Pd1 Cl1 3 3 88.803(14)
Cl2 Pd1 Cl1 . 3 91.196(14)
Cl2 Pd1 Cl1 3 . 91.197(14)
Cl2 Pd1 Cl1 . . 88.803(14)
Cl1 Pd1 Cl1 3 . 180.0
O1 P1 C2 . . 114.67(7)
O1 P1 C1 . . 112.61(7)
C2 P1 C1 . . 106.82(9)
O1 P1 C3 . . 110.58(7)
C2 P1 C3 . . 105.30(8)
C1 P1 C3 . . 106.27(9)
C3 N1 H11 . . 111.1(15)
C3 N1 H12 . . 108.8(15)
H11 N1 H12 . . 112(2)
C3 N1 H13 . . 110.2(15)
H11 N1 H13 . . 109(2)
H12 N1 H13 . . 106(2)
P1 C1 H1A . . 109.5
P1 C1 H1B . . 109.5
H1A C1 H1B . . 109.5
P1 C1 H1C . . 109.5
H1A C1 H1C . . 109.5
H1B C1 H1C . . 109.5
P1 C2 H2A . . 109.5
P1 C2 H2B . . 109.5
H2A C2 H2B . . 109.5
P1 C2 H2C . . 109.5
H2A C2 H2C . . 109.5
H2B C2 H2C . . 109.5
N1 C3 P1 . . 112.01(10)
N1 C3 H3A . . 109.2
P1 C3 H3A . . 109.2
N1 C3 H3B . . 109.2
P1 C3 H3B . . 109.2
H3A C3 H3B . . 107.9
loop_
_geom_bond_atom_site_label_1
_geom_bond_atom_site_label_2
_geom_bond_site_symmetry_2
_geom_bond_distance
Pd1 Cl2 3 2.3030(4)
Pd1 Cl2 . 2.3030(4)
Pd1 Cl1 3 2.3049(4)
Pd1 Cl1 . 2.3049(4)
O1 P1 . 1.4951(10)
P1 C2 . 1.7749(16)
P1 C1 . 1.7809(17)
P1 C3 . 1.8345(15)
N1 C3 . 1.465(2)
N1 H11 . 0.86(2)
N1 H12 . 0.88(2)
N1 H13 . 0.84(2)
C1 H1A . 0.9600
C1 H1B . 0.9600
C1 H1C . 0.9600
C2 H2A . 0.9600
C2 H2B . 0.9600
C2 H2C . 0.9600
C3 H3A . 0.9700
C3 H3B . 0.9700
loop_
_geom_hbond_atom_site_label_D
_geom_hbond_atom_site_label_H
_geom_hbond_atom_site_label_A
_geom_hbond_site_symmetry_A
_geom_hbond_distance_DH
_geom_hbond_distance_HA
_geom_hbond_distance_DA
_geom_hbond_angle_DHA
N1 H12 Cl1 . 0.88(2) 2.40(2) 3.2220(15) 155(2)
N1 H11 O1 3_556 0.86(2) 1.89(2) 2.7425(17) 172(2)
N1 H13 Cl1 2_545 0.84(2) 2.73(2) 3.3752(15) 135.1(18)
N1 H13 Cl2 2_545 0.84(2) 2.82(2) 3.5241(16) 143.4(18)
loop_
_geom_torsion_atom_site_label_1
_geom_torsion_atom_site_label_2
_geom_torsion_atom_site_label_3
_geom_torsion_atom_site_label_4
_geom_torsion
O1 P1 C3 N1 13.59(14)
C2 P1 C3 N1 137.98(13)
C1 P1 C3 N1 -108.92(13)
