#------------------------------------------------------------------------------
#$Date: 2016-02-21 11:56:54 +0200 (Sun, 21 Feb 2016) $
#$Revision: 176809 $
#$URL: svn://www.crystallography.net/cod/cif/2/24/03/2240323.cif $
#------------------------------------------------------------------------------
#
# This file is available in the Crystallography Open Database (COD),
# http://www.crystallography.net/. The original data for this entry
# were provided by IUCr Journals, http://journals.iucr.org/.
#
# The file may be used within the scientific community so long as
# proper attribution is given to the journal article from which the
# data were obtained.
#
data_2240323
loop_
_publ_author_name
'Gomes, Ligia R.'
'Low, John Nicolson'
'Cagide, Fernando'
'Borges, Fernanda'
_publ_section_title
;
 The crystal structures of four
 <i>N</i>-(4-halophenyl)-4-oxo-4<i>H</i>-chromene-3-carboxamides
;
_journal_coeditor_code           LH5743
_journal_issue                   1
_journal_name_full               'Acta Crystallographica Section E'
_journal_page_first              88
_journal_page_last               93
_journal_paper_doi               10.1107/S2056989014027054
_journal_volume                  71
_journal_year                    2015
_chemical_formula_iupac          'C16 H10 Br N O3'
_chemical_formula_moiety         'C16 H10 Br N O3'
_chemical_formula_sum            'C16 H10 Br N O3'
_chemical_formula_weight         344.16
_chemical_name_systematic
;
<i>N</i>-(4-Bromophenyl)-4-oxo-4<i>H</i>-chromene-3-carboxamide
;
_space_group_crystal_system      triclinic
_space_group_IT_number           2
_space_group_name_Hall           '-P 1'
_space_group_name_H-M_alt        'P -1'
_symmetry_space_group_name_Hall  '-P 1'
_symmetry_space_group_name_H-M   'P -1'
_atom_sites_solution_hydrogens   mixed
_audit_creation_method           SHELXL-2014
_cell_angle_alpha                100.280(6)
_cell_angle_beta                 90.461(6)
_cell_angle_gamma                100.884(6)
_cell_formula_units_Z            2
_cell_length_a                   6.6505(5)
_cell_length_b                   9.3580(7)
_cell_length_c                   11.0060(8)
_cell_measurement_reflns_used    8172
_cell_measurement_temperature    120(2)
_cell_measurement_theta_max      27.5
_cell_measurement_theta_min      1.9
_cell_volume                     661.23(9)
_computing_cell_refinement
;
<i>CrystalClear-SM Expert</i> (Rigaku, 2012)
;
_computing_data_collection
;
<i>CrystalClear-SM Expert</i> (Rigaku, 2012)
;
_computing_data_reduction
;
<i>CrystalClear-SM Expert</i> (Rigaku, 2012)
;
_computing_molecular_graphics
;
Mercury (Macrae <i>et al.</i>,  2006)
;
_computing_publication_material
;
OSCAIL (McArdle <i>et al.</i>,  2004), SHELXL2014 (Sheldrick,
2008) and
PLATON (Spek, 2009)
;
_computing_structure_refinement
;
OSCAIL (McArdle <i>et al.</i>,  2004),
ShelXle (H\"ubschle <i>et al.</i>,  2011) and
SHELXL2014 (Sheldrick, 2008)
;
_computing_structure_solution
;
SHELXS97 (Sheldrick, 2008),
PLATON (Spek, 2009) and
Flipper 25 (Oszl\'anyi & S\"ut\>o, 2004)
;
_diffrn_ambient_temperature      120(2)
_diffrn_detector_area_resol_mean 10.0000
_diffrn_measured_fraction_theta_full 0.996
_diffrn_measured_fraction_theta_max 0.995
_diffrn_measurement_device
;
Crystal Goniometer
;
_diffrn_measurement_device_type
;
Rigaku RAXIS conversion
;
_diffrn_measurement_method       'profile data from \w-scans'
_diffrn_radiation_monochromator  'Graphite Monochromator'
_diffrn_radiation_type           MoK\a
_diffrn_radiation_wavelength     0.71075
_diffrn_reflns_av_R_equivalents  0.0450
_diffrn_reflns_limit_h_max       8
_diffrn_reflns_limit_h_min       -8
_diffrn_reflns_limit_k_max       12
_diffrn_reflns_limit_k_min       -12
_diffrn_reflns_limit_l_max       14
_diffrn_reflns_limit_l_min       -14
_diffrn_reflns_number            9930
_diffrn_reflns_theta_full        25.000
_diffrn_reflns_theta_max         27.476
_diffrn_reflns_theta_min         2.254
_exptl_absorpt_coefficient_mu    3.118
_exptl_absorpt_correction_T_max  0.835
_exptl_absorpt_correction_T_min  0.265
_exptl_absorpt_correction_type   multi-scan
_exptl_absorpt_process_details
;
(<i>CrystalClear-SM Expert</i>; Rigaku, 20112)
;
_exptl_crystal_colour            colourless
_exptl_crystal_density_diffrn    1.729
_exptl_crystal_description       plate
_exptl_crystal_F_000             344
_exptl_crystal_size_max          0.580
_exptl_crystal_size_mid          0.180
_exptl_crystal_size_min          0.060
_refine_diff_density_max         0.530
_refine_diff_density_min         -0.691
_refine_ls_extinction_method     none
_refine_ls_goodness_of_fit_ref   0.936
_refine_ls_hydrogen_treatment    mixed
_refine_ls_matrix_type           full
_refine_ls_number_parameters     194
_refine_ls_number_reflns         3017
_refine_ls_number_restraints     0
_refine_ls_restrained_S_all      0.936
_refine_ls_R_factor_all          0.0340
_refine_ls_R_factor_gt           0.0267
_refine_ls_shift/su_max          0.000
_refine_ls_shift/su_mean         0.000
_refine_ls_structure_factor_coef Fsqd
_refine_ls_weighting_details
'w=1/[\s^2^(Fo^2^)+(0.0254P)^2^] where P=(Fo^2^+2Fc^2^)/3'
_refine_ls_weighting_scheme      calc
_refine_ls_wR_factor_gt          0.0569
_refine_ls_wR_factor_ref         0.0580
_reflns_number_gt                2525
_reflns_number_total             3017
_reflns_threshold_expression     I>2\s(I)
_cod_data_source_file            lh5743sup1.cif
_cod_data_source_block           3
_cod_original_cell_volume        661.24(9)
_cod_database_code               2240323
_cod_database_fobs_code          2240323
#BEGIN Tags that were not found in dictionaries:
_shelx_space_group_comment
;
The symmetry employed for this shelxl refinement is uniquely defined
by the following loop, which should always be used as a source of
symmetry information in preference to the above space-group names.
They are only intended as comments.
;
_shelx_estimated_absorpt_t_min   0.265
_shelx_estimated_absorpt_t_max   0.835
_shelx_hkl_file
;
   0   0  -1   -0.03    0.18   1-0.53210-0.53841 0.60632 0.64709 0.59095 0.53979
   0   0   1   -0.00    0.20   1-0.49726-0.49094 0.66912 0.62836 0.55226 0.60343
   0   0   1   -0.05    0.19   1-0.48145-0.47509-0.69447-0.73520-0.53470-0.48349
   0   0  -1    0.01    0.14   1-0.44597-0.45233-0.74550-0.70477-0.49530-0.54651
   0   0   2    5.85    0.74   1-0.47855-0.46592 0.69892 0.61740 0.53149 0.63382
   0   0  -2    5.95    0.68   1-0.54823-0.56086 0.57333 0.65486 0.60887 0.50654
   0   0  -2    5.53    0.57   1-0.42729-0.44001-0.76955-0.68809-0.47455-0.57698
   0   0   2    5.17    0.52   1-0.49824-0.48552-0.66748-0.74895-0.55336-0.45093
   0   0   3   46.66    2.05   1-0.45898-0.44003 0.72765 0.60536 0.50975 0.66325
   0   0  -3   47.60    1.92   1-0.56349-0.58244 0.53926 0.66155 0.62582 0.47233
   0   0  -3   46.24    1.67   1-0.40797-0.42706-0.79262-0.67043-0.45310-0.60674
   0   0   3   45.55    1.89   1-0.51441-0.49532-0.63951-0.76171-0.57131-0.41766
   0   0   4    5.38    0.73   1-0.43853-0.41326 0.75530 0.59224 0.48704 0.69170
   0   0  -4    5.64    0.69   1-0.57898-0.60439 0.50127 0.66488 0.64303 0.43889
   0   0  -4    5.65    0.61   1-0.38801-0.41346-0.81470-0.65177-0.43093-0.63579
   0   0   4    5.17    0.53   1-0.52993-0.50448-0.61055-0.77348-0.58854-0.38369
   0   0   5   88.01    2.96   1-0.41718-0.38561 0.78183 0.57801 0.46333 0.71916
   0   0  -5   83.15    2.70   1-0.59239-0.62414 0.46498 0.66950 0.65791 0.40274
   0   0  -5   84.89    2.45   1-0.36741-0.39922-0.83576-0.63210-0.40805-0.66412
   0   0   5   84.92    2.68   1-0.54480-0.51299-0.58059-0.78424-0.60506-0.34899
   0   0   6    1.72    0.51   1-0.39493-0.35703 0.80724 0.56265 0.43861 0.74561
   0   0  -6    1.97    0.66   1-0.60488-0.64298 0.42757 0.67299 0.67178 0.36557
   0   0  -6    1.91    0.42   1-0.34614-0.38431-0.85580-0.61141-0.38442-0.69171
   0   0   6    1.98    0.44   1-0.55901-0.52083-0.54959-0.79398-0.62084-0.31355
   0   0   7   34.59    1.57   1-0.37173-0.32752 0.83148 0.54613 0.41285 0.77101
   0   0  -7   34.29    1.47   1-0.61642-0.66088 0.38899 0.67531 0.68461 0.32736
   0   0  -7   35.97    1.37   1-0.32419-0.36873-0.87478-0.58966-0.36005-0.71855
   0   0   7   37.71    1.33   1-0.57245-0.52813-0.51776-0.80266-0.63577-0.27713
   0   0   8    2.38    0.61   1-0.34756-0.29703 0.85451 0.52840 0.38600 0.79533
   0   0  -8    2.82    0.80   1-0.62700-0.67781 0.34922 0.67644 0.69635 0.28807
   0   0  -8    2.49    0.50   1-0.30155-0.35245-0.89269-0.56683-0.33490-0.74462
   0   0   8    2.47    0.49   1-0.58530-0.53464-0.48462-0.81023-0.65004-0.24017
   0   0   9   -0.01    0.55   1-0.32237-0.26553 0.87628 0.50941 0.35803 0.81853
   0   0  -9   -0.09    0.53   1-0.63655-0.69372 0.30819 0.67632 0.70696 0.24765
   0   0  -9   -0.33    0.66   1-0.27818-0.33545-0.90947-0.54289-0.30896-0.76989
   0   0   9   -0.04    0.44   1-0.59742-0.54043-0.45037-0.81667-0.66350-0.20240
   0   0  10    9.41    0.89   1-0.29612-0.23296 0.89674 0.48910 0.32888 0.84053
   0   0 -10   10.43    1.13   1-0.64504-0.70856 0.26586 0.67489 0.71640 0.20605
   0   0 -10   10.23    0.85   1-0.25407-0.31770-0.92510-0.51778-0.28218-0.79433
   0   0  10   11.12    0.95   1-0.60880-0.54547-0.41496-0.82196-0.67614-0.16380
   0   0  11   23.85    2.00   1-0.26874-0.19926 0.91579 0.46739 0.29847 0.86129
   0   0 -11   25.98    1.99   1-0.65241-0.72227 0.22214 0.67207 0.72457 0.16319
   0   0  11   27.18    1.97   1-0.61939-0.54974-0.37832-0.82603-0.68790-0.12433
   0   0 -12    1.04    0.97   1-0.65857-0.73478 0.17693 0.66777 0.73141 0.11900
   0   0 -13    0.13    0.70   1-0.66343-0.74600 0.13014 0.66188 0.73682 0.07337
   0   0 -13    0.59    0.82   1 0.20725 0.12926-0.95082-0.42359-0.23017-0.89658
   0   0  13    0.93    0.55   1-0.63806-0.55574-0.30115-0.83025-0.70864-0.04260
   0   0 -14    5.04    1.20   1-0.66689-0.75581 0.08161 0.65425 0.74066 0.02617
   0   0 -14    5.40    1.35   1 0.17605 0.09206-0.96476-0.39697-0.19552-0.91319
   0   0  14    6.05    0.89   1-0.64603-0.55738-0.26045-0.83025-0.71749-0.00022
   0   1 -14    0.38    0.89   1 0.19150 0.18173-0.95817-0.37547-0.21268-0.90884
   0  -1  14    0.11    0.82   1-0.65826-0.64400-0.17951-0.76421-0.73107-0.03514
   0  -1  13    5.34    0.69   1-0.65341-0.64549-0.21546-0.75945-0.72569-0.08099
   0  -1  12   12.14    1.33   1-0.25076-0.24923 0.92712 0.42297 0.27850 0.87118
   0   1 -12   14.53    1.57   1-0.64929-0.65126 0.24168 0.74761 0.72111 0.13008
   0   1 -12   13.77    1.34   1-0.24914-0.25113-0.92809-0.42434-0.27670-0.86997
   0  -1  12   16.54    1.56   1-0.64802-0.64644-0.24915-0.75244-0.71970-0.12624
   0  -1  11    2.65    0.99   1-0.27688-0.28167 0.91036 0.44698 0.30751 0.84903
   0   1 -11    3.13    0.74   1-0.64104-0.63666 0.28670 0.75172 0.71194 0.17195
   0   1 -11    3.02    0.82   1-0.27899-0.27461-0.90893-0.44591-0.30985-0.85190
   0  -1  11    3.51    0.60   1-0.64228-0.64702-0.28042-0.74302-0.71332-0.17109
   0  -1  10   16.39    1.20   1-0.30167-0.31277 0.89260 0.46998 0.33504 0.82539
   0   1 -10   17.52    1.38   1-0.63152-0.62079 0.33052 0.75464 0.70137 0.21241
   0   1 -10   18.46    1.10   1-0.30871-0.29797-0.88721-0.46492-0.34286-0.83370
   0  -1  10   18.26    1.07   1-0.63637-0.64745-0.30902-0.73091-0.70677-0.21577
   0  -1   9   32.16    1.94   1-0.32511-0.34254 0.87402 0.49217 0.36107 0.80027
   0   1  -9   33.15    1.70   1-0.62076-0.60368 0.37329 0.75651 0.68942 0.25149
   0   1  -9   34.29    1.65   1-0.33858-0.32148-0.86252-0.48097-0.37604-0.81566
   0  -1   9   35.16    1.70   1-0.63058-0.64799-0.33448-0.71567-0.70033-0.26058
   0  -1   8   43.29    2.05   1-0.34717-0.37091 0.85487 0.51378 0.38557 0.77359
   0   1  -8   42.53    2.03   1-0.60873-0.58530 0.41517 0.75749 0.67606 0.28917
   0   1  -8   44.22    1.77   1-0.36901-0.34554-0.83418-0.49336-0.40982-0.79824
   0  -1   8   43.11    1.92   1-0.62527-0.64901-0.35606-0.69655-0.69444-0.30591
   0  -1   7   67.75    2.19   1-0.36772-0.39777 0.83546 0.53513 0.40839 0.74525
   0   1  -7   66.89    2.12   1-0.59539-0.56561 0.45634 0.75776 0.66125 0.32539
   0   1  -7   65.88    1.74   1-0.40055-0.37072-0.80102-0.50094-0.44486-0.78206
   0  -1   7   61.30    1.67   1-0.62097-0.65104-0.37249-0.67228-0.68966-0.35237
   0  -1   6   35.45    1.86   1-0.38655-0.42292 0.81625 0.55669 0.42930 0.71500
   0   1  -6   37.00    1.91   1-0.58060-0.54447 0.49707 0.75759 0.64483 0.36000
   0   1  -6   34.08    1.48   1-0.43414-0.39794-0.76094-0.50159-0.48216-0.76814
   0  -1   6   31.48    1.37   1-0.61852-0.65492-0.38150-0.64059-0.68693-0.40088
   0  -1   5  116.09    3.48   1-0.40325-0.44594 0.79799 0.57919 0.44786 0.68239
   0   1  -5  112.40    3.22   1-0.56289-0.52020 0.54066 0.75946 0.62515 0.39063
   0   1  -5  104.87    2.85   1-0.47130-0.42875-0.70984-0.49122-0.52343-0.75820
   0  -1   5   97.55    2.64   1-0.61928-0.66202-0.37872-0.59711-0.68778-0.45296
   0  -1   4   52.11    2.07   1-0.41704-0.46604 0.78201 0.60397 0.46317 0.64653
   0   1  -4   54.11    2.24   1-0.54413-0.49512 0.58199 0.76002 0.60431 0.42096
   0   1  -4   51.02    1.76   1-0.51483-0.46591-0.63876-0.46086-0.57177-0.75533
   0  -1   4   49.56    1.79   1-0.62563-0.67470-0.35466-0.53235-0.69483-0.51124
   0  -1   3   61.18    2.48   1-0.42615-0.48147 0.77096 0.63370 0.47328 0.60548
   0   1  -3   61.82    2.30   1-0.52211-0.46679 0.62541 0.76268 0.57986 0.44767
   0   1  -3   61.91    1.82   1-0.56969-0.51428-0.52453-0.38754-0.63270-0.76506
   0  -1   3   63.16    1.91   1-0.64134-0.69674-0.28516-0.42216-0.71228-0.57993
   0  -1   2   22.50    1.42   1-0.42595-0.48759 0.77121 0.67470 0.47307 0.55409
   0   1  -2   23.57    1.28   1-0.49408-0.43245 0.67435 0.77086 0.54874 0.46771
   0   1  -2   23.29    0.88   1-0.64024-0.57850-0.29067-0.19437-0.71105-0.79217
   0  -1   2   22.90    1.04   1-0.66616-0.72789-0.09409-0.19038-0.73984-0.65872
   0  -1   1   36.08    1.70   1-0.59547-0.66373 0.45612 0.40081-0.66133-0.63150
   0   1   0    0.06    0.20   1-0.32087-0.24660 0.87752 0.89249 0.35636 0.37767
   0   1   0    0.04    0.14   1-0.17583-0.10154 0.96485 0.97954-0.19528-0.17370
   0  -1   0    0.06    0.15   1-0.11573-0.19001 0.98492 0.97023-0.12853-0.15011
   0   1   1    1.26    0.35   1-0.65018-0.56959 0.23624 0.21043 0.72210 0.79452
   0  -1  -1    1.16    0.34   1-0.65107-0.73139-0.23076-0.20513 0.72308 0.65037
   0   1   2    0.08    0.19   1-0.53282-0.44588 0.60490 0.53819 0.59176 0.71521
   0  -1  -2    0.14    0.25   1-0.64257-0.72951 0.27895 0.34566 0.71364 0.59019
   0   1   2    0.13    0.20   1-0.32076-0.23367-0.87761-0.94410-0.35624-0.23250
   0   1   3   16.50    1.10   1-0.48353-0.39032 0.69122 0.58391 0.53702 0.71182
   0  -1  -3   15.99    1.10   1-0.62688-0.72018 0.34969 0.45730 0.69622 0.52173
   0  -1  -3   16.76    0.92   1-0.25595-0.34941-0.92394-0.81671-0.28426-0.45921
   0   1   3   16.99    1.07   1-0.39080-0.29735-0.81171-0.91894-0.43403-0.25908
   0   1   4   16.50    1.14   1-0.45000-0.35046 0.74008 0.59200 0.49977 0.72574
   0  -1  -4   15.30    1.07   1-0.62527-0.72492 0.35606 0.50458 0.69444 0.46891
   0  -1  -4   15.42    0.90   1-0.26800-0.36782-0.91628-0.76832-0.29765-0.52381
   0   1   4   15.20    0.99   1-0.43730-0.33748-0.75689-0.90485-0.48567-0.25950
   0   1   5   44.27    2.06   1-0.42083-0.31499 0.77745 0.58861 0.46738 0.74452
   0  -1  -5   43.36    2.04   1-0.62888-0.73488 0.34156 0.53099 0.69845 0.42188
   0  -1  -5   41.00    1.66   1-0.26794-0.37412-0.91632-0.72763-0.29758-0.57496
   0   1   5   42.15    1.82   1-0.47219-0.36601-0.70852-0.89722-0.52442-0.24704
   0   1   6   26.47    1.52   1-0.39315-0.28099 0.80917 0.57956 0.43664 0.76494
   0  -1  -6   25.05    1.22   1-0.63455-0.74690 0.31730 0.54762 0.70474 0.37714
   0  -1  -6   25.37    1.14   1-0.26098-0.37352-0.92080-0.69137-0.28985-0.61844
   0   1   6   25.94    1.12   1-0.50041-0.38787-0.66385-0.89327-0.55576-0.22717
   0   1   7   48.27    2.24   1-0.36581-0.24733 0.83733 0.56695 0.40627 0.78573
   0  -1  -7   46.83    2.04   1-0.64091-0.75961 0.28731 0.55854 0.71181 0.33318
   0  -1  -7   49.82    2.00   1-0.24960-0.36850-0.92782-0.65766-0.27721-0.65702
   0   1   7   47.84    1.93   1-0.52433-0.40542-0.62125-0.89140-0.58233-0.20252
   0   1   8   26.19    1.67   1-0.33822-0.21342 0.86284 0.55170 0.37563 0.80626
   0  -1  -8   25.56    1.36   1-0.64728-0.77234 0.25340 0.56554 0.71888 0.28922
   0   1   8   26.39    1.39   1-0.54521-0.41994-0.57972-0.89061-0.60552-0.17449
   0   1   9   27.60    1.98   1-0.31007-0.17895 0.88615 0.53425 0.34436 0.82616
   0  -1  -9   27.93    1.92   1-0.65326-0.78466 0.21649 0.56952 0.72552 0.24482
   0   1   9   29.03    1.88   1-0.56376-0.43213-0.53863-0.89025-0.62612-0.14388
   0   1  10   21.16    1.45   1-0.28112-0.14369 0.90746 0.51479 0.31222 0.84518
   0  -1 -10   23.94    1.54   1-0.65856-0.79631 0.17703 0.57097 0.73140 0.19967
   0   1  10   24.30    1.35   1-0.58036-0.44264-0.49770-0.88981-0.64456-0.11087
   0   1  11   15.62    1.25   1-0.25120-0.10746 0.92685 0.49342 0.27899 0.86312
   0  -1 -11   16.89    1.21   1-0.66298-0.80708 0.13527 0.57011 0.73631 0.15354
   0   1  11   17.80    1.11   1-0.59542-0.45137-0.45625-0.88906-0.66128-0.07636
   0  -1 -12    2.57    0.99   1-0.66633-0.81679 0.09132 0.56706 0.74004 0.10623
   0  -1 -12    2.48    0.81   1 0.21689 0.07068-0.94600-0.47424-0.24089-0.87755
   0   1  12    2.62    0.79   1-0.60903-0.45864-0.41419-0.88770-0.67640-0.04024
   0  -1 -13    3.30    0.78   1-0.66844-0.82525 0.04516 0.56181 0.74238 0.05754
   0  -1 -13    2.85    1.04   1 0.18467 0.03245-0.96116-0.44884-0.20509-0.89302
   0   1  13    3.28    0.61   1-0.62129-0.46457-0.37132-0.88553-0.69001-0.00262
   0   2 -14   12.83    1.71   1-0.65589-0.59633 0.19790 0.80073 0.72844 0.05673
   0   2 -14   16.78    1.71   1 0.19938 0.26384-0.95457-0.35696-0.22144-0.89608
   0  -2  14   14.76    1.50   1-0.66676-0.72691-0.08396-0.68355-0.74052-0.06593
   0   2 -13   13.27    2.64   1-0.64883-0.58291 0.24444 0.80636 0.72060 0.09991
   0   2 -13   14.05    1.60   1-0.25985-0.19383-0.92151-0.36206-0.28859-0.91177
   0  -2  13   14.44    1.59   1-0.66481-0.73129-0.11341-0.67230-0.73834-0.11500
   0  -2  12   14.61    1.51   1-0.25397-0.32671 0.92516 0.40604 0.28206 0.85345
   0   2 -12   14.82    1.49   1-0.64045-0.56819 0.28959 0.81061 0.71130 0.14165
   0   2 -12   15.86    1.50   1-0.29374-0.22136-0.89848-0.37977-0.32624-0.89820
   0  -2  12   15.45    1.41   1-0.66260-0.73541-0.13934-0.65752-0.73589-0.16378
   0  -2  11    5.51    1.93   1-0.27766-0.35672 0.90983 0.43147 0.30837 0.82859
   0   2 -11    6.78    0.93   1-0.32780-0.24905-0.87177-0.39379-0.36406-0.88481
   0  -2  11    7.40    0.97   1-0.66037-0.73952-0.16121-0.63869-0.73342-0.21254
   0  -2  10    1.77    0.71   1-0.29985-0.38522 0.89397 0.45638 0.33301 0.80207
   0   2 -10    1.36    0.68   1-0.61996-0.53499 0.37623 0.81544 0.68854 0.22096
   0   2 -10    1.76    0.53   1-0.36238-0.27727-0.84065-0.40340-0.40246-0.87200
   0  -2  10    2.06    0.76   1-0.65842-0.74389-0.17817-0.61496-0.73125-0.26160
   0  -2   9   42.31    2.08   1-0.32045-0.41214 0.87786 0.48103 0.35589 0.77378
   0   2  -9   42.70    2.09   1-0.60788-0.51656 0.41796 0.81627 0.67512 0.25857
   0   2  -9   42.78    1.77   1-0.39794-0.30647-0.80393-0.40741-0.44196-0.86028
   0  -2   9   33.69    1.68   1-0.65708-0.74888-0.18891-0.58500-0.72976-0.31135
   0  -2   8   12.61    1.13   1-0.33931-0.43732 0.86188 0.50582 0.37684 0.74356
   0   2  -8   12.51    0.97   1-0.59454-0.49687 0.45880 0.81621 0.66031 0.29480
   0   2  -8   13.15    0.89   1-0.43511-0.33728-0.75970-0.40391-0.48324-0.85034
   0  -2   8    9.12    0.79   1-0.65676-0.75490-0.19133-0.54671-0.72941-0.36223
   0  -2   7    0.30    0.51   1-0.35617-0.46050 0.84655 0.53125 0.39557 0.71113
   0   2  -7    0.39    0.72   1-0.57989-0.47587 0.49892 0.81542 0.64404 0.32957
   0   2  -7    0.26    0.47   1-0.47472-0.37052-0.70474-0.38968-0.52723-0.84312
   0  -2   7    0.16    0.50   1-0.65796-0.76243-0.18194-0.49662-0.73074-0.41479
   0  -2   6   26.12    1.32   1-0.37060-0.48124 0.83260 0.55807 0.41159 0.67598
   0   2  -6   25.74    1.29   1-0.56253-0.45189 0.54150 0.81603 0.62476 0.36037
   0   2  -6   25.09    1.11   1-0.51783-0.40728-0.63330-0.35898-0.57511-0.83979
   0  -2   6   24.23    1.05   1-0.66107-0.77187-0.15472-0.42870-0.73419-0.46948
   0  -2   5  111.44    3.74   1-0.38183-0.49878 0.82120 0.58742 0.42406 0.63729
   0   2  -5  116.56    3.91   1-0.54467-0.42771 0.58086 0.81463 0.60492 0.39170
   0   2  -5  114.55    3.08   1-0.56553-0.44861-0.53447-0.30088-0.62809-0.84155
   0  -2   5  114.02    3.44   1-0.66586-0.78300-0.09865-0.33194-0.73951-0.52604
   0  -2   4    2.32    0.62   1-0.38845-0.51172 0.81423 0.62122 0.43142 0.59347
   0   2  -4    2.11    0.50   1-0.52472-0.40144 0.62053 0.81353 0.58276 0.42070
   0   2  -4    2.12    0.30   1-0.61726-0.49380-0.38600-0.19342-0.68554-0.84778
   0  -2   4    2.03    0.37   1-0.66911-0.79258 0.00714-0.18544-0.74312-0.58088
   0  -2   3   91.24    3.08   1-0.38760-0.51719 0.81513 0.66289 0.43048 0.54137
   0   2  -3   96.18    3.10   1-0.50183-0.37225 0.66145 0.81369 0.55734 0.44645
   0   2  -3   96.05    2.46   1-0.66219-0.53239-0.14357 0.00830-0.73544-0.84645
   0  -2   3   92.36    2.57   1-0.65560-0.78539 0.20008 0.04820-0.72811-0.61710
   0  -2   2   20.13    1.12   1-0.37264-0.50854 0.83057 0.71909 0.41385 0.47358
   0   2  -2   20.28    1.36   1-0.47416-0.33825 0.70558 0.81706 0.52660 0.46688
   0   2  -2   18.41    0.94   1-0.64695-0.51041 0.25532 0.36593-0.71851-0.77818
   0  -2   2   19.36    0.97   1-0.57195-0.70848 0.51901 0.40839-0.63521-0.57554
   0  -2   1   24.35    1.34   1-0.32430-0.46652 0.87469 0.80398 0.36017 0.36873
   0   2  -1   24.69    1.54   1-0.43658-0.29436 0.75782 0.82853 0.48487 0.47631
   0   2  -1   23.58    1.36   1-0.46947-0.32687 0.71254 0.78264-0.52140-0.52973
   0  -2   1   24.48    1.13   1-0.35206-0.49467 0.85038 0.78029-0.39101-0.38268
   0   2   0    7.16    0.71   1-0.36919-0.22065 0.83400 0.86396 0.41003 0.45263
   0   2   0    6.80    0.67   1 0.16416 0.31261-0.96943-0.93961-0.18232-0.13929
   0   2   0    6.63    0.58   1-0.20541-0.05684 0.95171 0.98109-0.22813-0.18497
   0  -2   0    6.91    0.60   1-0.08521-0.23378 0.99185 0.96247-0.09464-0.13780
   0   2   1    3.54    0.41   1-0.47824-0.32365-0.69941-0.71008 0.53114 0.62531
   0  -2  -1    3.86    0.51   1 0.11797-0.03646-0.98433-0.97360-0.13102-0.22531
   0   2   1    4.09    0.44   1-0.02029 0.13427 0.99953 0.98833-0.02253 0.07187
   0   2   3    0.79    0.29   1-0.49355-0.32607 0.67522 0.58288 0.54815 0.74426
   0  -2  -3    0.73    0.24   1-0.66848-0.83601-0.04400 0.04852 0.74242 0.54654
   0   2   3    0.80    0.29   1-0.30948-0.14166-0.88660-0.97886-0.34371-0.14746
   0   2   4   16.27    1.11   1-0.44501-0.27121 0.74678 0.61368 0.49423 0.74150
   0  -2  -4   16.57    1.07   1-0.66626-0.84014 0.09252 0.22595 0.73995 0.49304
   0   2   4   16.77    0.92   1-0.36880-0.19461-0.83439-0.96738-0.40959-0.16212
   0   2   5   41.36    1.97   1-0.40855-0.22844 0.79195 0.61808 0.45374 0.75218
   0  -2  -5   38.08    1.72   1-0.66274-0.84298 0.13781 0.31214 0.73605 0.43810
   0   2   5   38.17    1.58   1-0.41455-0.23400-0.78496-0.95869-0.46040-0.16171
   0   2   6    2.16    0.61   1-0.37630-0.18986 0.82688 0.61225 0.41792 0.76752
   0  -2  -6    1.97    0.45   1-0.66189-0.84848 0.14667 0.36190 0.73510 0.38612
   0   2   6    2.02    0.44   1-0.45162-0.26471-0.73786-0.95232-0.50158-0.15168
   0   2   7   35.68    1.96   1-0.34556-0.15281 0.85632 0.60092 0.38379 0.78456
   0  -2  -7   34.53    1.62   1-0.66279-0.85574 0.13723 0.39337 0.73611 0.33609
   0   2   7   34.40    1.50   1-0.48278-0.28950-0.69241-0.94759-0.53618-0.13506
   0   2   8    2.71    0.57   1-0.31518-0.11611 0.88211 0.58595 0.35004 0.80198
   0  -2  -8    2.56    0.54   1-0.66453-0.86382 0.11700 0.41404 0.73803 0.28698
   0   2   8    2.17    0.66   1-0.50963-0.31000-0.64799-0.94391-0.56601-0.11368
   0   2   9    8.50    1.19   1-0.28452-0.07914 0.90509 0.56816 0.31599 0.81909
   0  -2  -9    8.71    1.16   1-0.66644-0.87208 0.08959 0.42753 0.74015 0.23807
   0   2   9    9.18    1.03   1-0.53322-0.32722-0.60412-0.94077-0.59220-0.08865
   0   2  10   -0.00    0.53   1-0.25320-0.04150 0.92563 0.54794 0.28121 0.83548
   0  -2 -10    0.37    0.53   1-0.66804-0.88004 0.05689 0.43573 0.74194 0.18882
   0   2  10    0.36    0.60   1-0.55418-0.34181-0.56041-0.93780-0.61547-0.06071
   0  -2 -11   -0.09    0.58   1-0.66899-0.88734 0.01995 0.43970 0.74299 0.13884
   0   2  11    0.22    0.51   1-0.57289-0.35444-0.51667-0.93459-0.63626-0.02999
   0  -2 -12    5.65    0.76   1-0.66898-0.89368-0.02063 0.44001 0.74298 0.08779
   0  -2 -12    5.40    1.53   1 0.18406-0.03636-0.96142-0.50456-0.20442-0.86260
   0   2  12    5.94    0.66   1-0.58976-0.36497-0.47239-0.93101-0.65499 0.00250
   0  -2 -13   10.55    1.19   1-0.66773-0.89878-0.06459 0.43696 0.74159 0.03536
   0  -2 -13   10.50    1.54   1 0.14936-0.07707-0.97476-0.47736-0.16588-0.87531
   0   2  13   10.67    1.20   1-0.60491-0.37380-0.42745-0.92677-0.67183 0.03690
   0   3 -14    0.82    0.95   1-0.65034-0.51653 0.23531 0.85323 0.72227 0.07194
   0   3 -14    2.13    1.01   1 0.20105 0.33973-0.95379-0.34126-0.22329-0.87642
   0   3 -14    1.36    0.72   1-0.26165-0.12763-0.92037-0.30522-0.29060-0.94368
   0  -3  14    1.36    0.70   1-0.66890-0.80344 0.02589-0.58858-0.74289-0.08965
   0   3 -13   -0.41    0.79   1-0.64232-0.50217 0.28019 0.85721 0.71337 0.11408
   0   3 -13   -0.16    0.61   1-0.29903-0.15864-0.89458-0.32016-0.33211-0.93398
   0  -3  13    0.38    0.88   1-0.66912-0.81000 0.00458-0.56919-0.74313-0.14113
   0  -3  12    0.12    0.76   1-0.25111-0.39812 0.92690 0.39281 0.27889 0.82897
   0   3 -12    0.35    0.80   1-0.33659-0.18984-0.86426-0.33058-0.37382-0.92448
   0  -3  12    0.32    0.82   1-0.66908-0.81629-0.01159-0.54467-0.74309-0.19232
   0  -3  11    5.04    2.42   1-0.27239-0.42572 0.91338 0.42005 0.30252 0.80144
   0   3 -11    8.96    2.24   1-0.62274-0.46988 0.36584 0.86105 0.69162 0.19440
   0   3 -11   10.77    1.12   1-0.37470-0.22158-0.82850-0.33555-0.41614-0.91558
   0  -3  11    7.07    0.86   1-0.66897-0.82251-0.02163-0.51401-0.74297-0.24343
   0  -3  10   17.04    1.45   1-0.29199-0.45163 0.89976 0.44719 0.32428 0.77203
   0   3 -10   18.14    1.36   1-0.61126-0.45205 0.40680 0.86110 0.67887 0.23268
   0   3 -10   17.86    1.06   1-0.41374-0.25427-0.78591-0.33369-0.45951-0.90774
   0  -3   9    3.20    0.72   1-0.30973-0.47569 0.88641 0.47460 0.34399 0.74058
   0   3  -9    3.11    0.70   1-0.59868-0.43312 0.44661 0.86001 0.66491 0.26975
   0   3  -9    3.19    0.52   1-0.45420-0.28836-0.73432-0.32284-0.50444-0.90145
   0  -3   9    1.77    0.61   1-0.66904-0.83524-0.01641-0.42739-0.74304-0.34597
   0  -3   8   43.44    2.05   1-0.32539-0.49766 0.87379 0.50275 0.36138 0.70679
   0   3  -8   43.53    2.00   1-0.58502-0.41311 0.48536 0.85786 0.64974 0.30561
   0   3  -8   42.66    1.49   1-0.49653-0.32432-0.67033-0.29958-0.55145-0.89725
   0  -3   8   36.09    1.67   1-0.66912-0.84166 0.00455-0.36572-0.74313-0.39730
   0  -3   7   44.29    2.22   1-0.33855-0.51714 0.86255 0.53227 0.37600 0.67025
   0   3  -7   46.84    2.08   1-0.56900-0.39041 0.52619 0.85646 0.63194 0.33769
   0   3  -7   44.39    1.71   1-0.54103-0.36247-0.58840-0.25838-0.60088-0.89546
   0  -3   7   43.11    1.89   1-0.66847-0.84734 0.04416-0.28540-0.74242-0.44782
   0  -3   6   51.45    1.85   1-0.34860-0.53350 0.85357 0.56405 0.38715 0.63024
   0   3  -6   52.15    2.09   1-0.55300-0.36809 0.56301 0.85252 0.61417 0.37108
   0   3  -6   47.91    1.39   1-0.58727-0.40206-0.47927-0.19040-0.65223-0.89559
   0  -3   6   48.53    1.61   1-0.66503-0.85023 0.11044-0.17842-0.73859-0.49523
   0  -3   5   98.15    3.29   1-0.35447-0.54569 0.84815 0.59940 0.39368 0.58560
   0   3  -5  102.34    3.42   1-0.53577-0.34455 0.59905 0.84780 0.59504 0.40312
   0   3  -5  104.96    3.14   1-0.63211-0.44057-0.32801-0.07983-0.70202-0.89415
   0  -3   5  102.27    3.07   1-0.65350-0.84504 0.21483-0.03333-0.72579-0.53366
   0  -3   4   37.01    1.66   1-0.35433-0.55187 0.84828 0.64029 0.39352 0.53427
   0   3  -4   37.70    1.92   1-0.51718-0.31964 0.63450 0.84248 0.57439 0.43364
   0   3  -4   38.18    1.36   1-0.66482-0.46695-0.11331 0.09416-0.73835-0.87925
   0  -3   4   34.85    1.36   1-0.62053-0.81927 0.37413 0.16770-0.68917-0.54833
   0  -3   3  156.96    4.30   1-0.34467-0.54852 0.85712 0.68990 0.38279 0.47238
   0   3  -3  161.32    4.35   1-0.49695-0.29309 0.66964 0.83686 0.55192 0.46233
   0   3  -3  157.90    3.88   1-0.65815-0.45395 0.18036 0.34714-0.73095-0.82061
   0  -3   3  158.77    4.22   1-0.54516-0.74997 0.57982 0.41391-0.60546-0.51596
   0  -3   2   69.70    2.37   1-0.31811-0.52828 0.87976 0.75330 0.35330 0.39172
   0   3  -2   69.18    2.74   1-0.47451-0.26434 0.70505 0.83150 0.52700 0.48858
   0   3  -2   69.63    2.16   1-0.57099-0.36012 0.52136 0.64676-0.63415-0.67231
   0  -3   2   72.05    2.35   1-0.40744-0.61831 0.79323 0.66783-0.45251-0.41434
   0  -3   1   33.31    1.39   1-0.25674-0.47322 0.92346 0.83776 0.28514 0.27239
   0   3  -1   33.89    1.62   1-0.44860-0.23211 0.74197 0.82766 0.49822 0.51097
   0   3  -1   30.67    1.25   1-0.40805-0.19112 0.79252 0.87741-0.45319-0.44002
   0  -3   1   30.68    1.37   1-0.22639-0.44324 0.94102 0.85635-0.25143-0.26492
   0   3   0   21.31    1.23   1-0.41553-0.19272 0.78380 0.82873 0.46149 0.52540
   0   3   0   21.28    1.24   1 0.10781 0.33048-0.98693-0.94219-0.11973-0.05519
   0   3   0   19.97    1.20   1-0.23468-0.01183 0.93647 0.98055-0.26064-0.19590
   0  -3   0   21.14    1.10   1-0.05439-0.27724 0.99669 0.95261-0.06040-0.12514
   0   3   1   34.80    1.68   1-0.35919-0.13007 0.84370 0.84786 0.39892 0.51400
   0   3   1   32.97    1.58   1-0.28996-0.06111-0.90122-0.89705 0.32203 0.43766
   0   3   1   35.07    1.49   1-0.10167 0.12718 0.98838 0.99187-0.11291 0.00307
   0   3   2    0.08    0.21   1-0.64698-0.41155 0.25514 0.21861 0.71855 0.88477
   0  -3  -2    0.16    0.18   1 0.13221-0.10246-0.98028-0.94391-0.14683-0.31390
   0   3   2    0.12    0.28   1-0.01225 0.22260 0.99983 0.96272-0.01360 0.15363
   0   3   3    1.62    0.38   1-0.46427-0.22252 0.72012 0.64275 0.51563 0.73303
   0  -3  -3    1.59    0.28   1-0.46611-0.70709-0.71745-0.64054 0.51767 0.29953
   0   3   3    1.49    0.35   1-0.26264-0.02045-0.91974-0.99703-0.29169-0.07413
   0   3   3    1.54    0.36   1 0.04473 0.28558 0.99776 0.92006 0.04967 0.26816
   0   3   4    0.38    0.27   1-0.40436-0.15629 0.79674 0.67861 0.44909 0.71767
   0  -3  -4    0.33    0.28   1-0.62707-0.87411-0.34892-0.23141 0.69643 0.42703
   0   3   4    0.36    0.33   1-0.32399-0.07543-0.87495-0.99298-0.35982-0.09104
   0   3   5    5.47    0.59   1-0.36621-0.11183 0.83693 0.67804 0.40672 0.72646
   0  -3  -5    5.30    0.58   1-0.65695-0.91143-0.18988-0.03064 0.72962 0.41029
   0   3   5    5.28    0.53   1-0.37358-0.11866-0.82962-0.98838-0.41490-0.09491
   0   3   6    7.52    0.76   1-0.33335-0.07265 0.86706 0.66740 0.37023 0.74114
   0  -3  -6    7.50    0.64   1-0.66486-0.92569-0.11276 0.08737 0.73840 0.36803
   0   3   6    7.36    0.63   1-0.41488-0.15360-0.78457-0.98406-0.46077-0.08956
   0   3   7   18.05    1.18   1-0.30197-0.03496 0.89237 0.65195 0.33537 0.75745
   0  -3  -7   16.27    1.03   1-0.66691-0.93409-0.08130 0.15973 0.74068 0.31928
   0   3   7   17.07    0.97   1-0.45011-0.18246-0.73993-0.98015-0.49989-0.07747
   0   3   8    9.01    0.85   1-0.27069 0.00263 0.91451 0.63333 0.30063 0.77387
   0  -3  -8    8.32    0.83   1-0.66724-0.94077-0.07509 0.20684 0.74104 0.26861
   0   3   8    8.53    0.79   1-0.48073-0.20672-0.69558-0.97654-0.53390-0.06026
   0  -3  -9   14.02    1.07   1-0.66673-0.94662-0.08451 0.23834 0.74048 0.21701
   0   3   9   15.08    1.13   1-0.50772-0.22735-0.65134-0.97302-0.56388-0.03903
   0  -3 -10   10.06    1.05   1-0.66546-0.95170-0.10456 0.25919 0.73907 0.16456
   0  -3 -10   10.52    1.32   1 0.20199-0.08066-0.95334-0.59252-0.22434-0.80150
   0   3  10   10.49    0.98   1-0.53176-0.24503-0.60698-0.96940-0.59058-0.01451
   0  -3 -11    7.59    0.94   1-0.66323-0.95582-0.13249 0.27216 0.73659 0.11105
   0  -3 -11    8.87    1.35   1 0.16815-0.12050-0.96790-0.56652-0.18675-0.81518
   0   3  11    8.07    1.07   1-0.55331-0.26022-0.56231-0.96546-0.61452 0.01275
   0  -3 -12    9.36    1.22   1-0.65976-0.95870-0.16675 0.27880 0.73273 0.05616
   0  -3 -12    8.71    1.32   1 0.13275-0.16190-0.98012-0.53818-0.14743-0.82713
   0   3  12    8.94    0.99   1-0.57268-0.27350-0.51718-0.96091-0.63603 0.04281
   0   4 -14   12.07    1.75   1-0.64580-0.43775 0.26173 0.89474 0.71723 0.08829
   0   4 -14   12.98    1.15   1 0.19743 0.41034-0.95547-0.32804-0.21927-0.85088
   0   4 -14   14.56    1.01   1-0.29526-0.08686-0.89737-0.26726-0.32791-0.95969
   0   4 -13   14.50    1.86   1-0.63731-0.42291 0.30470 0.89681 0.70780 0.12989
   0   4 -13   17.10    1.70   1-0.33592-0.12116-0.86485-0.27547-0.37307-0.95364
   0  -4  13    9.42    1.20   1-0.66288-0.87816 0.13630-0.45236-0.73620-0.15555
   0  -4  12   20.37    2.00   1-0.24307-0.46435 0.93168 0.38260 0.26996 0.79873
   0   4 -12   23.24    2.89   1-0.62775-0.40700 0.34620 0.89740 0.69718 0.17031
   0  -4  11   14.75    1.42   1-0.26197-0.48956 0.92017 0.41186 0.29095 0.76856
   0   4 -11   16.04    1.49   1-0.61718-0.39008 0.38629 0.89660 0.68545 0.20961
   0   4 -11   17.84    1.43   1-0.41862-0.19114-0.78012-0.27220-0.46492-0.94306
   0  -4  10   25.36    2.06   1-0.27898-0.51289 0.90893 0.44139 0.30983 0.73628
   0   4 -10   28.37    1.85   1-0.60568-0.37222 0.42502 0.89442 0.67268 0.24787
   0   4 -10   28.47    1.45   1-0.46126-0.22741-0.72443-0.25724-0.51228-0.93920
   0  -4   9   20.91    1.84   1-0.29387-0.53409 0.89839 0.47161 0.32637 0.70165
   0   4  -9   22.02    1.66   1-0.59329-0.35348 0.46242 0.89092 0.65891 0.28514
   0   4  -9   21.94    1.52   1-0.50500-0.26480-0.65604-0.22959-0.56086-0.93657
   0  -4   9   16.78    1.55   1-0.65901-0.89961 0.17324-0.25262-0.73190-0.35618
   0  -4   8    2.23    0.66   1-0.30630-0.55284 0.88907 0.50305 0.34018 0.66430
   0   4  -8    2.42    0.91   1-0.58006-0.33390 0.49849 0.88608 0.64422 0.32149
   0   4  -8    2.45    0.55   1-0.54963-0.30306-0.57033-0.18461-0.61042-0.93491
   0  -4   8    2.28    0.49   1-0.65333-0.90027 0.21600-0.16916-0.72560-0.40111
   0  -4   7   40.23    2.00   1-0.31577-0.56863 0.88164 0.53638 0.35070 0.62365
   0   4  -7   44.68    2.03   1-0.56474-0.31188 0.53635 0.88160 0.62721 0.35426
   0   4  -7   42.32    1.72   1-0.59402-0.34076-0.46030-0.11583-0.65973-0.93298
   0  -4   7   38.77    1.90   1-0.64158-0.89645 0.28396-0.05881-0.71255-0.43920
   0  -4   6   11.60    0.91   1-0.32148-0.58066 0.87702 0.57253 0.35704 0.57882
   0   4  -6   11.95    1.09   1-0.54994-0.29077 0.56965 0.87414 0.61077 0.38899
   0   4  -6   12.52    0.70   1-0.63468-0.37507-0.31672-0.01295-0.70488-0.92690
   0  -4   6   12.04    0.78   1-0.62035-0.88129 0.37479 0.07253-0.68897-0.46696
   0  -4   5    2.28    0.56   1-0.32215-0.58764 0.87647 0.61274 0.35779 0.52840
   0   4  -5    2.52    0.60   1-0.53454-0.26905 0.60151 0.86523 0.59367 0.42305
   0   4  -5    2.43    0.33   1-0.66353-0.39760-0.12903 0.13403-0.73693-0.90771
   0  -4   5    2.26    0.49   1-0.58148-0.84849 0.49477 0.23303-0.64580-0.47513
   0  -4   4   61.39    2.38   1-0.31564-0.58744 0.88174 0.65878 0.35055 0.47000
   0   4  -4   61.47    2.80   1-0.51867-0.24687 0.63177 0.85473 0.57605 0.45660
   0   4  -4   62.76    2.12   1-0.66526-0.39300 0.10732 0.32969-0.73885-0.85840
   0  -4   4   61.11    2.46   1-0.51498-0.78805 0.63848 0.41726-0.57194-0.45261
   0  -4   3  159.37    4.50   1-0.29809-0.57621 0.89528 0.71308 0.33106 0.39934
   0   4  -3  159.30    4.70   1-0.50257-0.22445 0.66020 0.84239 0.55816 0.48988
   0   4  -3  165.65    4.30   1-0.61921-0.34007 0.37898 0.55969-0.68770-0.75570
   0  -4   3  169.75    4.55   1-0.41416-0.69330 0.78542 0.60471-0.45997-0.39197
   0  -4   2    3.28    0.51   1-0.26209-0.54652 0.92009 0.77866 0.29108 0.30819
   0   4  -2    3.37    0.56   1-0.48664-0.20220 0.68634 0.82777 0.54047 0.52335
   0   4  -2    3.17    0.40   1-0.52034-0.23513 0.62871 0.76890-0.57789-0.59455
   0  -4   2    3.49    0.50   1-0.28473-0.56987 0.90494 0.76499-0.31623-0.30005
   0   4  -1   29.88    1.67   1-0.47171-0.18095 0.70924 0.80991 0.52388 0.55793
   0   4  -1   30.76    1.28   1 0.19073 0.48162-0.95851-0.85830-0.21183-0.17703
   0   4  -1   27.55    1.40   1-0.39083-0.09956 0.81168 0.91135-0.43406-0.39939
   0  -4   1   29.47    1.21   1-0.14831-0.43945 0.97512 0.87576-0.16472-0.19979
   0   4   0   25.08    1.35   1-0.45977-0.16270 0.72653 0.78643 0.51063 0.59585
   0   4   0   25.78    1.43   1 0.04892 0.34602-0.99732-0.93769-0.05434 0.03143
   0   4   0   26.84    1.21   1-0.26364 0.03349 0.91910 0.97787-0.29280-0.20648
   0  -4   0   29.88    1.31   1-0.02324-0.32038 0.99939 0.94062-0.02581-0.11213
   0   4   1    8.92    0.87   1-0.45732-0.15393 0.72998 0.74912 0.50791 0.64429
   0   4   1    8.88    0.64   1-0.25072 0.05239-0.92714-0.90807 0.27845 0.41552
   0   4   1    9.75    0.74   1-0.16059 0.14253 0.97077 0.98894-0.17836-0.04079
   0   4   2   14.03    1.74   1-0.51098-0.20127 0.64563 0.62400 0.56750 0.75505
   0   4   2   12.27    1.71   1-0.66683-0.35715-0.08282-0.10426 0.74059 0.92820
   0   4   2   14.21    0.88   1-0.08408 0.22505 0.99207 0.96966-0.09338 0.09543
   0   4   3   13.04    0.81   1-0.03011 0.28502 0.99898 0.93598-0.03344 0.20662
   0  -4  -5    2.90    0.36   1-0.49498-0.82235-0.67289-0.52975 0.54973 0.20761
   0   4   5    2.22    0.44   1-0.34693-0.01765-0.85508-0.99887-0.38531-0.04401
   0   4   5    2.17    0.45   1 0.03031 0.35746 0.99897 0.85478 0.03367 0.37624
   0  -4  -6   14.57    0.81   1-0.58467-0.91810-0.48632-0.30258 0.64934 0.25597
   0   4   6   14.20    0.98   1-0.38939-0.05374-0.81323-0.99775-0.43246-0.03994
   0   4   6   12.55    0.77   1 0.04445 0.37760 0.99778 0.81301 0.04937 0.44319
   0  -4  -7   15.46    1.12   1-0.61758-0.95708-0.38489-0.16055 0.68589 0.24126
   0  -4  -7   14.17    1.66   1 0.20542-0.13346-0.95171-0.72746-0.22814-0.67303
   0   4   7   15.85    1.32   1-0.42633-0.08432-0.77073-0.99599-0.47349-0.02976
   0  -4  -8    0.86    0.50   1-0.63084-0.97641-0.33340-0.06846 0.70062 0.20474
   0  -4  -8    0.91    0.66   1 0.18098-0.16390-0.96272-0.69792-0.20100-0.69716
   0   4   8    0.82    0.49   1-0.45889-0.11052-0.72777-0.99376-0.50965-0.01471
   0  -4  -9    8.24    0.82   1-0.63564-0.98728-0.31238-0.00685 0.70595 0.15882
   0  -4  -9    8.83    1.37   1 0.15277-0.19811-0.97358-0.66823-0.16967-0.71709
   0   4   9    8.99    0.91   1-0.48788-0.13315-0.68436-0.99108-0.54185 0.00430
   0  -4 -10    1.58    0.50   1-0.63585-0.99356-0.31141 0.03472 0.70619 0.10780
   0  -4 -10    1.88    0.82   1 0.12154-0.23534-0.98336-0.63745-0.13498-0.73366
   0   4  10    1.68    0.79   1-0.51389-0.15279-0.64044-0.98789-0.57073 0.02663
   0   4  10    1.45    0.59   1 0.04218 0.39933 0.99801 0.65087 0.04685 0.64567
   0  -4 -11    1.74    0.63   1-0.63287-0.99665-0.32468 0.06204 0.70288 0.05324
   0  -4 -11    1.32    0.68   1 0.08692-0.27645-0.99152-0.60512-0.09654-0.74659
   0   4  11    3.07    0.62   1-0.53734-0.16988-0.59592-0.98410-0.59677 0.05181
   0   4  11    2.24    0.67   1 0.03214 0.39529 0.99884 0.61111 0.03569 0.68576
   0   4  12    0.17    0.57   1-0.55854-0.18471-0.55065-0.97957-0.62032 0.07947
   0   4  12    0.24    0.66   1 0.01946 0.38861 0.99957 0.57125 0.02161 0.72294
   0   5 -13    2.78    0.91   1-0.63404-0.34540 0.31956 0.92676 0.70417 0.14765
   0   5 -13    2.92    1.03   1 0.20942 0.50255-0.94975-0.34796-0.23259-0.79142
   0   5 -13    4.13    0.76   1-0.36990-0.08078-0.83330-0.22895-0.41082-0.97007
   0   5 -12    2.71    1.10   1-0.62454-0.32955 0.35890 0.92519 0.69363 0.18814
   0   5 -12    3.13    0.67   1-0.41398-0.11849-0.78564-0.22202-0.45977-0.96781
   0  -5  11    0.07    0.74   1-0.24701-0.54887 0.92936 0.40608 0.27433 0.73063
   0   5 -11    0.03    0.73   1-0.61422-0.31288 0.39669 0.92208 0.68217 0.22771
   0   5 -11   -0.05    0.50   1-0.45850-0.15665-0.72833-0.20544-0.50922-0.96604
   0  -5  10    1.03    0.72   1-0.26143-0.56960 0.92051 0.43799 0.29034 0.69548
   0   5 -10    1.22    0.48   1-0.50343-0.19521-0.65874-0.17659-0.55911-0.96473
   0  -5   9    2.50    2.34   1-0.27345-0.58795 0.91267 0.47092 0.30370 0.65768
   0   5  -9    8.59    1.15   1-0.59146-0.27741 0.46763 0.91122 0.65688 0.30449
   0   5  -9    9.47    0.77   1-0.54828-0.23371-0.57322-0.13180-0.60893-0.96333
   0  -5   8   12.52    1.22   1-0.28267-0.60348 0.90638 0.50539 0.31394 0.61675
   0   5  -8   13.93    1.27   1-0.57921-0.25881 0.50069 0.90337 0.64328 0.34193
   0   5  -8   14.60    0.89   1-0.59182-0.27048-0.46661-0.06655-0.65728-0.96042
   0  -5   7    4.13    0.93   1-0.28846-0.61559 0.90230 0.54207 0.32037 0.57201
   0   5  -7    4.43    0.75   1-0.56521-0.23808 0.53524 0.89547 0.62773 0.37608
   0   5  -7    4.65    0.52   1-0.63087-0.30321-0.33326 0.02609-0.70066-0.95256
   0  -5   7    4.92    0.68   1-0.57975-0.90896 0.49929 0.14173-0.64388-0.39204
   0  -5   6   46.78    2.48   1-0.28989-0.62333 0.90127 0.58181 0.32196 0.52244
   0   5  -6   54.12    2.61   1-0.55225-0.21880 0.56465 0.88412 0.61333 0.41286
   0   5  -6   50.55    2.06   1-0.65967-0.32567-0.16749 0.15117-0.73264-0.93331
   0  -5   6   53.08    2.12   1-0.53981-0.87509 0.59090 0.27385-0.59952-0.39902
   0  -5   5   38.28    2.05   1-0.28551-0.62527 0.90439 0.62569 0.31709 0.46641
   0   5  -5   41.74    1.73   1-0.53931-0.19955 0.59192 0.87062 0.59897 0.44966
   0   5  -5   41.39    1.33   1-0.66878-0.32845 0.03203 0.30999-0.74276-0.89219
   0  -5   5   43.22    1.77   1-0.48120-0.82254 0.69486 0.41833-0.53442-0.38525
   0  -5   4   38.64    1.79   1-0.27298-0.61905 0.91299 0.67505 0.30317 0.40132
   0   5  -4   41.35    1.77   1-0.52677-0.18070 0.61662 0.85456 0.58504 0.48690
   0   5  -4   40.13    1.43   1-0.64617-0.29876 0.25970 0.49571-0.71764-0.81547
   0  -5   4   44.03    1.57   1-0.40142-0.74883 0.80005 0.56404-0.44582-0.34799
   0  -5   3   74.97    2.80   1-0.24831-0.60070 0.92859 0.73141 0.27578 0.32276
   0   5  -3   77.52    3.04   1-0.51521-0.16282 0.63806 0.83523 0.57220 0.52522
   0   5  -3   79.07    2.45   1-0.58619-0.23271 0.48221 0.67771-0.65103-0.69752
   0  -5   3   82.71    2.74   1-0.30267-0.65609 0.89184 0.69661-0.33614-0.29029
   0   5  -2   31.38    1.87   1-0.50562-0.14691 0.65498 0.81138 0.56155 0.56574
   0   5  -2   32.51    1.57   1 0.20291 0.56202-0.95291-0.79723-0.22535-0.22030
   0   5  -2   29.59    1.40   1-0.49548-0.13594 0.67206 0.82704-0.55029-0.54545
   0  -5   2   31.59    1.39   1-0.19525-0.55467 0.95647 0.80183-0.21685-0.22225
   0   5  -1   86.55    3.12   1-0.49983-0.13481 0.66483 0.78047 0.55512 0.61047
   0   5  -1   98.12    3.48   1 0.12619 0.49131-0.98205-0.86693-0.14015-0.08384
   0   5  -1   89.98    3.21   1-0.39190-0.02630 0.81052 0.92499-0.43525-0.37908
   0  -5   1   97.89    3.02   1-0.08909-0.45451 0.99109 0.87704-0.09894-0.15559
   0   5   0   37.72    1.86   1-0.50175-0.13041 0.66159 0.73647 0.55725 0.66377
   0   5   0   41.53    1.83   1-0.01174 0.35961-0.99984-0.92531 0.01304 0.12026
   0   5   0   41.44    1.90   1-0.29227 0.07915 0.89956 0.97302-0.32459-0.21669
   0  -5   0   45.95    2.03   1 0.00822-0.36319 0.99992 0.92646 0.00913-0.09876
   0   5   1   12.21    1.11   1-0.52181-0.14415 0.62598 0.66009 0.57953 0.73721
   0   5   1   12.67    0.84   1-0.26385 0.11354-0.91897-0.88499 0.29303 0.45155
   0   5   1   13.14    0.87   1-0.20870 0.16871 0.95011 0.98298-0.23179-0.07264
   0   5   2   12.25    1.89   1-0.61271-0.22879 0.40189 0.39554 0.68048 0.88949
   0   5   2   12.92    1.04   1-0.64626-0.26283-0.25917-0.26557 0.71775 0.92757
   0   5   2   12.65    0.79   1-0.14281 0.24061 0.97695 0.96923-0.15860 0.05179
   0   5   3   13.46    0.86   1-0.09320 0.29621 0.99024 0.94194-0.10351 0.15813
   0   5   4    0.16    0.52   1-0.28399 0.11329-0.90546-0.99355-0.31541-0.00401
   0   5   4    0.39    0.53   1-0.05721 0.33820 0.99633 0.90743-0.06354 0.24935
   0   5   5    1.28    0.59   1-0.33160 0.07204-0.86856-0.99738-0.36829-0.00568
   0   5   5    0.86    0.42   1-0.03216 0.36926 0.99884 0.86935-0.03571 0.32843
   0   5   6    0.20    0.43   1-0.37344 0.03657-0.82977-0.99932-0.41474-0.00092
   0   5   6    0.18    0.43   1-0.01577 0.39165 0.99972 0.82963-0.01752 0.39787
   0  -5  -7    1.83    0.67   1-0.33471-0.74830-0.86589-0.65657 0.37173-0.09461
   0  -5  -7   -0.12    0.60   1-0.08008-0.49368-0.99281-0.78348 0.08894-0.37740
   0   5   7    0.90    0.48   1-0.41054 0.00583-0.78965-0.99994-0.45595 0.00907
   0   5   7    1.37    0.69   1-0.00630 0.40712 0.99995 0.78928-0.00699 0.45965
   0  -5  -8    3.71    0.50   1-0.45755-0.87739-0.72966-0.47968 0.50816-0.00918
   0  -5  -8    1.80    0.84   1-0.02243-0.44202-0.99943-0.74957 0.02491-0.49269
   0   5   8    3.62    0.58   1-0.44373-0.02099-0.74848-0.99950-0.49281 0.02343
   0   5   8    2.89    0.77   1-0.00239 0.41704 0.99999 0.74873-0.00265 0.51524
   0  -5  -9    3.56    0.63   1-0.50463-0.93053-0.65669-0.36611 0.56045-0.00815
   0  -5  -9    1.78    0.97   1-0.02086-0.44647-0.99951-0.70910 0.02317-0.54573
   0   5   9    3.38    0.80   1-0.47362-0.04451-0.70639-0.99814-0.52600 0.04145
   0   5   9    3.04    0.83   1-0.00302 0.42240 0.99998 0.70813-0.00336 0.56579
   0   5  10    2.69    0.63   1-0.50067-0.06520-0.66342-0.99590-0.55605 0.06262
   0   5  10    2.83    0.89   1-0.00745 0.42397 0.99993 0.66749-0.00827 0.61212
   0   5  11    4.56    0.74   1-0.52524-0.08341-0.61953-0.99274-0.58334 0.08655
   0   5  11    3.53    0.72   1-0.01510 0.42233 0.99974 0.62670-0.01677 0.65488
   0   6 -13    3.30    2.23   1-0.63257-0.26969 0.32598 0.94828 0.70254 0.16741
   0   6 -13    5.33    0.96   1 0.19495 0.56230-0.95661-0.33991-0.21651-0.75383
   0   6 -13    5.89    0.90   1-0.40038-0.03689-0.80122-0.18190-0.44467-0.98262
   0   6 -12   16.62    2.08   1-0.62347-0.25424 0.36304 0.94443 0.69244 0.20833
   0   6 -12   16.68    1.86   1 0.21123 0.58458-0.94886-0.37271-0.23459-0.72065
   0   6 -12   18.68    1.97   1-0.44700-0.07714-0.74413-0.16554-0.49644-0.98317
   0   6 -11   20.08    2.42   1-0.61373-0.23814 0.39839 0.93888 0.68162 0.24855
   0   6 -11   22.72    1.92   1-0.49342-0.11721-0.67543-0.13758-0.54800-0.98352
   0   6 -10   25.46    2.92   1-0.60346-0.22153 0.43201 0.93159 0.67021 0.28818
   0   6 -10   29.84    2.13   1-0.53913-0.15655-0.59229-0.09517-0.59876-0.98307
   0  -6   9   11.56    1.20   1-0.24892-0.63769 0.92822 0.47149 0.27646 0.60913
   0   6  -9   13.50    1.14   1-0.59280-0.20451 0.46381 0.92249 0.65837 0.32737
   0   6  -9   14.54    1.06   1-0.58295-0.19354-0.49092-0.03526-0.64743-0.98045
   0  -6   8   32.08    1.87   1-0.25492-0.65000 0.92458 0.50861 0.28312 0.56462
   0   6  -8   37.21    2.14   1-0.58190-0.18726 0.49367 0.91145 0.64627 0.36630
   0   6  -8   37.72    1.68   1-0.62224-0.22651-0.36773 0.04721-0.69107-0.97286
   0  -6   7   28.43    1.71   1-0.25705-0.65844 0.92326 0.54806 0.28548 0.51582
   0   6  -7   32.68    2.00   1-0.57097-0.16998 0.52141 0.89828 0.63413 0.40520
   0   6  -7   32.22    1.44   1-0.65282-0.25075-0.21943 0.15482-0.72503-0.95559
   0  -6   7   33.40    1.74   1-0.49518-0.89873 0.67255 0.30019-0.54996-0.31962
   0  -6   6    3.58    0.68   1-0.25426-0.66197 0.92498 0.59054 0.28239 0.46156
   0   6  -6    3.12    0.69   1-0.55882-0.15111 0.55002 0.88446 0.62063 0.44146
   0   6  -6    3.96    0.41   1-0.66843-0.26003-0.04568 0.28786-0.74236-0.92169
   0  -6   6    4.14    0.57   1-0.44352-0.85313 0.74876 0.41692-0.49258-0.31358
   0  -6   5   23.35    1.39   1-0.24498-0.65901 0.93056 0.63688 0.27208 0.40009
   0   6  -5   25.76    1.46   1-0.54863-0.13460 0.57247 0.86615 0.60932 0.48131
   0   6  -5   26.80    1.18   1-0.66179-0.24706 0.14763 0.44049-0.73500-0.86308
   0  -6   5   26.16    1.38   1-0.37778-0.79346 0.82537 0.53405-0.41957-0.29190
   0   6  -4    7.55    0.81   1-0.53957-0.11922 0.59140 0.84431 0.59925 0.52241
   0   6  -4    7.73    0.75   1-0.62670-0.20496 0.35041 0.60121-0.69602-0.77235
   0  -6   4    8.27    0.68   1-0.29891-0.72061 0.89467 0.64415-0.33198-0.25645
   0   6  -3    6.40    0.76   1-0.53242-0.10577 0.60568 0.81783 0.59132 0.56564
   0   6  -3    7.11    0.70   1 0.19389 0.62123-0.95709-0.74595-0.21534-0.24003
   0   6  -3    6.66    0.59   1-0.56562-0.13781 0.53426 0.74455-0.62819-0.65318
   0  -6   3    6.49    0.61   1-0.21270-0.64041 0.94812 0.73820-0.23623-0.21196
   0   6  -2   38.60    1.62   1-0.52849-0.09551 0.61334 0.78472 0.58695 0.61243
   0   6  -2   45.80    1.69   1 0.14322 0.57656-0.97682-0.80623-0.15906-0.13249
   0   6  -2   40.54    1.49   1-0.48666-0.05279 0.68630 0.85606-0.54050-0.51415
   0  -6   2   44.24    1.83   1-0.12430-0.55800 0.98259 0.81325-0.13805-0.16503
   0   6  -1   73.96    2.41   1-0.52998-0.09069 0.61046 0.74108 0.58860 0.66526
   0   6  -1   81.30    2.72   1 0.06044 0.50006-0.99591-0.86592-0.06713 0.01022
   0   6  -1   80.68    2.16   1-0.40189 0.03804 0.79953 0.92878-0.44635-0.36866
   0  -6   1   85.29    2.22   1-0.03894-0.47865 0.99830 0.86956-0.04325-0.12148
   0   6   0    2.40    0.55   1-0.54119-0.09558 0.58807 0.67793 0.60105 0.72888
   0   6   0    2.74    0.41   1-0.07498 0.37065-0.99370-0.90426 0.08328 0.21194
   0   6   0    2.75    0.48   1-0.32056 0.12514 0.87777 0.96592-0.35602-0.22654
   0  -6   0    3.00    0.50   1 0.04003-0.40567 0.99820 0.91005 0.04446-0.08501
   0   6   1    4.24    0.74   1-0.57372-0.12191 0.51462 0.56428 0.63718 0.81653
   0   6   1    5.06    0.54   1-0.30069 0.15097-0.89334-0.84445 0.33395 0.51391
   0   6   1    4.89    0.56   1-0.25072 0.20098 0.92714 0.97470-0.27845-0.09772
   0   6   2   12.54    2.81   1-0.65807-0.19989 0.18099 0.18973 0.73087 0.96126
   0   6   2   17.25    1.10   1-0.19340 0.26429 0.95731 0.96428-0.21480 0.01717
   0   6   3    3.74    0.52   1-0.14828 0.31542 0.97513 0.94151-0.16468 0.11854
   0   6   4    9.40    0.86   1-0.28015 0.19150-0.90812-0.98125-0.31114 0.02155
   0   6   4    8.77    0.81   1-0.11398 0.35572 0.98538 0.91117-0.12659 0.20788
   0   6   5   10.89    0.97   1-0.32502 0.15299-0.87410-0.98795-0.36097 0.02293
   0   6   5    8.85    0.68   1-0.08887 0.38683 0.99114 0.87633-0.09870 0.28702
   0   6   6   68.68    1.86   1-0.36527 0.11911-0.83785-0.99244-0.40567 0.02945
   0   6   6   54.90    2.35   1-0.07142 0.41028 0.99428 0.83889-0.07932 0.35765
   0   6   7    1.98    0.53   1-0.40158 0.08916-0.79987-0.99519-0.44600 0.04033
   0   6   7    1.37    0.73   1-0.06033 0.42738 0.99592 0.79994-0.06700 0.42122
   0   6   8    7.16    0.99   1-0.43451 0.06259-0.76047-0.99652-0.48257 0.05498
   0   6   8    5.57    0.95   1-0.05453 0.43918 0.99667 0.76010-0.06056 0.47891
   0   6   9    3.86    0.78   1-0.46450 0.03896-0.71979-0.99657-0.51588 0.07289
   0   6   9    2.41    0.88   1-0.05318 0.44653 0.99683 0.71967-0.05906 0.53166
   0   6  10    0.05    0.57   1-0.49189 0.01793-0.67792-0.99544-0.54630 0.09367
   0   6  10   -0.13    0.88   1-0.05561 0.45010 0.99654 0.67878-0.06176 0.58021
   0   7 -12    7.63    1.31   1-0.62437-0.18090 0.35957 0.95605 0.69344 0.23072
   0   7 -12    7.07    1.03   1 0.19075 0.63833-0.95850-0.36744-0.21185-0.67640
   0   7 -12    8.13    1.20   1-0.47540-0.03118-0.70371-0.11015-0.52799-0.99342
   0   7 -11    3.67    0.92   1-0.61546-0.16563 0.39239 0.94797 0.68354 0.27185
   0   7 -11    3.10    0.79   1 0.20258 0.65615-0.95306-0.40256-0.22499-0.63827
   0   7 -11    4.36    0.67   1-0.52279-0.07220-0.62415-0.07133-0.58062-0.99483
   0   7 -10    2.11    1.54   1-0.60623-0.15005 0.42326 0.93794 0.67329 0.31264
   0   7 -10    2.43    0.73   1 0.21187 0.67144-0.94854-0.43860-0.23530-0.59732
   0   7 -10    2.92    0.52   1-0.56787-0.11092-0.52891-0.01683-0.63068-0.99368
   0   7  -9    0.72    0.75   1-0.59685-0.13432 0.45205 0.92583 0.66287 0.35326
   0   7  -9    1.02    0.55   1-0.60883-0.14503-0.41485 0.05569-0.67617-0.98785
   0   7  -8    4.31    0.81   1-0.58752-0.11864 0.47857 0.91144 0.65251 0.39393
   0   7  -8    4.27    0.46   1-0.64223-0.17210-0.28066 0.14917-0.71327-0.97371
   0   7  -7    5.23    0.63   1-0.66378-0.18732-0.12610 0.26304-0.73721-0.94642
   0  -7   7    5.30    0.78   1-0.40154-0.87942 0.79992 0.41278-0.44595-0.23712
   0   7  -6    6.01    0.81   1-0.56867-0.08669 0.52698 0.87640 0.63157 0.47371
   0   7  -6    6.13    0.74   1 0.21276 0.69633-0.94809-0.60037-0.23630-0.39327
   0   7  -6    6.82    0.53   1-0.66845-0.18565 0.04509 0.39354-0.74238-0.90036
   0  -7   6    6.43    0.70   1-0.34566-0.82965 0.85623 0.50984-0.38390-0.22745
   0   7  -5    7.76    0.84   1-0.56127-0.07297 0.54442 0.85307 0.62335 0.51665
   0   7  -5    8.75    0.79   1 0.19884 0.68840-0.95482-0.64766-0.22083-0.32654
   0   7  -5    8.53    0.67   1-0.65210-0.16297 0.22415 0.53189-0.72423-0.83097
   0  -7   5    7.88    0.80   1-0.28157-0.77156 0.90714 0.60135-0.31272-0.20753
   0   7  -4   27.26    1.55   1-0.55556-0.06095 0.55735 0.82524 0.61701 0.56147
   0   7  -4   30.97    1.72   1 0.17531 0.67088-0.96506-0.69845-0.19470-0.24915
   0   7  -4   29.25    1.41   1-0.61264-0.11657 0.40211 0.66770-0.68041-0.73524
   0  -7   4   30.14    1.60   1-0.21107-0.70705 0.94894 0.68373-0.23441-0.18047
   0   7  -3   21.91    1.46   1-0.55244-0.05151 0.56423 0.79135 0.61355 0.60918
   0   7  -3   27.07    1.35   1 0.13826 0.63982-0.97841-0.75236-0.15355-0.15674
   0   7  -3   24.21    1.15   1-0.55559-0.05345 0.55727 0.78234-0.61705-0.62054
   0  -7   3   24.81    1.45   1-0.13747-0.63946 0.97866 0.75405-0.15268-0.14998
   0   7  -2   22.56    1.48   1-0.55330-0.04606 0.56234 0.74870 0.61451 0.66130
   0   7  -2   26.62    1.37   1 0.08084 0.58871-0.99267-0.80723-0.08979-0.04228
   0   7  -2   26.35    1.33   1-0.48758 0.02062 0.68484 0.86940-0.54151-0.49367
   0  -7   2   27.82    1.62   1-0.06413-0.57212 0.99539 0.81136-0.07123-0.11979
   0   7  -1   33.12    1.59   1-0.56039-0.04683 0.54643 0.69203 0.62238 0.72034
   0   7  -1   36.39    1.96   1-0.00627 0.50761-0.99995-0.85506 0.00696 0.10577
   0   7  -1   39.73    1.63   1-0.41673 0.09753 0.78237 0.92641-0.46283-0.36364
   0  -7   1   40.06    1.94   1 0.00629-0.50769 0.99995 0.85652 0.00698-0.09282
   0   7   0   19.12    1.48   1-0.57922-0.05953 0.50066 0.60630 0.64329 0.79299
   0   7   0   21.91    1.34   1-0.14120 0.37871-0.97748-0.87313 0.15681 0.30692
   0   7   0   23.84    1.23   1-0.34850 0.17148 0.85365 0.95650-0.38705-0.23599
   0   7   1   33.64    1.97   1-0.61444-0.08839 0.39595 0.46070 0.68240 0.88314
   0   7   1   39.63    1.86   1-0.35189 0.17405-0.85054-0.78675 0.39081 0.59221
   0   7   1   38.02    2.05   1-0.28892 0.23706 0.90197 0.96423-0.32088-0.11857
   0   7   2   16.89    1.14   1-0.23860 0.29338 0.93426 0.95592-0.26499-0.01143
   0   7   3    4.63    0.57   1-0.19768 0.34031 0.95536 0.93643-0.21954 0.08526
   0   7   4    4.16    0.81   1-0.28334 0.26268-0.90592-0.96407-0.31468 0.03932
   0   7   4    3.63    0.76   1-0.16547 0.37851 0.96893 0.90942-0.18378 0.17227
   0   7   5    4.78    0.77   1-0.32519 0.22719-0.87396-0.97285-0.36116 0.04405
   0   7   5    4.39    0.58   1-0.14101 0.40897 0.97754 0.87743-0.15661 0.25069
   0   7   6    0.21    0.49   1-0.36338 0.19536-0.83968-0.97930-0.40358 0.05285
   0   7   6    0.44    0.70   1-0.12326 0.43273 0.98288 0.84218-0.13690 0.32166
   0   7   7    0.37    0.53   1-0.39835 0.16676-0.80348-0.98383-0.44241 0.06523
   0   7   7    0.03    0.75   1-0.11127 0.45072 0.98607 0.80478-0.12358 0.38622
   0   7   8   -0.70    0.78   1-0.43044 0.14102-0.76561-0.98670-0.47806 0.08080
   0   7   8    0.05    0.70   1-0.10423 0.46377 0.98779 0.76591-0.11576 0.44530
   0   7   9   -0.01    0.59   1-0.45998 0.11785-0.72624-0.98806-0.51086 0.09921
   0   7   9   -0.11    0.61   1-0.10144 0.47256 0.98844 0.72597-0.11266 0.49965
   0   8 -12    1.04    1.08   1 0.16668 0.68848-0.96847-0.36250-0.18512-0.62815
   0   8 -12    1.88    0.73   1-0.49882 0.01977-0.66653-0.05801-0.55399-0.99812
   0   8 -11    4.86    1.71   1-0.61910-0.09503 0.37937 0.95004 0.68759 0.29729
   0   8 -11    5.11    1.19   1 0.17613 0.70393-0.96473-0.39931-0.19562-0.58738
   0   8 -11    7.25    1.07   1-0.54638-0.02142-0.57726-0.00948-0.60681-0.99972
   0   8 -10   13.21    1.75   1-0.61108-0.08066 0.40740 0.93717 0.67867 0.33941
   0   8 -10   16.52    1.33   1 0.18280 0.71660-0.96195-0.43709-0.20302-0.54353
   0   8 -10   17.79    1.02   1-0.58999-0.05813-0.47173 0.05440-0.65525-0.99682
   0   8  -9   18.12    2.63   1-0.60312-0.06635 0.43307 0.92193 0.66984 0.38161
   0   8  -9   20.70    1.84   1 0.18625 0.72604-0.96047-0.47617-0.20685-0.49609
   0   8  -9   22.75    1.95   1-0.62700-0.08880-0.34921 0.13622-0.69635-0.98668
   0   8  -8   19.50    1.41   1-0.59547-0.05234 0.45611 0.90407 0.66134 0.42414
   0   8  -8   21.62    1.42   1 0.18586 0.73165-0.96064-0.51690-0.20642-0.44440
   0   8  -8   22.27    1.27   1-0.65427-0.10974-0.20957 0.23516-0.72664-0.96574
   0  -8   8   20.22    1.34   1-0.35466-0.90080 0.84797 0.40552-0.39389-0.15521
   0   8  -7    6.78    0.94   1-0.58840-0.03892 0.47616 0.88322 0.65348 0.46733
   0   8  -7    7.64    1.09   1 0.18078 0.73257-0.96280-0.55961-0.20078-0.38750
   0   8  -7    8.22    0.71   1-0.66810-0.11724-0.05533 0.34870-0.74200-0.92987
   0  -8   7    6.98    0.79   1-0.30749-0.85975 0.88815 0.48648-0.34150-0.15538
   0   8  -6   32.53    2.07   1-0.58228-0.02645 0.49267 0.85883 0.64669 0.51156
   0   8  -6   36.26    2.05   1 0.16981 0.72760-0.96725-0.60462-0.18860-0.32405
   0   8  -6   36.79    1.76   1-0.66523-0.10804 0.10774 0.47108-0.73881-0.87544
   0  -8   6   35.72    1.81   1-0.25429-0.81256 0.92497 0.56389-0.28241-0.14755
   0   8  -5   23.76    1.63   1-0.57760-0.01542 0.50484 0.83010 0.64148 0.55740
   0   8  -5   29.68    1.65   1 0.15123 0.71502-0.97412-0.65204-0.16795-0.25215
   0   8  -5   26.74    1.40   1-0.64332-0.07898 0.27502 0.59592-0.71448-0.79914
   0  -8   5   25.62    1.60   1-0.19597-0.76024 0.95614 0.63565-0.21765-0.13403
   0   8  -4    4.82    1.02   1-0.57500-0.00647 0.51143 0.79578 0.63860 0.60554
   0   8  -4    5.72    0.95   1 0.12247 0.69226-0.98310-0.70158-0.13602-0.16895
   0   8  -4    5.46    0.79   1-0.60472-0.03431 0.42805 0.70843-0.67161-0.70494
   0  -8   4    4.97    0.84   1-0.13453-0.70480 0.97957 0.69967-0.14941-0.11705
   0   8  -3    6.56    1.06   1-0.57540-0.00052 0.51041 0.75386 0.63905 0.65703
   0   8  -3    8.16    0.79   1 0.07920 0.65531-0.99296-0.75207-0.08796-0.07031
   0   8  -3    8.31    0.79   1-0.55325 0.02322 0.56246 0.80232-0.61444-0.59643
   0  -8   3    7.59    0.82   1-0.07209-0.64836 0.99417 0.75486-0.08006-0.09895
   0   8  -2    4.00    0.82   1-0.58014 0.00108 0.49827 0.70082 0.64432 0.71333
   0   8  -2    4.14    0.57   1 0.01660 0.59873-0.99969-0.79934-0.01844 0.05050
   0   8  -2    4.70    0.60   1-0.49459 0.08794 0.67352 0.87287-0.54930-0.47995
   0  -8   2    3.63    0.78   1-0.01055-0.59282 0.99987 0.80115-0.01172-0.08186
   0   8  -1    6.17    0.69   1-0.59125-0.00367 0.46820 0.62985 0.65665 0.77670
   0   8  -1    7.00    0.73   1-0.07518 0.51297-0.99366-0.83387 0.08350 0.20375
   0   8  -1    6.91    0.95   1-0.43441 0.15419 0.76059 0.91942-0.48246-0.36178
   0   8   0   11.06    1.18   1-0.61189-0.01796 0.40465 0.52539 0.67958 0.85066
   0   8   0   14.20    1.28   1-0.21105 0.38313-0.94895-0.82970 0.23439 0.40594
   0   8   0   13.71    1.43   1-0.37715 0.21752 0.82601 0.94432-0.41887-0.24684
   0   8   1   20.78    2.07   1-0.64652-0.04622 0.25775 0.33759 0.71803 0.94015
   0   8   1   29.76    1.79   1-0.41393 0.18620-0.78569-0.70661 0.45971 0.68266
   0   8   1   25.86    1.63   1-0.32450 0.27577 0.87453 0.95147-0.36039-0.13651
   0   8   2    1.31    0.69   1-0.28000 0.32627 0.90823 0.94459-0.31097-0.03583
   0   8   3    0.42    0.50   1-0.24982 0.36420-0.92768-0.93014-0.27745 0.04664
   0   8   3    0.26    0.46   1-0.24290 0.36938 0.93178 0.92755-0.26976 0.05662
   0   8   4    5.15    0.83   1-0.29181 0.32858-0.89989-0.94308-0.32409 0.05122
   0   8   4    5.11    0.61   1-0.21292 0.40535 0.94801 0.90319-0.23647 0.14116
   0   8   5    1.28    0.76   1-0.33064 0.29611-0.86938-0.95330-0.36721 0.05931
   0   8   5    1.21    0.51   1-0.18950 0.43478 0.95906 0.87364-0.21046 0.21842
   0   8   6    4.33    0.65   1-0.36658 0.26653-0.83657-0.96123-0.40713 0.07061
   0   8   6    3.61    0.80   1-0.17194 0.45834 0.96642 0.84041-0.19096 0.28918
   0   8   7    4.19    0.68   1-0.39989 0.23959-0.80177-0.96715-0.44412 0.08483
   0   8   7    2.45    0.61   1-0.15956 0.47671 0.97114 0.80455-0.17721 0.35417
   0   8   8   10.52    1.26   1-0.43080 0.21504-0.76517-0.97129-0.47845 0.10171
   0   8   8    6.90    0.88   1-0.15176 0.49052 0.97394 0.76675-0.16854 0.41409
   0   9 -11    1.57    0.90   1-0.62432-0.02601 0.35977 0.94553 0.69338 0.32447
   0   9 -11    2.70    0.82   1 0.14622 0.74823-0.97583-0.39550-0.16239-0.53264
   0   9 -11    2.17    0.67   1-0.56433 0.03499-0.53731 0.04543-0.62675-0.99835
   0   9 -10    9.09    1.24   1-0.61759-0.01292 0.38486 0.92972 0.68590 0.36802
   0   9 -10   10.19    1.23   1 0.15025 0.75827-0.97446-0.43468-0.16687-0.48586
   0   9 -10   12.07    1.27   1-0.60591 0.00034-0.42427 0.11675-0.67294-0.99316
   0  -9  10    8.37    1.25   1-0.33469-0.94324 0.86591 0.32777-0.37171-0.05342
   0   9  -9    4.09    1.07   1-0.61111-0.00010 0.40728 0.91124 0.67871 0.41187
   0   9  -9    3.89    0.81   1 0.15078 0.76480-0.97427-0.47506-0.16746-0.43519
   0   9  -9    3.99    0.53   1-0.63901-0.02641-0.29664 0.20368-0.70969-0.97868
   0  -9   9    3.47    0.70   1-0.30155-0.91610 0.89269 0.39514-0.33491-0.06787
   0   9  -8    1.50    1.10   1-0.60516 0.01220 0.42669 0.88974 0.67209 0.45629
   0   9  -8    1.44    0.71   1 0.14714 0.76716-0.97552-0.51686-0.16342-0.37988
   0   9  -8    1.97    0.52   1-0.66095-0.04202-0.15585 0.30377-0.73406-0.95181
   0  -9   8    1.72    0.61   1-0.26266-0.88321 0.91973 0.46277-0.29171-0.07593
   0   9  -7    1.53    0.75   1-0.60001 0.02369 0.44261 0.86476 0.66638 0.50161
   0   9  -7    1.74    0.68   1 0.13843 0.76444-0.97836-0.56026-0.15374-0.31894
   0   9  -7    1.22    0.58   1-0.66911-0.04385-0.00587 0.41305-0.74313-0.90964
   0  -9   7    1.07    0.70   1-0.21860-0.84515 0.94512 0.52876-0.24278-0.07824
   0   9  -6    3.73    0.78   1-0.59607 0.03399 0.45436 0.83561 0.66200 0.54826
   0   9  -6    4.82    0.94   1 0.12337 0.75539-0.98285-0.60530-0.13702-0.25096
   0   9  -6    4.86    0.54   1-0.66184-0.03025 0.14713 0.52536-0.73505-0.85034
   0  -9   6    3.68    0.85   1-0.17033-0.80288 0.96705 0.59128-0.18917-0.07588
   0   9  -5    1.49    0.67   1-0.59381 0.04260 0.46091 0.80125 0.65950 0.59679
   0   9  -5    2.26    0.62   1 0.10021 0.73822-0.98872-0.65173-0.11129-0.17397
   0   9  -5    1.87    0.47   1-0.63835 0.00032 0.29978 0.63547-0.70896-0.77212
   0  -9   5    1.50    0.79   1-0.11911-0.75767 0.98402 0.64884-0.13229-0.07025
   0   9  -4    1.57    0.64   1-0.59389 0.04887 0.46069 0.76014 0.65958 0.64791
   0   9  -4    1.56    0.76   1 0.06585 0.71020-0.99514-0.69880-0.07313-0.08533
   0   9  -4    1.51    0.63   1-0.60206 0.04267 0.43634 0.73151-0.66866-0.68048
   0  -9   4    1.72    0.80   1-0.06633-0.71089 0.99507 0.70048-0.07367-0.06289
   0   9  -3    6.61    0.84   1-0.59715 0.05196 0.45116 0.70970 0.66321 0.70257
   0   9  -3    7.75    0.95   1 0.01767 0.66805-0.99965-0.74385-0.01963 0.01946
   0   9  -3    8.93    0.87   1-0.55632 0.09448 0.55565 0.81030-0.61786-0.57834
   0  -9   3    7.64    0.95   1-0.01331-0.66387 0.99980 0.74580-0.01478-0.05525
   0   9  -2    8.46    1.05   1-0.60479 0.05067 0.42783 0.64547 0.67169 0.76209
   0   9  -2    9.08    1.28   1-0.05045 0.60595-0.99715-0.78190 0.05603 0.14642
   0   9  -2   10.92    1.06   1-0.50553 0.15134 0.65513 0.86927-0.56145-0.47060
   0  -9   2    9.86    1.05   1 0.03884-0.61771 0.99831 0.78490 0.04314-0.04857
   0   9  -1    8.58    1.02   1-0.61839 0.04342 0.38196 0.55869 0.68679 0.82823
   0   9  -1   10.05    1.19   1-0.14706 0.51536-0.97554-0.80084 0.16333 0.30502
   0   9  -1   10.22    0.97   1-0.45380 0.20913 0.73487 0.90848-0.50400-0.36181
   0   9   0   10.14    1.17   1-0.63981 0.02836 0.29274 0.42857 0.71058 0.90306
   0   9   0   14.83    1.48   1-0.28567 0.38279-0.90428-0.77013 0.31726 0.51025
   0   9   0   13.70    1.17   1-0.40434 0.26466 0.79676 0.92986-0.44907-0.25554
   0   9   1    7.50    1.54   1-0.66685 0.00768 0.08234 0.17727 0.74062 0.98413
   0   9   1   14.31    1.35   1-0.49081 0.18358-0.67967-0.58562 0.54510 0.78951
   0   9   1   11.24    1.17   1-0.35926 0.31581 0.84363 0.93621-0.39900-0.15414
   0   9   2   10.58    0.91   1-0.31858 0.36198 0.87938 0.93043-0.35381-0.05709
   0   9   3   10.85    1.11   1-0.26604 0.42235-0.91755-0.90505-0.29547 0.04993
   0   9   3    9.41    1.12   1-0.28493 0.40162 0.90480 0.91526-0.31645 0.03151
   0   9   4    5.46    0.80   1-0.30436 0.39039-0.89055-0.91878-0.33803 0.05858
   0   9   4    3.30    0.59   1-0.25718 0.43538 0.92318 0.89305-0.28563 0.11358
   0   9   5    2.39    0.87   1-0.34027 0.36085-0.86104-0.92999-0.37791 0.06992
   0   9   5    1.62    0.77   1-0.23500 0.46355 0.93629 0.86557-0.26100 0.18946
   0   9   6    0.87    0.76   1-0.37390 0.33357-0.82930-0.93899-0.41526 0.08378
   0   9   6    0.67    0.68   1-0.21796 0.48660 0.94545 0.83414-0.24207 0.25964
   0   9   7    1.75    0.66   1-0.40541 0.30843-0.79555-0.94597-0.45025 0.10000
   0   9   7    1.10    0.60   1-0.20557 0.50499 0.95163 0.79973-0.22831 0.32466
   0  10  -9    4.54    0.96   1-0.62033 0.06492 0.37487 0.89392 0.68895 0.44349
   0  10  -9    4.48    1.54   1 0.11186 0.80010-0.98592-0.47179-0.12424-0.37045
   0  10  -9    6.05    0.89   1-0.64642 0.04056-0.25826 0.25695-0.71793-0.96557
   0 -10   9    4.52    0.86   1-0.21057-0.89941 0.94919 0.43695-0.23386 0.01159
   0  10  -8    8.73    1.18   1-0.61602 0.07558 0.39043 0.86858 0.68416 0.48973
   0  10  -8   10.98    1.34   1 0.10495 0.79919-0.98762-0.51404-0.11656-0.31151
   0  10  -8   12.28    1.21   1-0.66436 0.02896-0.11910 0.35541-0.73785-0.93426
   0 -10   8    9.33    1.51   1-0.17484-0.86968 0.96525 0.49360-0.19418 0.00001
   0  10  -7   12.31    1.53   1-0.61269 0.08526 0.40196 0.83921 0.68046 0.53707
   0  10  -7   12.09    1.54   1 0.09200 0.79255-0.99050-0.55760-0.10218-0.24683
   0  10  -7   17.35    1.83   1-0.66892 0.03073 0.02482 0.45864-0.74291-0.88808
   0 -10   7   11.18    1.63   1-0.13544-0.83628 0.97929 0.54824-0.15043-0.00747
   0  10  -6    8.47    1.07   1-0.61072 0.09358 0.40859 0.80494 0.67827 0.58592
   0  10  -6    9.31    1.07   1 0.07289 0.77946-0.99404-0.60170-0.08095-0.17430
   0  10  -6   11.16    0.88   1-0.65963 0.04635 0.16784 0.56096-0.73260-0.82653
   0 -10   6    8.65    1.07   1-0.09324-0.80007 0.99024 0.59977-0.10355-0.01184
   0  10  -5    1.63    0.84   1-0.61058 0.10007 0.40906 0.76450 0.67812 0.63680
   0  10  -5    1.89    0.63   1 0.04520 0.75781-0.99771-0.64591-0.05020-0.09226
   0  10  -5    2.73    0.55   1-0.63658 0.07642 0.30806 0.65853-0.70700-0.74865
   0 -10   5    1.68    0.92   1-0.04916-0.76200 0.99729 0.64742-0.05459-0.01414
   0  10  -4   19.03    1.80   1-0.61286 0.10414 0.40138 0.71591 0.68065 0.69037
   0  10  -4   22.51    2.53   1 0.00640 0.72504-0.99995-0.68870-0.00711 0.00212
   0  10  -4   26.11    2.32   1-0.60352 0.11555 0.43183 0.74179-0.67028-0.66059
   0 -10   4   20.32    2.58   1-0.00414-0.72298 0.99998 0.69069-0.00459-0.01539
   0  10  -3   10.54    1.22   1-0.61829 0.10507 0.38234 0.65597 0.68668 0.74743
   0  10  -3   10.82    1.57   1-0.04716 0.67749-0.99751-0.72680 0.05238 0.11292
   0  10  -3   15.05    1.41   1-0.56319 0.16195 0.53996 0.80940-0.62549-0.56447
   0 -10   3   11.76    1.39   1 0.04098-0.68385 0.99812 0.72942 0.04551-0.01652
   0  10  -2    3.11    0.89   1-0.62775 0.10196 0.34619 0.57893 0.69718 0.80897
   0  10  -2    4.02    1.01   1-0.12089 0.60978-0.98354-0.75338 0.13427 0.24610
   0  10  -2    4.49    0.90   1-0.51906 0.21215 0.63106 0.85999-0.57647-0.46412
   0  10  -1    1.06    0.58   1-0.64210 0.09396 0.28132 0.47315 0.71313 0.87595
   0  10  -1    1.56    0.75   1-0.22300 0.51370-0.94282-0.75322 0.24767 0.41080
   0  10  -1    1.61    0.92   1-0.47422 0.26305 0.70548 0.89389-0.52668-0.36298
   0  10   0    1.13    0.59   1-0.66077 0.08165 0.15754 0.30847 0.73386 0.94772
   0  10   0    1.88    0.56   1-0.36730 0.37543-0.83586-0.68680 0.40793 0.62236
   0  10   0    1.81    0.94   1-0.43112 0.31222 0.76476 0.91265-0.47881-0.26378
   0  10   1    4.20    0.96   1-0.39142 0.35798 0.81105 0.91842-0.43472-0.16835
   0  10   2    2.25    0.67   1-0.24831 0.50809-0.92859-0.86038-0.27578 0.03971
   0  10   2    2.19    0.66   1-0.35610 0.39937 0.84662 0.91348-0.39549-0.07778
   0  10   3    6.76    0.99   1-0.28517 0.47758-0.90463-0.87715-0.31672 0.04999
   0  10   3    6.32    0.83   1-0.32446 0.43638 0.87456 0.89971-0.36035 0.00919
   0  10   4    0.11    0.63   1-0.32015 0.44897-0.87810-0.89136-0.35556 0.06236
   0  10   4    0.07    0.55   1-0.29887 0.46797 0.89470 0.87926-0.33193 0.08886
   0  10   5    0.05    0.64   1-0.35328 0.42220-0.84925-0.90324-0.39236 0.07677
   0  10   5    0.37    0.81   1-0.27805 0.49479 0.90957 0.85354-0.30881 0.16323
   0  11  -7    2.40    1.13   1-0.62579 0.14640 0.35402 0.80636 0.69501 0.57301
   0  11  -7    4.29    0.76   1 0.04262 0.81745-0.99796-0.55016-0.04734-0.17055
   0  11  -7    3.76    0.64   1-0.66861 0.10544 0.03938 0.48810-0.74256-0.86639
   0 -11   7    2.86    1.10   1-0.05773-0.83285 0.99627 0.55052-0.06411 0.05725
   0  11  -6    0.04    1.04   1-0.62553 0.15301 0.35505 0.76649 0.69472 0.62375
   0  11  -6    0.92    0.68   1 0.01940 0.80025-0.99957-0.59232-0.02155-0.09346
   0  11  -6    0.55    0.75   1-0.65899 0.12140 0.17343 0.58145-0.73188-0.80447
   0 -11   6    0.42    0.71   1-0.02180-0.80292 0.99946 0.59430-0.02421 0.04591
   0  11  -5    0.95    1.03   1-0.62711 0.15778 0.34875 0.71929 0.69648 0.67655
   0  11  -5    0.92    0.79   1-0.01284 0.77403-0.99981-0.63311 0.01426-0.00634
   0  11  -5    0.73    0.56   1-0.63757 0.14977 0.30348 0.66874-0.70809-0.72824
   0 -11   5    0.46    0.70   1 0.01559-0.77153 0.99972 0.63516 0.01731 0.03619
   0  11  -4    1.78    0.98   1-0.63102 0.16023 0.33264 0.66227 0.70082 0.73192
   0  11  -4    1.56    0.89   1-0.05669 0.73620-0.99640-0.67024 0.06297 0.09365
   0  11  -4    1.96    0.86   1-0.60806 0.18535 0.41736 0.74211-0.67532-0.64413
   0  11  -3    0.34    0.68   1-0.63776 0.15984 0.30258 0.59130 0.70830 0.79044
   0  11  -3    0.24    0.88   1-0.11583 0.68309-0.98490-0.69929 0.12864 0.21062
   0  11  -3    0.37    0.64   1-0.57271 0.22676 0.51712 0.80135-0.63606-0.55354
   0  11  -2    0.37    0.88   1-0.64771 0.15624 0.25094 0.49876 0.71936 0.85253
   0  11  -2    0.65    0.64   1-0.19566 0.60929-0.95629-0.71122 0.21730 0.35058
   0  11  -2   -0.02    0.68   1-0.53429 0.27125 0.60201 0.84572-0.59339-0.45953
   0  11  -1    4.53    0.83   1-0.49523 0.31638 0.67248 0.87567-0.55001-0.36481
   0  11   0    2.68    0.78   1-0.45745 0.36022 0.72979 0.89247-0.50805-0.27152
   0  11   1    2.22    1.00   1-0.42234 0.40140 0.77563 0.89779-0.46905-0.18118
   0  11   2    4.59    0.96   1-0.27336 0.55741-0.91274-0.82957-0.30359 0.03320
   0  11   2    3.68    0.95   1-0.39073 0.43908 0.81179 0.89343-0.43395-0.09474
  -1  12  -1    0.05    0.76   1-0.53294 0.29892 0.60466 0.89673-0.59189-0.32636
  -1  12  -2    0.70    0.73   1-0.56305 0.26274 0.54029 0.87288-0.62533-0.41113
  -1  12  -3    6.96    0.83   1-0.59219 0.22754 0.46556 0.83866-0.65769-0.49482
  -1  12  -4    1.72    1.00   1-0.66673 0.14422 0.08454 0.50252 0.74048 0.85245
  -1  12  -4    2.49    0.85   1-0.01127 0.80171-0.99985-0.58481 0.01252 0.12351
  -1  12  -4    2.95    0.70   1-0.61881 0.19486 0.38045 0.79407-0.68725-0.57573
   1 -12   4    2.40    0.98   1 0.01026-0.80308 0.99988 0.58714 0.01139-0.10159
  -1  11   3    2.20    0.70   1-0.39518 0.38661 0.80696 0.92218-0.43889 0.01048
  -1  11   2    5.93    1.04   1-0.42140 0.35432 0.77677 0.93250-0.46802-0.06997
  -1  11   1    4.37    0.80   1-0.45082 0.31884 0.73896 0.93521-0.50068-0.15397
  -1  11   0    3.94    0.80   1-0.48285 0.28074 0.69229 0.92905-0.53626-0.24089
  -1  11  -1   14.29    1.83   1-0.51661 0.24092 0.63553 0.91281-0.57375-0.32972
  -1  11  -2    1.29    0.60   1-0.66895 0.08046 0.02267 0.34375 0.74295 0.93560
  -1  11  -2    1.24    0.82   1-0.06238 0.68838-0.99564-0.67659 0.06928 0.26143
  -1  11  -2    2.38    0.94   1-0.55084 0.20062 0.56770 0.88550-0.61177-0.41908
   1 -11   2    1.94    0.74   1 0.03584-0.71522 0.99856 0.68169 0.03980-0.15410
  -1  11  -3    1.76    0.75   1-0.66540 0.07766 0.10543 0.46741 0.73900 0.88061
  -1  11  -3    1.48    0.76   1 0.01297 0.75771-0.99981-0.64021-0.01441 0.12643
  -1  11  -3    2.37    0.88   1-0.58394 0.16145 0.48826 0.84658-0.64853-0.50717
   1 -11   3    1.69    1.01   1-0.00643-0.75150 0.99995 0.64249-0.00715-0.14981
  -1  11  -4    6.08    0.97   1-0.66072 0.07599 0.15801 0.56089 0.73380 0.82438
  -1  11  -4    6.31    1.36   1 0.06468 0.80340-0.99531-0.59517-0.07184 0.01770
  -1  11  -4    9.06    1.17   1-0.61403 0.12529 0.39735 0.79618-0.68195-0.59193
   1 -11   4    6.96    1.08   1-0.04819-0.78725 0.99740 0.59935-0.05352-0.14493
  -1  11  -5    4.96    0.76   1 0.10116 0.83343-0.98850-0.54777-0.11235-0.07301
  -1  11  -5    2.94    0.59   1-0.63915 0.09411 0.29595 0.73530-0.70985-0.67116
   1 -11   5    2.03    0.72   1-0.08880-0.82186 0.99115 0.55251-0.09862-0.13879
  -1  11  -6    2.62    0.76   1-0.65406 0.06994 0.21100 0.69569 0.72641 0.71492
  -1  11  -6    3.52    0.99   1 0.12585 0.85212-0.98215-0.50086-0.13977-0.15170
  -1  11  -6    3.66    0.78   1-0.65784 0.06849 0.18292 0.66465-0.73060-0.74400
   1 -11   6    3.18    0.91   1-0.12763-0.85470 0.98163 0.50240-0.14175-0.13067
  -1  11  -7    0.14    0.73   1-0.65261 0.06505 0.22083 0.74643 0.72479 0.66227
  -1  11  -7    0.51    0.52   1-0.66762 0.05237 0.06701 0.58944-0.74147-0.80610
   1 -11   7    0.30    0.84   1-0.16406-0.88512 0.96947 0.44965-0.18221-0.11987
  -1  11  -8    1.21    0.52   1-0.66824 0.04542-0.05153 0.51159-0.74215-0.85802
   1 -11   8    0.68    0.70   1-0.19749-0.91255 0.95544 0.39503-0.21934-0.10575
  -1  10   5    2.18    0.87   1-0.29228 0.42911-0.89955-0.87995-0.32461 0.20380
  -1  10   5    1.58    0.62   1-0.31743 0.40135 0.88031 0.89835-0.35254 0.17854
  -1  10   4    2.89    0.73   1-0.25339 0.46163-0.92552-0.86519-0.28142 0.19577
  -1  10   4    2.67    0.88   1-0.33833 0.37445 0.86275 0.92138-0.37575 0.10408
  -1  10   3    0.16    0.60   1-0.36447 0.34299 0.83863 0.93905-0.40479 0.02308
  -1  10   2   14.62    1.24   1-0.39368 0.30771 0.80860 0.94954-0.43723-0.06069
  -1  10   1   -0.16    0.89   1-0.42673 0.26859 0.77024 0.95170-0.47394-0.14873
  -1  10   0    0.06    0.36   1-0.65371 0.03417-0.21344 0.01074 0.72601 0.99935
  -1  10   0   -0.08    0.61   1-0.23483 0.45372-0.93639-0.71334 0.26080 0.53411
  -1  10   0   -0.01    0.63   1-0.46298 0.22628 0.72197 0.94394-0.51419-0.24032
  -1  10  -1    0.07    0.62   1-0.66912 0.01240-0.00474 0.26034 0.74313 0.96543
  -1  10  -1    0.04    0.58   1-0.06908 0.61344-0.99465-0.73106 0.07672 0.29872
  -1  10  -1   -0.02    0.61   1-0.50135 0.18184 0.66227 0.92476-0.55681-0.33427
   1 -10   1   -0.15    0.62   1 0.03334-0.64944 0.99875 0.73717 0.03702-0.18655
  -1  10  -2    5.67    0.81   1-0.66518 0.00999 0.10844 0.41442 0.73876 0.91002
  -1  10  -2    5.17    0.95   1 0.02918 0.70567-0.99904-0.69490-0.03240 0.13829
  -1  10  -2    6.59    0.79   1-0.54028 0.13684 0.58993 0.89294-0.60005-0.42885
   1 -10   2    6.70    0.84   1-0.01449-0.69127 0.99976 0.69758-0.01609-0.18843
  -1  10  -3    0.43    0.77   1-0.65854 0.01028 0.17717 0.52406 0.73138 0.85161
  -1  10  -3    0.65    0.56   1 0.09304 0.76350-0.99028-0.64559-0.10333 0.01607
  -1  10  -3    0.91    0.74   1-0.57776 0.09329 0.50441 0.84793-0.64167-0.52182
   1 -10   3    0.92    0.89   1-0.06237-0.73315 0.99564 0.65287-0.06927-0.19035
  -1  10  -4    1.50    0.63   1-0.65276 0.00971 0.21983 0.60763 0.72496 0.79416
  -1  10  -4    2.11    0.65   1 0.13637 0.80042-0.97900-0.59374-0.15146-0.08237
  -1  10  -4    1.49    0.52   1-0.61147 0.05352 0.40609 0.79013-0.67910-0.61058
   1 -10   4    0.74    0.88   1-0.10952-0.77430 0.98651 0.60315-0.12163-0.19147
  -1  10  -5    7.21    1.20   1-0.64866 0.00745 0.24543 0.67413 0.72041 0.73857
  -1  10  -5    6.94    1.17   1 0.16503 0.82307-0.96910-0.54329-0.18328-0.16546
  -1  10  -5    8.83    0.95   1-0.63903 0.01990 0.29655 0.72111-0.70971-0.69253
   1 -10   5    7.71    1.01   1-0.15509-0.81386 0.97276 0.54882-0.17224-0.19082
  -1  10  -6    7.76    1.27   1-0.64629 0.00347 0.25902 0.72862 0.71778 0.68490
  -1  10  -6    7.21    1.32   1 0.18365 0.83569-0.96159-0.49522-0.20396-0.23740
  -1  10  -6    8.53    1.00   1-0.65873-0.00680 0.17555 0.64238-0.73160-0.76635
   1 -10   6    7.79    0.98   1-0.19821-0.85099 0.95511 0.49057-0.22014-0.18747
  -1  10  -7    9.05    1.52   1-0.64544-0.00202 0.26370 0.77420 0.71684 0.63293
  -1  10  -7   12.65    1.07   1 0.19483 0.84088-0.95666-0.44973-0.21638-0.30108
  -1  10  -7   13.28    0.89   1-0.66820-0.02260 0.05259 0.56012-0.74211-0.82809
   1 -10   7   11.42    1.10   1-0.23810-0.88488 0.93454 0.42941-0.26444-0.18052
  -1  10  -8    6.65    1.68   1-0.64584-0.00877 0.26149 0.81289 0.71728 0.58234
  -1  10  -8    8.77    1.16   1 0.20028 0.84033-0.95415-0.40666-0.22244-0.35840
  -1  10  -8    9.64    1.07   1-0.66742-0.02815-0.07126 0.47696-0.74125-0.87847
   1 -10   8    8.33    1.13   1-0.27410-0.91488 0.91224 0.36652-0.30443-0.16926
  -1  10  -9   11.46    1.60   1-0.64723-0.01651 0.25374 0.84605 0.71882 0.53284
  -1  10  -9   14.36    1.54   1 0.20118 0.83523-0.95372-0.36568-0.22344-0.41067
  -1  10  -9   15.74    1.42   1-0.65662-0.02369-0.19239 0.39654-0.72926-0.91771
   1 -10   9   12.37    1.31   1-0.30577-0.94054 0.88948 0.30317-0.33959-0.15317
  -1  10 -10    8.83    1.16   1-0.64933-0.02497 0.24141 0.87462 0.72116 0.48414
  -1  10 -10    9.30    1.03   1 0.19835 0.82640-0.95505-0.32645-0.22029-0.45878
  -1  10 -10   12.15    0.76   1-0.63664-0.01003-0.30781 0.32182-0.70706-0.94674
   1 -10  10    8.58    1.14   1-0.33283-0.96160 0.86751 0.24061-0.36965-0.13198
  -1   9   7   -0.39    0.63   1-0.35284 0.30691-0.84967-0.92650-0.39186 0.21767
  -1   9   7    0.23    0.59   1-0.24965 0.40684 0.92778 0.84995-0.27727 0.33473
  -1   9   6    1.83    0.66   1-0.31552 0.33786-0.88183-0.91794-0.35042 0.20790
  -1   9   6    1.10    0.58   1-0.26330 0.38720 0.91932 0.88208-0.29242 0.26833
  -1   9   5    0.18    0.86   1-0.27573 0.37129-0.91114-0.90652-0.30623 0.20088
  -1   9   5    0.28    0.78   1-0.28134 0.36315 0.90730 0.91065-0.31246 0.19703
  -1   9   4    0.69    0.55   1-0.30410 0.33439 0.89075 0.93469-0.33774 0.12051
  -1   9   3    0.60    0.77   1-0.33179 0.30071 0.86840 0.95293-0.36849 0.03851
  -1   9   2   12.32    1.30   1-0.36545 0.26161 0.83768 0.96383-0.40587-0.05083
  -1   9   1    6.69    0.82   1-0.40272 0.21827 0.79860 0.96526-0.44727-0.14356
  -1   9   0   15.64    2.01   1-0.66622-0.05257-0.09315 0.11593 0.73991 0.99186
  -1   9   0   19.75    2.25   1-0.10977 0.50450-0.98645-0.77831 0.12191 0.37376
  -1   9   0   22.89    1.72   1-0.44391 0.17101 0.74823 0.95542-0.49302-0.24065
   1  -9   0   25.23    1.74   1 0.04044-0.57405 0.99817 0.79186 0.04491-0.20833
  -1   9  -1   11.76    1.36   1-0.66690-0.05961 0.08145 0.33144 0.74067 0.94159
  -1   9  -1   10.67    1.33   1 0.03212 0.64036-0.99884-0.75016-0.03567 0.16488
  -1   9  -1   15.52    1.09   1-0.48770 0.12115 0.68465 0.93235-0.54165-0.34062
   1  -9   1   14.94    1.16   1-0.01300-0.62150 0.99981 0.75291-0.01444-0.21644
  -1   9  -2   12.06    1.34   1-0.65837-0.05743 0.17857 0.46946 0.73119 0.88107
  -1   9  -2   13.76    1.32   1 0.11638 0.71820-0.98475-0.69552-0.12925 0.02083
  -1   9  -2   14.23    1.07   1-0.53207 0.07072 0.60637 0.89459-0.59093-0.44124
   1  -9   2   13.27    1.30   1-0.06732-0.66982 0.99492 0.70744-0.07477-0.22552
  -1   9  -3   26.10    1.60   1-0.65013-0.05555 0.23657 0.56837 0.72204 0.82089
  -1   9  -3   29.49    2.14   1 0.16931 0.76512-0.96745-0.63766-0.18803-0.08920
  -1   9  -3   28.25    1.78   1-0.57441 0.02231 0.51288 0.84162-0.63795-0.53960
   1  -9   3   28.48    2.04   1-0.12156-0.71805 0.98335 0.65528-0.13500-0.23451
  -1   9  -4    2.30    0.85   1-0.64406-0.05583 0.27114 0.64384 0.71530 0.76311
  -1   9  -4    2.10    0.62   1 0.20332 0.79314-0.95271-0.58236-0.22581-0.17824
  -1   9  -4    2.20    0.48   1-0.61177-0.02110 0.40507 0.77433-0.67944-0.63242
   1  -9   4    2.00    0.78   1-0.17456-0.76506 0.96537 0.59670-0.19387-0.24212
  -1   9  -5    8.13    0.99   1-0.64032-0.05844 0.29026 0.70386 0.71114 0.70792
  -1   9  -5    8.87    0.88   1-0.64128-0.05668 0.28546 0.69523-0.71222-0.71654
   1  -9   5    8.83    1.08   1-0.22512-0.80961 0.94170 0.53244-0.25002-0.24702
  -1   9  -6   19.99    1.67   1-0.63862-0.06309 0.29847 0.75298 0.70927 0.65500
  -1   9  -6   24.24    1.84   1-0.66102-0.08349 0.15514 0.60708-0.73414-0.79024
   1  -9   6   24.88    2.02   1-0.27207-0.85056 0.91360 0.46375-0.30217-0.24792
   1  -9   7    2.47    0.79   1-0.24565-0.81556 0.93017 0.43652 0.27283 0.37985
  -1   9  -7    3.28    0.79   1-0.63860-0.06942 0.29858 0.79399 0.70924 0.60395
  -1   9  -7    3.43    0.50   1-0.66892-0.09772 0.02458 0.51722-0.74291-0.85024
   1  -9   7    2.93    0.64   1-0.31448-0.88697 0.88266 0.39223-0.34927-0.24377
   1  -9   8    3.92    0.87   1-0.24693-0.81053 0.92941 0.39500 0.27425 0.43244
  -1   9  -8    5.76    0.99   1-0.63988-0.07705 0.29240 0.82871 0.71066 0.55433
  -1   9  -8    6.49    0.78   1-0.66548-0.10061-0.10428 0.42905-0.73909-0.89765
   1  -9   8    6.36    0.90   1-0.35233-0.91873 0.85013 0.31881-0.39130-0.23297
   1  -9   9   -0.18    0.81   1-0.24422-0.80150 0.93101 0.35584 0.27123 0.48059
  -1   9  -9    0.03    0.42   1-0.65157-0.09303-0.22758 0.34645-0.72364-0.93344
   1  -9   9   -0.15    0.92   1-0.38409-0.94442 0.81884 0.24700-0.42657-0.21690
  -1   9 -10    3.20    0.72   1-0.62864-0.07643-0.34257 0.27216-0.69817-0.95920
  -1   9 -11    1.16    1.25   1-0.64844-0.10467 0.24670 0.90572 0.72017 0.41074
  -1   9 -11    0.53    0.52   1-0.59832-0.05245-0.44769 0.20774-0.66451-0.97677
  -1   8   8    8.11    1.15   1-0.38185 0.20989-0.82117-0.95371-0.42409 0.21535
  -1   8   8    5.93    0.84   1-0.20043 0.38779 0.95408 0.82097-0.22260 0.41907
  -1   8   7   38.06    1.50   1-0.34490 0.24047-0.85691-0.94872-0.38305 0.20517
  -1   8   7   29.05    2.90   1-0.21021 0.37200 0.94937 0.85684-0.23346 0.35696
  -1   8   6   13.89    1.35   1-0.30506 0.27395-0.89002-0.94109-0.33881 0.19821
  -1   8   6   10.59    1.20   1-0.22450 0.35172 0.94203 0.89010-0.24933 0.28984
  -1   8   5    5.94    0.70   1-0.26212 0.31053-0.92007-0.93041-0.29112 0.19468
  -1   8   5    5.20    0.65   1-0.24378 0.32643 0.93127 0.91992-0.27074 0.21718
  -1   8   4    8.15    0.87   1-0.26852 0.29569 0.91594 0.94519-0.29822 0.13845
  -1   8   3    4.01    0.61   1-0.29909 0.25911 0.89453 0.96437-0.33218 0.05324
  -1   8   2   12.99    1.23   1-0.33566 0.21655 0.86507 0.97550-0.37279-0.03861
  -1   8   1    0.65    0.32   1-0.62418-0.07831-0.36031-0.20735 0.69322 0.97512
  -1   8   1    0.77    0.35   1-0.25353 0.29250-0.92543-0.77275 0.28157 0.56329
  -1   8   1    0.94    0.74   1-0.37897 0.16769 0.82415 0.97603-0.42089-0.13869
  -1   8   0   27.62    2.35   1-0.66911-0.12971-0.00665 0.18734 0.74312 0.97369
  -1   8   0   25.93    2.94   1 0.00776 0.54776-0.99993-0.80670-0.00862 0.22179
  -1   8   0   32.61    2.49   1-0.42612 0.11447 0.77100 0.96340-0.47325-0.24239
   1  -8   0   33.38    2.41   1-0.00062-0.54084 1.00000 0.80838-0.00069-0.23237
  -1   8  -1    1.21    0.44   1-0.66166-0.12861 0.14898 0.38388 0.73485 0.91437
  -1   8  -1    1.67    0.47   1 0.13013 0.66373-0.98090-0.74713-0.14452 0.03531
  -1   8  -1    1.69    0.69   1-0.47641 0.05811 0.70218 0.93509-0.52911-0.34959
   1  -8   1    1.73    0.73   1-0.06164-0.59586 0.99574 0.76354-0.06846-0.24889
  -1   8  -2    1.56    0.51   1-0.65042-0.12372 0.23481 0.51061 0.72236 0.85086
  -1   8  -2    1.98    0.52   1 0.19951 0.72711-0.95451-0.68018-0.22158-0.09300
  -1   8  -2    1.53    0.48   1-0.52716 0.00129 0.61588 0.88931-0.58547-0.45728
   1  -8   2    1.56    0.71   1-0.12363-0.65184 0.98278 0.70999-0.13730-0.26648
   1  -8   3    0.25    0.50   1-0.24250-0.76340 0.93201 0.61640 0.26932 0.19299
  -1   8  -3    0.23    0.50   1-0.64149-0.12115 0.28443 0.60113 0.71245 0.78990
  -1   8  -3    0.02    0.55   1-0.57485-0.05245 0.51180 0.82575-0.63843-0.56158
   1  -8   3    0.41    0.59   1-0.18507-0.70728 0.96098 0.64760-0.20554-0.28347
   1  -8   4   13.19    1.28   1-0.26786-0.78245 0.91637 0.56000 0.29749 0.27232
  -1   8  -4   14.51    1.25   1-0.63565-0.12166 0.31231 0.66992 0.70597 0.73239
  -1   8  -4   15.35    1.19   1-0.61563-0.09930 0.39177 0.74624-0.68373-0.65822
   1  -8   4   15.88    1.25   1-0.24423-0.76044 0.93100 0.57703-0.27125-0.29792
   1  -8   5    3.12    0.95   1-0.28237-0.79064 0.90659 0.50946 0.31360 0.33960
  -1   8  -5    3.57    0.90   1-0.63260-0.12496 0.32588 0.72439 0.70257 0.67796
  -1   8  -5    4.30    0.71   1-0.64613-0.13587 0.25987 0.65486-0.71761-0.74343
   1  -8   5    4.07    0.69   1-0.29937-0.80958 0.89432 0.49976-0.33249-0.30791
   1  -8   6    2.12    0.97   1-0.28931-0.79127 0.90169 0.46379 0.32131 0.39848
  -1   8  -6    2.67    0.45   1-0.66436-0.16123 0.11909 0.55614-0.73785-0.81529
   1  -8   6    1.94    0.57   1-0.34904-0.85324 0.85316 0.41801-0.38764-0.31182
   1  -8   7    7.20    1.20   1-0.29069-0.78633 0.90070 0.42203 0.32284 0.45117
  -1   8  -7    8.18    1.44   1-0.63270-0.13777 0.32543 0.80574 0.70269 0.57601
  -1   8  -7    8.92    0.81   1-0.66901-0.17220-0.01893 0.45881-0.74301-0.87168
   1  -8   7    8.69    0.97   1-0.39295-0.89108 0.80939 0.33337-0.43642-0.30792
   1  -8   8   11.18    1.59   1-0.28779-0.77711 0.90278 0.38335 0.31962 0.49912
  -1   8  -8   14.51    2.01   1-0.63491-0.14632 0.31568 0.83690 0.70514 0.52742
  -1   8  -8   16.05    1.28   1-0.66139-0.17091-0.15164 0.36680-0.73455-0.91446
   1  -8   8   14.74    1.49   1-0.42937-0.92144 0.76696 0.25042-0.47687-0.29703
   1  -8   9   14.26    1.76   1-0.28147-0.76447 0.90722 0.34702 0.31260 0.54326
  -1   8  -9   16.97    1.66   1-0.63804-0.15580 0.30127 0.86339 0.70861 0.47986
  -1   8  -9   17.18    1.55   1-0.64327-0.15913-0.27530 0.28384-0.71442-0.94557
   1  -8  10    9.78    1.24   1-0.27230-0.74899 0.91345 0.31249 0.30242 0.58425
  -1   8 -10   10.36    1.60   1-0.64178-0.16589 0.28297 0.88600 0.71276 0.43298
  -1   8 -10   12.11    0.78   1-0.61674-0.13894-0.38786 0.21198-0.68496-0.96734
   1  -8  11   18.31    1.98   1-0.26069-0.73107 0.92098 0.27926 0.28953 0.62252
  -1   8 -11   19.24    2.15   1-0.64587-0.17634 0.26134 0.90527 0.71731 0.38649
  -1   8 -11   21.00    1.98   1-0.58380-0.11232-0.48864 0.15190-0.64837-0.98199
   1  -8  12    9.29    1.22   1-0.24693-0.71099 0.92941 0.24692 0.27425 0.65841
  -1   8 -12   11.37    1.46   1-0.65010-0.18692 0.23677 0.92160 0.72201 0.34015
  -1   8 -12   13.72    1.02   1-0.54599-0.08149-0.57808 0.10401-0.60638-0.99123
  -1   7   9    2.34    0.63   1-0.41545 0.10828-0.78389-0.97212-0.46141 0.20794
  -1   7   9    1.36    0.63   1-0.15403 0.36590 0.97314 0.78474-0.17106 0.50028
  -1   7   8   11.23    1.02   1-0.37977 0.13760-0.82332-0.97082-0.42178 0.19635
  -1   7   8    8.89    0.79   1-0.15940 0.35453 0.97121 0.82340-0.17703 0.44306
  -1   7   7    0.99    0.76   1-0.34090 0.17011-0.86049-0.96726-0.37860 0.18832
  -1   7   7    1.11    0.76   1-0.16917 0.33876 0.96751 0.86029-0.18788 0.38096
  -1   7   6    2.17    0.56   1-0.29849 0.20615-0.89498-0.96102-0.33151 0.18420
  -1   7   6    1.71    0.66   1-0.18395 0.31797 0.96146 0.89484-0.20430 0.31329
  -1   7   5    1.02    0.51   1-0.25221 0.24607-0.92624-0.95155-0.28011 0.18438
  -1   7   5    0.59    0.48   1-0.20443 0.29150 0.95218 0.92615-0.22704 0.23930
  -1   7   4    1.66    0.70   1-0.23128 0.25865 0.93836 0.95292-0.25686 0.15823
  -1   7   3   -0.02    0.45   1-0.26512 0.21880 0.91815 0.97329-0.29445 0.06939
  -1   7   2    3.20    0.56   1-0.30634 0.17158 0.88904 0.98478-0.34022-0.02763
  -1   7   1    1.11    0.36   1-0.64448-0.17288-0.26889-0.13090 0.71577 0.97620
  -1   7   1    1.01    0.39   1-0.10090 0.37085-0.98856-0.85078 0.11206 0.37232
  -1   7   1    1.22    0.49   1-0.35575 0.11657 0.84695 0.98404-0.39510-0.13440
   1  -7  -1    1.39    0.50   1 0.02435-0.44757 0.99933 0.86300 0.02705-0.23429
  -1   7   0   31.16    1.52   1-0.66818-0.20302 0.05318 0.23208 0.74209 0.95127
  -1   7   0   32.37    2.09   1 0.12479 0.59016-0.98245-0.80415-0.13859 0.07099
  -1   7   0   30.90    1.57   1-0.41027 0.05598 0.78996 0.96757-0.45565-0.24630
   1  -7   0   35.24    1.49   1-0.04330-0.50923 0.99790 0.82098-0.04809-0.25819
  -1   7  -1   16.54    1.05   1-0.65573-0.19692 0.19912 0.41893 0.72826 0.88640
  -1   7  -1   16.20    1.25   1-0.46858-0.00838 0.71386 0.93198-0.52041-0.36239
   1  -7   1   17.39    1.13   1-0.11363-0.57356 0.98547 0.76796-0.12620-0.28505
   1  -7   2   43.10    1.98   1-0.28044-0.73340 0.90793 0.64806 0.31146 0.20527
  -1   7  -2   45.89    1.89   1-0.64287-0.19042 0.27739 0.53810 0.71398 0.82108
  -1   7  -2   45.28    1.77   1-0.52687-0.07274 0.61644 0.87508-0.58515-0.47846
   1  -7   2   48.96    1.96   1-0.18475-0.63868 0.96112 0.70302-0.20519-0.31279
   1  -7   3   32.63    1.66   1-0.31074-0.75738 0.88562 0.58499 0.34511 0.29009
  -1   7  -3   33.85    1.59   1-0.63380-0.18770 0.32064 0.62225 0.70390 0.75998
  -1   7  -3   33.23    1.55   1-0.58024-0.13217 0.49803 0.79719-0.64442-0.58907
   1  -7   3   36.22    1.55   1-0.25422-0.70214 0.92501 0.62632-0.28233-0.33868
   1  -7   4   35.15    1.95   1-0.32706-0.76738 0.87240 0.53100 0.36324 0.35937
  -1   7  -4   38.29    1.94   1-0.62851-0.18876 0.34308 0.68560 0.69803 0.70307
  -1   7  -4   37.51    1.47   1-0.62367-0.18167 0.36228 0.70196-0.69265-0.68864
   1  -7   4   39.01    1.71   1-0.31934-0.76126 0.87876 0.53948-0.35466-0.35975
   1  -7   5   33.81    2.06   1-0.33439-0.76839 0.86617 0.48401 0.37137 0.41868
  -1   7  -5   34.35    1.91   1-0.62630-0.19291 0.35198 0.73540 0.69558 0.64959
  -1   7  -5   38.17    1.70   1-0.65373-0.21866 0.21330 0.59475-0.72604-0.77359
   1  -7   5   37.73    2.06   1-0.37850-0.81443 0.82463 0.44443-0.42037-0.37305
   1  -7   6    2.90    0.93   1-0.33550-0.76319 0.86521 0.44229 0.37261 0.47108
  -1   7  -6    2.35    0.93   1-0.62645-0.19940 0.35142 0.77574 0.69574 0.59871
  -1   7  -6    2.83    0.42   1-0.66774-0.23900 0.06426 0.48642-0.74160-0.84039
   1  -7   6    3.15    0.75   1-0.42865-0.85851 0.76786 0.34715-0.47606-0.37740
   1  -7   7   18.82    1.68   1-0.33204-0.75341 0.86819 0.40450 0.36876 0.51840
  -1   7  -7   21.47    1.54   1-0.62832-0.20762 0.34388 0.80911 0.69782 0.54975
  -1   7  -7   21.49    1.31   1-0.66699-0.24458-0.07988 0.38297-0.74076-0.89079
   1  -7   7   21.50    1.63   1-0.46998-0.89378 0.71179 0.25056-0.52197-0.37197
   1  -7   8   38.24    2.29   1-0.32504-0.74010 0.87408 0.36963 0.36099 0.56180
  -1   7  -8   41.75    2.36   1-0.63142-0.21707 0.33095 0.83708 0.70126 0.50216
  -1   7  -8   40.86    1.84   1-0.65363-0.23756-0.21394 0.28961-0.72593-0.92719
   1  -7   8   39.90    2.18   1-0.50286-0.92059 0.65971 0.15797-0.55848-0.35714
   1  -7   9    2.68    0.81   1-0.31518-0.72393 0.88211 0.33689 0.35005 0.60202
  -1   7  -9    3.17    0.82   1-0.63535-0.22736 0.31368 0.86071 0.70563 0.45550
  -1   7  -9    3.05    0.59   1-0.63043-0.22069-0.33513 0.20912-0.70016-0.95266
   1  -7  10    5.54    1.54   1-0.30292-0.70534 0.89165 0.30567 0.33643 0.63956
  -1   7 -10    6.32    1.25   1-0.63980-0.23816 0.29278 0.88071 0.71057 0.40940
  -1   7 -10    6.51    0.73   1-0.60000-0.19659-0.44264 0.14231-0.66637-0.97010
  -1   7 -11    0.49    0.49   1-0.56439-0.16790-0.53717 0.08922-0.62682-0.98175
   1  -7  12    3.89    1.11   1-0.27231-0.66210 0.91344 0.24593 0.30243 0.70790
  -1   7 -12    4.84    0.75   1-0.52538-0.13526-0.61926 0.04786-0.58350-0.98965
  -1   6  10    1.31    0.60   1-0.45259 0.00314-0.73654-0.98047-0.50265 0.19661
  -1   6  10    1.67    0.88   1-0.11146 0.34019 0.98602 0.74234-0.12379 0.57722
  -1   6   9    1.69    0.58   1-0.41912 0.03025-0.77952-0.98272-0.46548 0.18256
  -1   6   9    1.04    0.82   1-0.11205 0.33359 0.98587 0.78278-0.12445 0.52531
  -1   6   8    6.87    0.89   1-0.38230 0.06070-0.82071-0.98318-0.42459 0.17224
  -1   6   8    5.37    0.87   1-0.11677 0.32288 0.98465 0.82215-0.12968 0.46883
  -1   6   7    4.44    0.77   1-0.34169 0.09495-0.85978-0.98152-0.37949 0.16612
  -1   6   7    3.56    0.78   1-0.12625 0.30739 0.98203 0.86012-0.14022 0.40704
  -1   6   6   19.63    1.17   1-0.29679 0.13349-0.89624-0.97725-0.32962 0.16478
  -1   6   6   17.91    1.16   1-0.14131 0.28633 0.97744 0.89612-0.15694 0.33906
  -1   6   5  114.75    6.28   1-0.24702 0.17690-0.92936-0.96963-0.27434 0.16884
  -1   6   5  108.23    6.15   1-0.16287 0.25877 0.96992 0.92919-0.18089 0.26387
  -1   6   4   37.35    1.72   1-0.19195 0.22369 0.95796 0.95783-0.21318 0.18032
  -1   6   3   17.23    1.08   1-0.22955 0.18009 0.93931 0.97976-0.25494 0.08731
  -1   6   2   41.36    2.02   1-0.27640 0.12724 0.91069 0.99174-0.30697-0.01595
  -1   6   1    6.22    0.72   1-0.64985-0.25251-0.23830-0.11527 0.72173 0.96070
  -1   6   1    5.69    1.00   1 0.05582 0.45330-0.99651-0.87364-0.06199 0.17682
  -1   6   1    6.47    0.83   1-0.33250 0.06514 0.86780 0.98943-0.36927-0.12951
   1  -6  -1    7.19    0.77   1-0.00967-0.40731 0.99989 0.87826-0.01074-0.25050
   1  -6   0   38.40    1.58   1-0.24376-0.63508 0.93128 0.76791 0.27072 0.08350
  -1   6   0   40.77    1.89   1-0.66664-0.27573 0.08610 0.24992 0.74038 0.92817
  -1   6   0   40.82    1.55   1-0.39744-0.00551 0.80448 0.96730-0.44140-0.25354
   1  -6   0   42.70    1.44   1-0.08848-0.48013 0.99121 0.82899-0.09827-0.28678
   1  -6   1    6.15    0.65   1-0.32055-0.70555 0.87778 0.67365 0.35601 0.21995
  -1   6  -1    6.16    0.63   1-0.65107-0.26650 0.23076 0.43547 0.72308 0.85984
  -1   6  -1    5.54    0.68   1-0.46586-0.08000 0.71781 0.92115-0.51739-0.38088
   1  -6   1    6.62    0.71   1-0.17054-0.55619 0.96697 0.76415-0.18941-0.32667
   1  -6   2   35.19    1.55   1-0.35758-0.73627 0.84523 0.60033 0.39713 0.31224
  -1   6  -2   34.56    1.53   1-0.63719-0.25898 0.30523 0.55085 0.70767 0.79340
  -1   6  -2   32.81    1.29   1-0.53305-0.15326 0.60445 0.84830-0.59201-0.50683
   1  -6   2   37.52    1.40   1-0.25257-0.63221 0.92602 0.68261-0.28050-0.36652
   1  -6   3    7.20    0.90   1-0.37546-0.74783 0.82773 0.54207 0.41699 0.38327
  -1   6  -3    7.77    0.90   1-0.62823-0.25637 0.34422 0.63073 0.69773 0.73241
  -1   6  -3    7.46    0.60   1-0.59190-0.21818 0.46636 0.75073-0.65738-0.62353
   1  -6   3    7.83    0.78   1-0.33042-0.70406 0.86956 0.58556-0.36697-0.40174
   1  -6   4    6.00    1.15   1-0.38247-0.74852 0.82053 0.49411 0.42477 0.44222
  -1   6  -4    6.30    0.76   1-0.62359-0.25808 0.36258 0.69000 0.69257 0.67622
  -1   6  -4    6.54    0.54   1-0.63600-0.26833 0.31075 0.63564-0.70635-0.72384
   1  -6   4    6.45    0.63   1-0.40089-0.76855 0.80065 0.47576-0.44523-0.42774
   1  -6   5    1.21    0.80   1-0.38257-0.74231 0.82042 0.45324 0.42489 0.49349
  -1   6  -5    1.08    0.58   1-0.62224-0.26308 0.36774 0.73606 0.69107 0.62368
  -1   6  -5    1.03    0.34   1-0.66196-0.30129 0.14594 0.51250-0.73518-0.80408
   1  -6   5    1.02    0.45   1-0.45961-0.82120 0.72676 0.36136-0.51045-0.44162
   1  -6   6   21.68    1.46   1-0.37789-0.73131 0.82525 0.41730 0.41969 0.53947
  -1   6  -6   21.95    1.27   1-0.62327-0.27047 0.36381 0.77304 0.69221 0.57380
  -1   6  -6   23.35    1.23   1-0.66907-0.31473-0.01256 0.39470-0.74308-0.86322
   1  -6   6   22.21    1.51   1-0.50647-0.86199 0.65352 0.24760-0.56249-0.44232
   1  -6   7   10.57    1.00   1-0.36966-0.71677 0.83353 0.38482 0.41056 0.58149
  -1   6  -7   11.40    1.21   1-0.62599-0.27954 0.35324 0.80337 0.69523 0.52578
  -1   6  -7   11.45    0.85   1-0.66057-0.31256-0.15941 0.28854-0.73364-0.90500
   1  -6   7   10.88    0.98   1-0.54219-0.89165 0.58602 0.13958-0.60216-0.43066
   1  -6   8    1.90    0.74   1-0.35865-0.69944 0.84421 0.35473 0.39832 0.62043
  -1   6  -8    1.93    0.42   1-0.64022-0.29855-0.29074 0.19792-0.71104-0.93364
   1  -6   8    1.73    0.57   1-0.56846-0.91185 0.52750 0.04054-0.63134-0.40849
   1  -6   9    5.79    0.99   1-0.34533-0.67980 0.85653 0.32629 0.38353 0.65680
  -1   6  -9    5.09    1.46   1-0.63444-0.30069 0.31776 0.84970 0.70462 0.43310
  -1   6  -9    6.11    0.61   1-0.61160-0.27625-0.40566 0.12370-0.67925-0.95308
   1  -6  10   15.98    2.33   1-0.33003-0.65819 0.86990 0.29889 0.36653 0.69097
  -1   6 -10   17.78    1.59   1-0.63944-0.31204 0.29455 0.86739 0.71017 0.38761
  -1   6 -10   17.47    1.50   1-0.57750-0.24849-0.50509 0.06497-0.64138-0.96645
   1  -6  11   16.54    1.78   1-0.31295-0.63479 0.88388 0.27211 0.34757 0.72317
  -1   6 -11   14.51    2.84   1-0.64458-0.32353 0.26839 0.88213 0.71587 0.34228
  -1   6 -11   17.13    1.51   1-0.53983-0.21771-0.59085 0.02057-0.59955-0.97579
   1  -6  12    9.56    1.48   1-0.29424-0.60977 0.89812 0.24558 0.32679 0.75356
  -1   6 -12   10.26    1.87   1-0.64964-0.33494 0.23960 0.89424 0.72149 0.29687
  -1   6 -12   10.84    1.27   1-0.50002-0.18427-0.66450-0.01233-0.55533-0.98279
   1  -6  13   17.19    1.94   1-0.27399-0.58320 0.91231 0.21901 0.30430 0.78223
  -1   6 -13   19.99    1.36   1-0.65443-0.34609 0.20840 0.90395 0.72682 0.25116
  -1   6 -13   18.13    1.59   1-0.45874-0.14934-0.72799-0.03509-0.50948-0.98816
  -1   5  11    4.47    0.76   1-0.49187-0.10413-0.67796-0.97760-0.54627 0.18289
  -1   5  11    4.56    0.80   1-0.07363 0.30974 0.99392 0.69496-0.08177 0.64891
  -1   5  10    6.14    0.76   1-0.46151-0.08015-0.72406-0.98296-0.51257 0.16539
  -1   5  10    4.17    0.84   1-0.06927 0.30809 0.99462 0.73625-0.07693 0.60250
   1  -5  -9    4.70    0.59   1-0.60487-0.97651-0.42759-0.21087 0.67178 0.04422
   1  -5  -9    4.85    1.19   1-0.28958-0.66101-0.90149-0.68507 0.32161-0.30616
  -1   5   9    6.45    0.88   1-0.42785-0.05284-0.76886-0.98703-0.47517 0.15156
  -1   5   9    4.68    0.78   1-0.06861 0.30275 0.99472 0.77694-0.07620 0.55198
   1  -5  -8    5.62    0.57   1-0.57189-0.93748-0.51914-0.34301 0.63515 0.05882
  -1   5   8    5.85    0.81   1-0.39036-0.02171-0.81219-0.98962-0.43354 0.14198
  -1   5   8    4.59    0.64   1-0.07227 0.29309 0.99414 0.81695-0.08027 0.49666
  -1   5   7    8.81    0.99   1-0.34843 0.01384-0.85372-0.99042-0.38697 0.13733
  -1   5   7    7.26    0.91   1-0.08108 0.27827 0.99263 0.85602-0.09005 0.43562
  -1   5   6   37.22    2.32   1-0.30129 0.05462-0.89288-0.98885-0.33462 0.13847
  -1   5   6   34.73    2.22   1-0.09607 0.25729 0.98963 0.89362-0.10670 0.36773
  -1   5   5    2.74    0.48   1-0.24803 0.10152-0.92875-0.98400-0.27547 0.14641
  -1   5   5    2.65    0.68   1-0.11851 0.22885 0.98418 0.92877-0.13162 0.29156
  -1   5   4    6.94    0.64   1-0.14990 0.19146 0.97458 0.95975-0.16648 0.20545
  -1   5   3    4.28    0.53   1-0.19184 0.14351 0.95801 0.98377-0.21306 0.10761
  -1   5   2    1.97    0.44   1-0.24571 0.08364 0.93013 0.99648-0.27289-0.00345
   1  -5  -2    2.46    0.45   1 0.04218-0.28717 0.99801 0.93165 0.04685-0.22258
  -1   5   1    0.92    0.30   1-0.64430-0.32122-0.26984-0.16177 0.71557 0.93308
  -1   5   1    1.01    0.38   1-0.31187 0.01149 0.88474 0.99168-0.34636-0.12818
   1  -5  -1    1.06    0.38   1-0.04403-0.36739 0.99783 0.89088-0.04890-0.26709
   1  -5   0   12.38    0.90   1-0.36812-0.68517 0.83506 0.68667 0.40884 0.24292
  -1   5   0   13.23    1.00   1-0.66662-0.34995 0.08644 0.23516 0.74036 0.90676
  -1   5   0   11.11    0.93   1-0.38939-0.07179 0.81323 0.96126-0.43246-0.26611
   1  -5   0   11.78    0.77   1-0.13764-0.45500 0.97861 0.83107-0.15287-0.31980
   1  -5   1    3.38    0.54   1-0.41391-0.72465 0.78570 0.59655 0.45970 0.34495
  -1   5  -1    3.48    0.50   1-0.64953-0.33921 0.24023 0.42985 0.72138 0.83675
  -1   5  -1    3.49    0.54   1-0.47092-0.15939 0.71041 0.89895-0.52301-0.40799
   1  -5   1    3.44    0.56   1-0.23485-0.54621 0.93638 0.74825-0.26082-0.37651
   1  -5   2   42.01    2.03   1-0.43159-0.73601 0.76417 0.53425 0.47933 0.41575
  -1   5  -2   41.99    1.84   1-0.63490-0.33093 0.31574 0.54626 0.70512 0.76946
  -1   5  -2   39.89    1.78   1-0.54824-0.24278 0.57330 0.80237-0.60888-0.54521
   1  -5   2   44.66    2.02   1-0.32952-0.63488 0.87032 0.64161-0.36597-0.43041
   1  -5   3   32.77    1.82   1-0.43636-0.73446 0.75810 0.48742 0.48462 0.47220
  -1   5  -3   35.48    1.89   1-0.62601-0.32840 0.35314 0.62457 0.69526 0.70856
  -1   5  -3   33.00    1.66   1-0.61085-0.31146 0.40814 0.67772-0.67842-0.66608
   1  -5   3   36.75    1.57   1-0.41547-0.71487 0.78387 0.51428-0.46143-0.47377
   1  -5   4   60.07    2.30   1-0.43388-0.72567 0.76126 0.44982 0.48188 0.52062
  -1   5  -4   61.26    2.07   1-0.62187-0.33061 0.36912 0.68145 0.69066 0.65293
  -1   5  -4   61.52    1.65   1-0.65169-0.35908 0.22680 0.53777-0.72377-0.76279
   1  -5   4   61.88    1.91   1-0.48570-0.77902 0.68783 0.37773-0.53942-0.50043
   1  -5   5   58.15    2.34   1-0.42678-0.71225 0.77018 0.41797 0.47399 0.56390
  -1   5  -5   57.08    1.99   1-0.62118-0.33626 0.37173 0.72496 0.68989 0.60112
  -1   5  -5   60.07    1.60   1-0.66830-0.38203 0.04961 0.40128-0.74222-0.83247
   1  -5   5   57.66    1.73   1-0.53922-0.82648 0.59211 0.24149-0.59886-0.50853
   1  -5   6   76.51    3.05   1-0.41639-0.69555 0.78277 0.38980 0.46245 0.60353
  -1   5  -6   75.91    2.95   1-0.62288-0.34432 0.36531 0.75944 0.69178 0.55198
  -1   5  -6   75.54    2.52   1-0.66480-0.38486-0.11347 0.27889-0.73834-0.87982
   1  -5   6   76.48    2.72   1-0.57747-0.85867 0.50516 0.11402-0.64135-0.49968
   1  -5   7   19.54    1.21   1-0.40349-0.67633 0.79772 0.36399 0.44813 0.64037
  -1   5  -7   19.81    1.36   1-0.62621-0.35400 0.35237 0.78741 0.69547 0.50464
  -1   5  -7   20.04    1.14   1-0.64667-0.37306-0.25688 0.17618-0.71820-0.91092
   1  -5   7   20.37    1.15   1-0.60358-0.87871 0.43163-0.00001-0.67035-0.47734
   1  -5   8    3.81    1.75   1-0.38854-0.65506 0.81413 0.33963 0.43152 0.67493
  -1   5  -8    5.96    1.05   1-0.63059-0.36473 0.33447 0.81041 0.70034 0.45847
  -1   5  -8    4.90    0.49   1-0.61897-0.35169-0.37986 0.09391-0.68744-0.93139
   1  -5   8    4.78    0.62   1-0.62085-0.88992 0.37293-0.09923-0.68953-0.44519
   1  -5   9   32.77    1.82   1-0.37182-0.63203 0.83139 0.31612 0.41295 0.70753
  -1   5  -9   32.20    1.95   1-0.63559-0.37608 0.31261 0.82945 0.70589 0.41299
  -1   5  -9   32.14    1.72   1-0.58545-0.32451-0.48421 0.03025-0.65021-0.94539
   1  -5  10   40.46    2.55   1-0.35352-0.60741 0.84903 0.29300 0.39263 0.73837
  -1   5 -10   42.12    2.59   1-0.64089-0.38773 0.28744 0.84519 0.71178 0.36783
  -1   5 -10   42.89    2.51   1-0.54852-0.29440-0.57271-0.01698-0.60919-0.95552
   1  -5  11    2.45    1.10   1-0.33376-0.58133 0.86671 0.26992 0.37067 0.76758
  -1   5 -11    2.99    1.12   1-0.64621-0.39941 0.25944 0.85809 0.71769 0.32272
  -1   5 -11    3.01    0.76   1-0.50976-0.26201-0.64777-0.05130-0.56615-0.96370
   1  -5  12    3.50    0.90   1-0.31259-0.55385 0.88416 0.24660 0.34717 0.79525
  -1   5 -12    4.91    0.92   1-0.65136-0.41091 0.22889 0.86844 0.72341 0.27740
  -1   5 -12    3.92    0.87   1-0.46992-0.22853-0.71189-0.07469-0.52190-0.97066
   1  -5  13    1.13    1.20   1-0.29007-0.52502 0.90114 0.22282 0.32216 0.82140
  -1   5 -13    0.87    0.83   1-0.65614-0.42204 0.19601 0.87647 0.72872 0.23168
  -1   5 -13    1.00    0.87   1-0.42940-0.19437-0.76692-0.08899-0.47690-0.97688
  -1   4  12    0.34    0.58   1-0.53160-0.21187-0.60729-0.96262-0.59040 0.16867
  -1   4  12    0.42    0.64   1-0.04130 0.27379 0.99809 0.64384-0.04586 0.71449
   1  -4 -11   10.16    1.23   1-0.66522-0.97751-0.10795 0.20835 0.73880 0.03239
   1  -4 -11    7.56    1.61   1-0.07870-0.38790-0.99305-0.68063 0.08741-0.62150
  -1   4  11   12.53    1.47   1-0.50515-0.19179-0.65578-0.97038-0.56103 0.14683
  -1   4  11   10.15    1.25   1-0.03198 0.27710 0.99885 0.68520-0.03552 0.67358
   1  -4 -10    0.87    0.52   1-0.66773-0.97368-0.06444 0.21096 0.74159 0.08622
   1  -4 -10    0.48    0.73   1-0.06703-0.37020-0.99496-0.72309 0.07445-0.58316
  -1   4  10    0.46    0.77   1-0.47560-0.16860-0.70341-0.97728-0.52821 0.12843
  -1   4  10    0.55    0.58   1-0.02587 0.27721 0.99925 0.72618-0.02873 0.62912
   1  -4  -9    0.03    0.42   1-0.66887-0.96847-0.02744 0.20705 0.74286 0.13852
   1  -4  -9    0.14    0.62   1-0.06507-0.36222-0.99525-0.76393 0.07227-0.53404
  -1   4   9   -0.12    0.49   1-0.44246-0.14182-0.75016-0.98330-0.49140 0.11403
  -1   4   9   -0.04    0.52   1-0.02349 0.27359 0.99938 0.76691-0.02609 0.58051
   1  -4  -8    2.85    0.66   1-0.66913-0.96237 0.00082 0.19442 0.74314 0.18984
   1  -4  -8    2.18    0.65   1-0.07713-0.36825-0.99333-0.80255 0.08566-0.46935
  -1   4   8    3.01    0.60   1-0.40507-0.11079-0.79594-0.98834-0.44987 0.10434
  -1   4   8    2.41    0.60   1-0.02560 0.26548 0.99926 0.80738-0.02843 0.52692
   1  -4  -7    7.95    0.83   1-0.66905-0.95594 0.01520 0.16790 0.74305 0.24079
   1  -4  -7    7.21    1.36   1-0.11180-0.39689-0.98594-0.83571 0.12417-0.37954
  -1   4   7    8.80    0.67   1-0.36256-0.07465-0.84047-0.99214-0.40267 0.10033
  -1   4   7    8.00    0.70   1-0.03318 0.25190 0.99877 0.84747-0.03685 0.46725
   1  -4  -6   14.99    1.02   1-0.66912-0.94966 0.00186 0.11365 0.74314 0.29191
   1  -4  -6   14.68    1.45   1-0.18819-0.46726-0.95963-0.84995 0.20901-0.24341
  -1   4   6   15.41    0.89   1-0.31383-0.03227-0.88319-0.99413-0.34854 0.10324
  -1   4   6   13.73    0.99   1-0.04755 0.23152 0.99747 0.88677-0.05281 0.40004
   1  -4  -5    7.07    0.62   1-0.66607-0.94026-0.09543-0.02454 0.73975 0.33955
   1  -4  -5    3.54    0.51   1-0.35772-0.63076-0.84509-0.77596 0.39729-0.00383
  -1   4   5    6.51    0.58   1-0.25742 0.01776-0.92303-0.99324-0.28589 0.11468
  -1   4   5    6.10    0.61   1-0.07045 0.20262 0.99444 0.92433-0.07825 0.32335
  -1   4   4   44.82    1.58   1-0.10410 0.16297 0.98782 0.95830-0.11562 0.23473
  -1   4   3  344.89    4.33   1-0.15112 0.10995 0.97416 0.98523-0.16784 0.13126
  -1   4   2  100.20    3.26   1-0.21406 0.04101 0.94744 0.99910-0.23774 0.01011
   1  -4  -2  111.09    3.33   1 0.02443-0.23064 0.99933 0.94767 0.02713-0.22072
   1  -4  -1   38.40    1.68   1-0.44896-0.69806 0.74149 0.64884 0.49862 0.30284
  -1   4   1   38.46    1.51   1-0.61932-0.37049-0.37858-0.28547 0.68783 0.88387
  -1   4   1   37.72    1.58   1-0.29408-0.04501 0.89823 0.99049-0.32661-0.13001
   1  -4  -1   37.77    1.49   1-0.07916-0.32823 0.99297 0.90072-0.08791-0.28452
   1  -4   0  117.42    3.37   1-0.49587-0.73865 0.67142 0.53800 0.55072 0.40611
  -1   4   0  134.87    3.47   1-0.66854-0.42612 0.04167 0.17530 0.74249 0.88752
  -1   4   0  115.75    3.32   1-0.38929-0.14603 0.81333 0.94657-0.43235-0.28750
   1  -4   0  126.24    3.22   1-0.19342-0.43649 0.95731 0.82446-0.21481-0.36017
   1  -4   1    6.11    0.65   1-0.50447-0.74093 0.65696 0.48278 0.56027 0.46682
  -1   4  -1    7.03    0.67   1-0.65269-0.41661 0.22027 0.39480 0.72489 0.81887
  -1   4  -1    6.36    0.57   1-0.48808-0.25088 0.68405 0.85781-0.54206-0.44855
   1  -4   1    6.85    0.61   1-0.31049-0.54756 0.88582 0.71238-0.34483-0.43894
   1  -4   2   75.14    2.59   1-0.50140-0.73155 0.66219 0.44725 0.55686 0.51458
  -1   4  -2   83.10    2.72   1-0.63743-0.40771 0.30410 0.51954 0.70794 0.75089
  -1   4  -2   77.45    2.69   1-0.57538-0.34425 0.51046 0.72474-0.63902-0.59685
   1  -4   2   82.19    2.49   1-0.41907-0.65020 0.77958 0.56530-0.46543-0.50760
   1  -4   3   20.58    1.23   1-0.49283-0.71667 0.67640 0.42069 0.54734 0.55623
  -1   4  -3   22.85    1.38   1-0.62831-0.40494 0.34391 0.60024 0.69781 0.68973
  -1   4  -3   22.24    1.01   1-0.63624-0.41118 0.30963 0.56442-0.70662-0.71578
   1  -4   3   21.11    1.22   1-0.50624-0.73130 0.65390 0.39911-0.56224-0.55308
   1  -4   4   21.97    1.34   1-0.48097-0.69849 0.69520 0.39873 0.53418 0.59423
  -1   4  -4   23.49    1.27   1-0.62427-0.40724 0.35997 0.65721 0.69332 0.63420
  -1   4  -4   23.90    1.14   1-0.66542-0.44721 0.10514 0.40122-0.73902-0.79938
   1  -4   4   24.60    1.10   1-0.56854-0.78753 0.52730 0.23199-0.63143-0.57093
   1  -4   5   19.83    1.29   1-0.46682-0.67802 0.71643 0.37920 0.51845 0.62967
  -1   4  -5   19.74    1.14   1-0.62382-0.41315 0.36171 0.69985 0.69282 0.58267
  -1   4  -5   20.33    1.00   1-0.66702-0.45514-0.07935 0.25742-0.74080-0.85239
   1  -4   5   20.03    1.12   1-0.60882-0.82175 0.41488 0.07905-0.67616-0.56433
   1  -4   6   10.43    0.90   1-0.45086-0.65575 0.73890 0.36090 0.50074 0.66312
  -1   4  -6    9.81    1.02   1-0.62579-0.42147 0.35402 0.73306 0.69501 0.53382
  -1   4  -6   10.53    0.65   1-0.65002-0.44447-0.23727 0.14020-0.72192-0.88475
   1  -4   6    9.87    0.70   1-0.63314-0.84000 0.32352-0.05281-0.70317-0.54000
   1  -4   7    1.99    0.86   1-0.43340-0.63197 0.76188 0.34312 0.48134 0.69489
  -1   4  -7    2.26    0.86   1-0.62935-0.43138 0.33965 0.75959 0.69896 0.48674
  -1   4  -7    2.00    0.37   1-0.62200-0.42279-0.36863 0.04954-0.69080-0.90486
   1  -4   7    1.59    0.59   1-0.64721-0.84800 0.25384-0.16301-0.71880-0.50429
   1  -4   8   19.76    1.31   1-0.41458-0.60684 0.78492 0.32539 0.46044 0.72516
  -1   4  -8   21.38    1.31   1-0.63388-0.44226 0.32026 0.78111 0.70400 0.44074
  -1   4  -8   20.84    1.09   1-0.58807-0.39519-0.47707-0.01819-0.65312-0.91841
   1  -4   8   18.71    1.23   1-0.65543-0.84830 0.20131-0.25756-0.72793-0.46263
   1  -4   9   13.54    1.91   1-0.39451-0.58045 0.80769 0.30740 0.43815 0.75403
  -1   4  -9   17.60    1.42   1-0.63895-0.45368 0.29691 0.79867 0.70963 0.39533
  -1   4  -9   16.97    1.26   1-0.55117-0.36506-0.56699-0.06696-0.61214-0.92857
   1  -4   9   13.29    1.29   1-0.65973-0.84627 0.16700-0.33257-0.73270-0.41617
   1  -4  10    0.60    0.69   1-0.37324-0.55286 0.82997 0.28891 0.41453 0.78157
  -1   4 -10    1.06    0.97   1-0.64422-0.46531 0.27028 0.81294 0.71548 0.35015
  -1   4 -10    0.71    0.66   1-0.51299-0.33324-0.64205-0.10128-0.56974-0.93738
   1  -4  10    0.75    0.57   1-0.66198-0.84220 0.14572-0.39456-0.73521-0.36744
   1  -4  11    2.74    0.83   1-0.35079-0.52410 0.85156 0.26974 0.38959 0.80780
  -1   4 -11    2.34    0.77   1-0.47426-0.30087-0.70543-0.12393-0.52671-0.94557
   1  -4  11    1.68    0.65   1-0.66300-0.83688 0.13498-0.44599-0.73634-0.31734
   1  -4  12   10.47    1.75   1-0.32716-0.49415 0.87231 0.24973 0.36335 0.83273
  -1   4 -12   11.07    1.29   1-0.65437-0.48816 0.20886 0.83332 0.72675 0.25935
  -1   4 -12   11.64    1.30   1-0.43529-0.26827-0.75947-0.13723-0.48344-0.95351
   1  -4  12    7.35    1.01   1-0.66319-0.83074 0.13287-0.48880-0.73655-0.26632
   1  -4  13   11.69    1.40   1-0.30233-0.46301 0.89210 0.22875 0.33577 0.85632
  -1   4 -13   10.50    2.36   1-0.65885-0.49899 0.17458 0.83994 0.73173 0.21330
  -1   4 -13   12.68    1.26   1-0.39619-0.23553-0.80586-0.14290-0.44001-0.96130
   1  -4  13    8.01    1.07   1-0.66273-0.82395 0.13792-0.52446-0.73604-0.21457
   1  -4  14    7.57    1.38   1-0.27627-0.43063 0.91078 0.20667 0.30683 0.87854
  -1   4 -14    8.19    0.99   1-0.66271-0.50920 0.13810 0.84437 0.73602 0.16655
  -1   4 -14    8.19    0.83   1-0.35690-0.20260-0.84587-0.14217-0.39638-0.96888
   1  -4  14    6.05    0.89   1-0.66165-0.81654 0.14903-0.55404-0.73484-0.16214
   1  -3 -12    3.73    0.74   1-0.66871-0.91311 0.03533 0.40764 0.74268 0.00662
   1  -3 -12    3.27    0.97   1-0.00295-0.24390-0.99998-0.63211 0.00328-0.73548
  -1   3  12    3.64    0.86   1-0.54790-0.30254-0.57402-0.94432-0.60851 0.12926
  -1   3  12    2.85    0.92   1-0.00095 0.23985 0.99999 0.63106-0.00105 0.73772
   1  -3 -11   11.79    1.39   1-0.66630-0.90435 0.09181 0.42322 0.74000 0.05498
   1  -3 -11    8.81    1.45   1 0.01840-0.21651-0.99962-0.67229-0.02044-0.70791
  -1   3  11   11.12    1.11   1-0.52320-0.28421-0.62337-0.95294-0.58108 0.10547
  -1   3  11    7.74    1.15   1 0.01050 0.24530 0.99987 0.67152 0.01166 0.69919
   1  -3 -10   12.99    1.19   1-0.66187-0.89357 0.14688 0.43738 0.73508 0.10110
   1  -3 -10    9.76    1.51   1 0.03498-0.19390-0.99863-0.71185-0.03885-0.67502
  -1   3  10   12.18    1.09   1-0.49536-0.26272-0.67226-0.96110-0.55015 0.08518
  -1   3  10    9.44    0.98   1 0.01885 0.24765 0.99960 0.71184 0.02094 0.65722
   1  -3  -9   16.98    1.16   1-0.65545-0.88080 0.20112 0.45072 0.72795 0.14500
   1  -3  -9   11.46    1.57   1 0.04562-0.17724-0.99767-0.75144-0.05067-0.63554
  -1   3   9   15.01    1.01   1-0.46378-0.23751-0.72082-0.96892-0.51508 0.06904
  -1   3   9   12.52    0.92   1 0.02351 0.24631 0.99938 0.75221 0.02611 0.61114
   1  -3  -8   20.82    1.65   1-0.64695-0.86595 0.25532 0.46401 0.71851 0.18660
   1  -3  -8   14.68    1.89   1 0.04825-0.16858-0.99739-0.79171-0.05359-0.58716
  -1   3   8   19.36    1.55   1-0.42766-0.20775-0.76909-0.97646-0.47497 0.05794
  -1   3   8   15.47    1.20   1 0.02365 0.24045 0.99937 0.79280 0.02626 0.56004
   1  -3  -7   25.96    1.36   1-0.63602-0.84867 0.31065 0.47844 0.70637 0.22549
   1  -3  -7   20.83    1.63   1 0.03909-0.17171-0.99829-0.83315-0.04342-0.52570
  -1   3   7   24.09    1.31   1-0.38587-0.17233-0.81696-0.98360-0.42856 0.05313
  -1   3   7   20.71    1.06   1 0.01809 0.22889 0.99963 0.83364 0.02009 0.50262
   1  -3  -6   16.54    1.00   1-0.62182-0.82812 0.36931 0.49620 0.69060 0.26076
   1  -3  -6   13.69    1.53   1 0.01083-0.19395-0.99986-0.87528-0.01203-0.44301
  -1   3   6   16.71    1.12   1-0.33684-0.12966-0.86404-0.98995-0.37410 0.05637
  -1   3   6   14.60    1.05   1 0.00520 0.20999 0.99997 0.87457 0.00577 0.43705
   1  -3  -5   29.88    1.57   1-0.60214-0.80208 0.43612 0.52210 0.66874 0.28993
   1  -3  -5   26.11    1.74   1-0.05194-0.25070-0.99698-0.91294 0.05769-0.32199
  -1   3   5   27.63    1.41   1-0.27838-0.07756-0.90934-0.99452-0.30917 0.07009
  -1   3   5   28.06    1.21   1-0.01738 0.18141 0.99966 0.91485-0.01930 0.36072
   1  -3  -4  107.07    3.35   1-0.56912-0.76290 0.52590 0.57052 0.63207 0.30410
   1  -3  -4  104.11    3.61   1-0.18387-0.37661-0.96150-0.91801 0.20421-0.12416
  -1   3   4  106.77    3.71   1-0.05293 0.13985 0.99686 0.95265-0.05879 0.26998
   1  -3  -3    8.84    0.80   1-0.48789-0.67535 0.68435 0.68821 0.54186 0.26505
   1  -3  -3    6.20    0.63   1-0.44302-0.62973-0.74942-0.74648 0.49202 0.21494
  -1   3   3    8.31    0.79   1-0.10582 0.08096 0.98741 0.98379-0.11753 0.15999
   1  -3  -1   14.79    1.07   1-0.64425-0.81879 0.27010 0.19247 0.71552 0.54085
  -1   3   1   15.15    0.87   1-0.55185-0.37728-0.56552-0.48737 0.61289 0.78747
  -1   3   1   14.56    0.95   1-0.28159-0.10680 0.90713 0.98469-0.31274-0.13771
   1  -3  -1   14.97    0.89   1-0.11589-0.29068 0.98488 0.90732-0.12871-0.30374
   1  -3   0    0.44    0.27   1-0.61250-0.78068 0.40261 0.28408 0.68025 0.55661
  -1   3   0    0.39    0.29   1-0.66752-0.49934-0.06918 0.04935 0.74136 0.86499
  -1   3   0    0.49    0.25   1-0.40338-0.23445 0.79786 0.91631-0.44799-0.32465
   1  -3   0    0.46    0.25   1-0.26092-0.42972 0.92083 0.80268-0.28979-0.41356
   1  -3   1    1.76    0.40   1-0.58781-0.74965 0.47777 0.31834 0.65283 0.58023
  -1   3  -1    1.80    0.45   1-0.66071-0.49887 0.15813 0.31757 0.73379 0.80639
  -1   3  -1    1.69    0.33   1-0.52419-0.36134 0.62151 0.78048-0.58218-0.51017
   1  -3   1    1.68    0.34   1-0.40430-0.56716 0.79680 0.63783-0.44903-0.52104
   1  -3   2   23.51    1.23   1-0.56476-0.72064 0.53630 0.33634 0.62723 0.60625
  -1   3  -2   25.36    1.46   1-0.64570-0.49022 0.26227 0.46261 0.71712 0.73869
  -1   3  -2   24.10    1.09   1-0.61552-0.45873 0.39219 0.59167-0.68360-0.66293
   1  -3   2   24.83    1.26   1-0.51940-0.67619 0.63044 0.43095-0.57685-0.59752
   1  -3   3    6.90    0.78   1-0.54392-0.69349 0.58242 0.34169 0.60409 0.63428
  -1   3  -3    6.96    0.68   1-0.63596-0.48683 0.31091 0.55215 0.70631 0.67684
  -1   3  -3    7.31    0.53   1-0.66147-0.51133 0.15084 0.39132-0.73464-0.76511
   1  -3   3    7.27    0.56   1-0.59469-0.74541 0.45837 0.21837-0.66047-0.62981
   1  -3   4   28.17    1.32   1-0.52329-0.66654 0.62322 0.34172 0.58117 0.66252
  -1   3  -4   28.97    1.59   1-0.63142-0.48864 0.33094 0.61308 0.70126 0.62076
  -1   3  -4   27.98    1.03   1-0.66779-0.52398-0.06321 0.21797-0.74165-0.82336
   1  -3   4   26.50    1.09   1-0.63594-0.78060 0.31102 0.03050-0.70628-0.62428
   1  -3   5   52.88    2.15   1-0.50243-0.63937 0.66043 0.33818 0.55801 0.69053
  -1   3  -5   53.47    2.36   1-0.63061-0.49418 0.33438 0.65743 0.70036 0.56882
  -1   3  -5   52.20    1.76   1-0.64985-0.51238-0.23828 0.08360-0.72173-0.85468
   1  -3   5   53.60    1.93   1-0.65601-0.79349 0.19702-0.12485-0.72857-0.59563
   1  -3   6   53.29    2.05   1-0.48112-0.61174 0.69497 0.33195 0.53434 0.71803
  -1   3  -6   53.98    2.17   1-0.63228-0.50221 0.32723 0.69119 0.70222 0.51965
  -1   3  -6   52.18    1.45   1-0.61969-0.48854-0.37723-0.01464-0.68823-0.87241
   1  -3   6   51.71    1.69   1-0.66451-0.79565 0.11726-0.24532-0.73801-0.55384
   1  -3   7   56.73    2.45   1-0.45921-0.58352 0.72732 0.32354 0.51001 0.74486
  -1   3  -7   58.80    2.44   1-0.63555-0.51182 0.31279 0.71764 0.70585 0.47224
  -1   3  -7   58.35    2.30   1-0.58419-0.45938-0.48759-0.08430-0.64881-0.88422
   1  -3   7   58.40    2.28   1-0.66778-0.79259 0.06341-0.33987-0.74164-0.50624
   1  -3   8   93.13    3.01   1-0.43660-0.55458 0.75779 0.31324 0.48489 0.77091
  -1   3  -8   97.43    2.51   1-0.63976-0.52239 0.29297 0.73872 0.71053 0.42589
  -1   3  -8   94.72    2.01   1-0.54675-0.42865-0.57647-0.13213-0.60723-0.89375
   1  -3   8   86.55    2.54   1-0.66884-0.78732 0.02923-0.41474-0.74282-0.45618
   1  -3   9    2.75    0.73   1-0.41320-0.52487 0.78655 0.30124 0.45890 0.79609
  -1   3  -9    2.06    0.92   1-0.64447-0.53344 0.26896 0.75562 0.71575 0.38008
  -1   3  -9    2.59    0.65   1-0.50891-0.39716-0.64927-0.16420-0.56520-0.90293
   1  -3   9    1.68    0.72   1-0.66909-0.78124 0.00988-0.47480-0.74310-0.40523
   1  -3  10    5.85    1.98   1-0.38895-0.49430 0.81370 0.28762 0.43197 0.82032
  -1   3 -10    7.04    1.69   1-0.64931-0.54464 0.24154 0.76910 0.72114 0.33442
  -1   3 -10    7.04    0.82   1-0.47120-0.36582-0.70999-0.18419-0.52332-0.91227
   1  -3  10    5.16    0.88   1-0.66912-0.77494 0.00182-0.52356-0.74314-0.35403
   1  -3  11   30.85    2.42   1-0.36378-0.46282 0.83929 0.27245 0.40402 0.84354
  -1   3 -11   31.71    2.35   1-0.65403-0.55571 0.21119 0.77966 0.72638 0.28863
  -1   3 -11   31.98    2.41   1-0.43378-0.33476-0.76139-0.19486-0.48176-0.92193
   1  -3  11   24.06    1.93   1-0.66912-0.76861 0.00257-0.56351-0.74314-0.30279
   1  -3  12   24.00    2.43   1-0.33763-0.43036 0.86335 0.25575 0.37498 0.86566
  -1   3 -12   23.99    2.25   1-0.65841-0.56644 0.17825 0.78762 0.73124 0.24246
  -1   3 -12   23.65    2.00   1-0.39660-0.30395-0.80541-0.19814-0.44047-0.93185
   1  -3  12   20.21    1.93   1-0.66909-0.76224 0.01036-0.59641-0.74310-0.25152
   1  -3  13    2.78    0.91   1-0.31044-0.39684 0.88586 0.23749 0.34478 0.88662
  -1   3 -13    3.11    0.83   1-0.66225-0.57663 0.14294 0.79321 0.73551 0.19569
  -1   3 -13    2.76    0.66   1-0.35953-0.27324-0.84338-0.19538-0.39930-0.94189
   1  -3  13    2.83    0.76   1-0.66893-0.75575 0.02396-0.62352-0.74293-0.20011
   1  -3  14    1.10    1.26   1-0.28211-0.36220 0.90677 0.21764 0.31331 0.90633
  -1   3 -14    1.21    1.00   1-0.66540-0.58613 0.10537 0.79655 0.73900 0.14815
  -1   3 -14    1.85    0.70   1-0.32239-0.24246-0.87627-0.18754-0.35805-0.95186
   1  -3  14    2.27    0.77   1-0.66852-0.74901 0.04247-0.64571-0.74247-0.14842
   1  -2 -13    0.90    0.74   1 0.03361-0.13908-0.99873-0.57540-0.03732-0.80595
  -1   2  13    0.73    0.55   1-0.58737-0.41032-0.47897-0.90458-0.65235 0.11557
  -1   2  13    0.90    0.67   1 0.02323 0.19576 0.99939 0.57517 0.02580 0.79426
   1  -2 -12    9.04    1.39   1-0.65928-0.82944 0.17091 0.55830 0.73220 0.01754
   1  -2 -12    5.95    1.56   1 0.05854-0.10812-0.99616-0.61338-0.06502-0.78234
  -1   2  12    8.14    1.03   1-0.56803-0.39704-0.52853-0.91380-0.63086 0.08560
  -1   2  12    6.24    0.77   1 0.03978 0.20630 0.99823 0.61460 0.04418 0.76138
   1  -2 -11    7.13    0.96   1-0.65121-0.81502 0.22985 0.57635 0.72324 0.05961
   1  -2 -11    5.47    1.08   1 0.08030-0.08034-0.99277-0.65054-0.08918-0.75520
  -1   2  11    6.58    0.97   1-0.54603-0.38140-0.57800-0.92253-0.60643 0.05882
   1  -2 -10    0.84    0.59   1-0.64061-0.79808 0.28879 0.59438 0.71148 0.09888
   1  -2 -10    0.69    0.57   1 0.09876-0.05548-0.98904-0.68722-0.10968-0.72432
  -1   2  10    0.87    0.49   1-0.52104-0.36278-0.62740-0.93120-0.57868 0.03535
   1  -2  -9   50.52    2.44   1-0.62716-0.77827 0.34855 0.61324 0.69654 0.13497
   1  -2  -9   48.05    2.86   1 0.11253-0.03570-0.98575-0.72448-0.12498-0.68836
  -1   2   9   43.80    1.96   1-0.49245-0.34055-0.67702-0.94009-0.54692 0.01589
   1  -2  -8    2.41    0.75   1-0.61021-0.75496 0.41030 0.63409 0.67770 0.16718
   1  -2  -8    2.17    0.68   1 0.12071-0.02153-0.98359-0.76288-0.13406-0.64617
  -1   2   8    2.03    0.49   1-0.45934-0.31380-0.72714-0.94948-0.51015 0.00145
   1  -2  -7    0.69    0.45   1-0.58853-0.72693 0.47580 0.65868 0.65363 0.19414
   1  -2  -7    0.64    0.57   1 0.12109-0.01515-0.98348-0.80333-0.13448-0.59533
  -1   2   7    0.57    0.39   1-0.42037-0.28119-0.77802-0.95962-0.46687-0.00647
   1  -2  -6    2.45    0.50   1-0.55875-0.69089 0.55018 0.69130 0.62055 0.21155
   1  -2  -6    2.52    0.57   1 0.10966-0.02058-0.98647-0.84687-0.12179-0.53138
  -1   2   6    2.19    0.42   1-0.37350-0.24068-0.82971-0.97058-0.41481-0.00563
   1  -2  -5   38.98    2.02   1-0.51760-0.64343 0.63372 0.73408 0.57486 0.21702
   1  -2  -5   36.29    1.82   1 0.07846-0.04602-0.99310-0.89415-0.08714-0.44538
  -1   2   5   37.57    1.57   1-0.31560-0.18915-0.88177-0.98191-0.35051 0.00744
  -1   2   5   35.50    1.50   1 0.04276 0.16727 0.99795 0.89845 0.04749 0.40594
   1  -2  -4   22.96    1.19   1-0.45185-0.57136 0.73755 0.79715 0.50183 0.19516
   1  -2  -4   20.32    1.47   1 0.01150-0.10695-0.99985-0.94145-0.01277-0.31971
  -1   2   4   21.04    1.03   1-0.24180-0.12172-0.93241-0.99182-0.26855 0.03819
  -1   2   4   21.49    1.21   1 0.00643 0.12495 0.99995 0.94104 0.00715 0.31434
   1  -2  -3    5.76    0.67   1-0.32634-0.43954 0.87300 0.89183 0.36244 0.10694
   1  -2  -3    5.32    0.66   1-0.12612-0.23856-0.98207-0.96422 0.14007-0.11556
  -1   2   3    5.78    0.66   1-0.05291 0.05959 0.99686 0.97855-0.05876 0.19718
   1  -2  -2   65.60    2.32   1-0.37775-0.48416-0.82540-0.84810 0.41953 0.21518
  -1   2   2   68.45    2.11   1 0.03424 0.14065-0.99869-0.97599-0.03803 0.16631
  -1   2   2   69.47    2.21   1-0.14561-0.03910 0.97603 0.99831-0.16172 0.04297
   1  -2  -2   74.23    2.28   1 0.01377-0.09273 0.99978 0.97751 0.01529-0.18939
   1  -2  -1  567.25   10.52   1-0.61757-0.71788-0.38493-0.44811 0.68588 0.53276
  -1   2   1  577.77   10.87   1-0.42778-0.32747-0.76894-0.70575 0.47510 0.62822
  -1   2   1  580.23    6.77   1-0.28012-0.17961 0.90815 0.97102-0.31110-0.15766
   1  -2  -1  594.56    5.70   1-0.15623-0.25674 0.97235 0.90949-0.17352-0.32696
   1  -2   0  205.83    4.79   1-0.66902-0.76296 0.01806-0.08537 0.74302 0.64077
  -1   2   0  209.68    4.88   1-0.64571-0.55147-0.26220-0.15842 0.71714 0.81901
  -1   2   0  201.42    4.70   1-0.44507-0.35048 0.74671 0.85037-0.49430-0.39245
   1  -2   0  202.33    4.54   1-0.35110-0.44560 0.85127 0.74782-0.38993-0.49213
   1  -2   1   88.03    2.86   1-0.64859-0.73618 0.24584 0.10150 0.72033 0.66912
  -1   2  -1   88.76    2.64   1-0.66873-0.58113 0.03446 0.17880 0.74270 0.79391
  -1   2  -1   85.74    2.46   1-0.58682-0.49830 0.48048 0.62466-0.65174-0.60123
   1  -2   1   88.73    2.72   1-0.51988-0.60840 0.62956 0.48537-0.57738-0.62789
   1  -2   2  214.99    4.96   1-0.61863-0.69988 0.38108 0.19584 0.68706 0.68688
  -1   2  -2  228.08    5.52   1-0.65848-0.57724 0.17764 0.36288 0.73132 0.73150
  -1   2  -2  227.60    5.01   1-0.65829-0.57621 0.17923 0.36413-0.73110-0.73169
   1  -2   2  221.42    4.71   1-0.61795-0.70041 0.38354 0.19885-0.68630-0.68547
   1  -2   3   12.93    0.88   1-0.58934-0.66424 0.47354 0.24740 0.65453 0.70539
  -1   2  -3   13.39    0.99   1-0.64863-0.57374 0.24560 0.47175 0.72038 0.66952
  -1   2  -3   13.02    0.76   1-0.66710-0.59136-0.07767 0.14792-0.74089-0.79272
   1  -2   3   12.30    0.78   1-0.65764-0.73338 0.18449-0.04110-0.73038-0.67856
   1  -2   4   65.46    2.31   1-0.56029-0.62927 0.54666 0.28015 0.62227 0.72492
  -1   2  -4   69.45    2.52   1-0.64316-0.57462 0.27584 0.54290 0.71431 0.61242
  -1   2  -4   69.25    2.16   1-0.64407-0.57466-0.27107-0.00478-0.71531-0.81837
   1  -2   4   70.18    2.07   1-0.66832-0.73773 0.04909-0.21720-0.74224-0.63919
   1  -2   5   34.44    1.69   1-0.53336-0.59603 0.60384 0.29656 0.59236 0.74618
  -1   2  -5   34.79    1.64   1-0.64137-0.57918 0.28501 0.59297 0.71232 0.55939
  -1   2  -5   33.44    1.43   1-0.60921-0.54613-0.41361-0.10661-0.67659-0.83088
   1  -2   5   34.36    1.42   1-0.66867-0.73174-0.03708-0.34408-0.74263-0.58834
   1  -2   6   12.73    1.10   1-0.50696-0.56332 0.65265 0.30461 0.56304 0.76803
  -1   2  -6   12.85    0.91   1-0.64213-0.58629 0.28120 0.63006 0.71315 0.50919
  -1   2  -6   13.19    0.74   1-0.57115-0.51441-0.52095-0.17326-0.63433-0.83985
   1  -2   6   13.23    0.89   1-0.66644-0.72319-0.08951-0.43721-0.74016-0.53463
   1  -2   7   22.45    1.47   1-0.48071-0.53075 0.69560 0.30679 0.53389 0.79004
  -1   2  -7   23.57    1.36   1-0.64452-0.59503 0.26870 0.65846 0.71581 0.46081
  -1   2  -7   23.10    0.93   1-0.53305-0.48295-0.60444-0.21581-0.59202-0.84863
   1  -2   7   20.84    1.06   1-0.66435-0.71477-0.11919-0.50759-0.73784-0.48109
   1  -2   8    9.30    0.89   1-0.45432-0.49804 0.73416 0.30458 0.50457 0.81189
  -1   2  -8    9.44    1.02   1-0.64788-0.60475 0.24997 0.68064 0.71955 0.41352
  -1   2  -8    8.56    0.65   1-0.49581-0.45207-0.67152-0.24215-0.55065-0.85847
   1  -2   8    7.59    0.68   1-0.66316-0.70725-0.13317-0.56227-0.73652-0.42853
   1  -2   9    2.65    0.95   1-0.42756-0.46497 0.76921 0.29887 0.47486 0.83335
  -1   2  -9    2.00    0.63   1-0.65173-0.61495 0.22651 0.69807 0.72382 0.36676
  -1   2  -9    1.94    0.50   1-0.45952-0.42214-0.72689-0.25679-0.51035-0.86939
   1  -2   9    1.74    0.53   1-0.66291-0.70066-0.13594-0.60573-0.73624-0.37702
   1  -2  10   12.72    1.12   1-0.40028-0.43137 0.80133 0.29023 0.44456 0.85421
  -1   2 -10   12.21    1.03   1-0.65571-0.62528 0.19923 0.71170 0.72824 0.32014
  -1   2 -10   12.74    1.02   1-0.42403-0.39302-0.77357-0.26273-0.47093-0.88119
   1  -2  10   12.08    0.92   1-0.66342-0.69483-0.13036-0.64085-0.73680-0.32634
   1  -2  11   13.10    1.34   1-0.37232-0.39710 0.83089 0.27902 0.41351 0.87433
  -1   2 -11   13.86    1.51   1-0.65953-0.63545 0.16876 0.72213 0.73248 0.27335
  -1   2 -11   13.73    1.30   1-0.38910-0.36445-0.81354-0.26197-0.43214-0.89361
   1  -2  11   13.42    1.20   1-0.66442-0.68951-0.11833-0.66952-0.73792-0.27623
   1  -2  12   -0.39    1.09   1-0.34357-0.36202 0.85811 0.26548 0.38157 0.89356
  -1   2 -12    0.09    0.68   1-0.66296-0.64523 0.13547 0.72975 0.73629 0.22612
  -1   2 -12    0.06    0.55   1-0.35448-0.33619-0.84814-0.25584-0.39368-0.90637
   1  -2  12   -0.41    0.85   1-0.66570-0.68445-0.10111-0.69300-0.73933-0.22641
   1  -2  13    1.15    0.85   1-0.31389-0.32603 0.88313 0.24974 0.34862 0.91177
  -1   2 -13    0.74    0.62   1-0.31993-0.30801-0.87828-0.24525-0.35532-0.91922
   1  -2  13    0.70    0.90   1-0.66700-0.67942-0.07956-0.71216-0.74078-0.17662
   1  -2  14    4.04    1.29   1-0.28318-0.28900 0.90603 0.23187 0.31450 0.92882
  -1   2 -14    4.92    1.07   1-0.66786-0.66284 0.06139 0.73747 0.74174 0.12950
  -1   2 -14    3.83    1.02   1-0.28526-0.27970-0.90457-0.23081-0.31681-0.93193
   1  -2  14    5.15    0.77   1-0.66814-0.67423-0.05428-0.72757-0.74204-0.12665
   1  -1 -13    1.46    0.78   1-0.65414-0.75641 0.21045 0.65384 0.72650-0.01781
   1  -1 -13    1.01    0.76   1 0.07575-0.02266-0.99357-0.55533-0.08413-0.83131
  -1   1  13    1.19    0.77   1-0.60731-0.50465-0.41980-0.86030-0.67448 0.07208
   1  -1 -12    0.65    1.03   1-0.64439-0.74031 0.26940 0.67189 0.71566 0.02238
   1  -1 -12    0.79    0.69   1 0.09998 0.00795-0.98877-0.59092-0.11103-0.80668
  -1   1  12    0.43    0.51   1-0.59122-0.49489-0.46828-0.86808-0.65662 0.03871
   1  -1 -11    2.47    0.86   1-0.63209-0.72166 0.32807 0.68965 0.70201 0.05976
   1  -1 -11    2.39    0.93   1 0.12109 0.03507-0.98348-0.62619-0.13449-0.77887
  -1   1  11    2.40    0.55   1-0.57296-0.48297-0.51650-0.87560-0.63634 0.00776
   1  -1 -10   10.79    0.97   1-0.61697-0.70019 0.38705 0.70773 0.68522 0.09401
   1  -1 -10   10.38    0.96   1 0.13918 0.05916-0.97812-0.66139-0.15458-0.74770
  -1   1  10   10.35    0.94   1-0.55232-0.46842-0.56449-0.88325-0.61342-0.02068
   1  -1  -9   26.03    1.83   1-0.59853-0.67540 0.44707 0.72685 0.66474 0.12456
   1  -1  -9   25.69    1.96   1 0.15368 0.07966-0.97326-0.69708-0.17068-0.71254
  -1   1   9   24.07    1.61   1-0.52848-0.45094-0.61335-0.89139-0.58693-0.04542
   1  -1  -8   38.50    1.87   1-0.57592-0.64644 0.50909 0.74797 0.63963 0.15048
   1  -1  -8   37.51    2.25   1 0.16368 0.09565-0.96961-0.73399-0.18178-0.67238
  -1   1   8   34.74    1.37   1-0.50072-0.42955-0.66333-0.90064-0.55611-0.06580
   1  -1  -7   40.73    2.04   1-0.54655-0.61074 0.57690 0.77376 0.60701 0.16814
   1  -1  -7   37.42    2.19   1 0.16762 0.10559-0.96811-0.77304-0.18616-0.62549
  -1   1   7   35.76    1.71   1-0.46771-0.40290-0.71513-0.91170-0.51944-0.08036
   1  -1  -6   46.79    1.89   1-0.50997-0.56785 0.64739 0.80349 0.56638 0.17869
   1  -1  -6   45.71    2.05   1 0.16283 0.10680-0.96993-0.81542-0.18084-0.56892
  -1   1   6   42.20    1.62   1-0.42723-0.36878-0.76962-0.92546-0.47449-0.08661
   1  -1  -5   71.23    2.60   1-0.46032-0.51188 0.72576 0.84110 0.51124 0.17470
   1  -1  -5   67.75    2.49   1 0.14443 0.09440-0.97642-0.86246-0.16041-0.49722
  -1   1   5   60.40    2.29   1-0.37544-0.32336-0.82775-0.94286-0.41697-0.08031
   1  -1  -4   37.28    1.80   1-0.38760-0.43285 0.81513 0.88971 0.43047 0.14511
   1  -1  -4   35.12    1.52   1 0.10286 0.05884-0.98811-0.91471-0.11424-0.39979
  -1   1   4   32.87    1.32   1-0.30527-0.25955-0.88986-0.96424-0.33904-0.05360
   1  -1  -3   73.27    2.37   1-0.26987-0.30880 0.91505 0.94886 0.29972 0.06552
   1  -1  -3   71.03    2.24   1 0.01825-0.01990-0.99962-0.96687-0.02027-0.25447
  -1   1   3   74.19    2.41   1 0.01426 0.05249 0.99977 0.96676 0.01584 0.25021
   1  -1  -2  220.42    4.72   1-0.14550-0.17764-0.97607-0.98386 0.16159-0.02130
  -1   1   2  221.44    5.00   1 0.05559 0.08772-0.99654-0.98874-0.06174 0.12116
  -1   1   2  219.87    5.47   1-0.10527-0.07305 0.98754 0.99512-0.11692 0.06619
   1  -1  -2  242.23    5.31   1 0.04135 0.00913 0.99808 0.99050 0.04593-0.13718
   1  -1  -1   20.53    0.91   1-0.40516-0.43127-0.79583-0.84418 0.44998 0.31837
  -1   1   1   21.44    1.01   1-0.28079-0.25468-0.90769-0.85935 0.31185 0.44345
  -1   1   1   19.40    1.03   1-0.30696-0.28073 0.88856 0.93674-0.34091-0.20905
   1  -1  -1   19.53    0.97   1-0.20633-0.23255 0.95126 0.90309-0.22915-0.36102
   1  -1   0   41.04    1.47   1-0.61433-0.63432-0.39633-0.48515 0.68228 0.60188
  -1   1   0   40.03    1.43   1-0.56873-0.54874-0.52685-0.43803 0.63163 0.71204
  -1   1   0   41.09    1.83   1-0.54255-0.52229 0.58528 0.67416-0.60256-0.52222
   1  -1   0   40.94    1.63   1-0.48799-0.50824 0.68419 0.59532-0.54197-0.62231
   1  -1   1   12.73    0.76   1-0.66875-0.68210-0.03356-0.16281 0.74272 0.71289
  -1   1  -1   13.47    0.86   1-0.65943-0.64607-0.16965-0.04040 0.73237 0.76220
  -1   1  -1   12.88    0.79   1-0.65953-0.64552 0.16871 0.29801-0.73249-0.70319
   1  -1   1   12.83    0.74   1-0.63877-0.65296 0.29778 0.16839-0.70942-0.73843
   1  -1   2    1.22    0.31   1-0.65503-0.66203 0.20416 0.03400 0.72749 0.74869
  -1   1  -2    1.22    0.31   1-0.66875-0.66175 0.03353 0.20369 0.74272 0.72152
  -1   1  -2    1.28    0.23   1-0.66140-0.65373-0.15149 0.01850-0.73456-0.75650
   1  -1   2    1.26    0.25   1-0.66898-0.67666 0.02094-0.14906-0.74298-0.72104
   1  -1   3    1.03    0.46   1-0.62493-0.62559 0.35738 0.14632 0.69406 0.76630
  -1   1  -3    0.91    0.34   1-0.66289-0.66225 0.13614 0.34720 0.73622 0.66398
  -1   1  -3    1.37    0.32   1-0.62547-0.62413-0.35529-0.14458-0.69465-0.76782
   1  -1   3    0.93    0.25   1-0.66314-0.66448-0.13345-0.34416-0.73649-0.66333
   1  -1   4   13.69    0.90   1-0.59248-0.58677 0.46473 0.21278 0.65801 0.78129
  -1   1  -4   12.61    0.96   1-0.65743-0.66313 0.18616 0.43812 0.73015 0.60687
  -1   1  -4   13.52    0.77   1-0.58371-0.58869-0.48889-0.23749-0.64827-0.77267
   1  -1   4   13.08    0.73   1-0.65340-0.64841-0.21551-0.46692-0.72567-0.60127
   1  -1   5    7.90    0.74   1-0.55934-0.54774 0.54883 0.25652 0.62121 0.79634
  -1   1  -5    7.48    0.70   1-0.65460-0.66665 0.20722 0.50008 0.72701 0.55270
  -1   1  -5    7.98    0.63   1-0.54360-0.55515-0.58308-0.29087-0.60373-0.77922
   1  -1   5    7.54    0.65   1-0.64652-0.63520-0.25772-0.54982-0.71804-0.54240
   1  -1   6   11.48    0.92   1-0.52814-0.51023 0.61400 0.28093 0.58656 0.81285
  -1   1  -6   11.62    0.84   1-0.65407-0.67248 0.21092 0.54469 0.72642 0.50108
  -1   1  -6   11.47    0.76   1-0.50613-0.52403-0.65410-0.32116-0.56211-0.78882
   1  -1   6   11.05    0.71   1-0.64300-0.62534-0.27672-0.60952-0.71412-0.48725
   1  -1   7   46.13    1.92   1-0.49759-0.47336 0.66857 0.29474 0.55263 0.83009
  -1   1  -7   44.38    1.63   1-0.65514-0.67990 0.20335 0.57802 0.72761 0.45123
  -1   1  -7   44.25    1.45   1-0.47086-0.49513-0.71049-0.33682-0.52294-0.80086
   1  -1   7   42.27    1.36   1-0.64213-0.61814-0.28118-0.65468-0.71316-0.43505
   1  -1   8   33.64    1.95   1-0.46735-0.43681 0.71565 0.30105 0.51905 0.84768
  -1   1  -8   31.60    1.61   1-0.65720-0.68831 0.18794 0.60351 0.72990 0.40248
  -1   1  -8   32.91    1.34   1-0.43721-0.46784-0.75701-0.34260-0.48557-0.81470
   1  -1   8   30.79    1.36   1-0.64316-0.61284-0.27588-0.69008-0.71430-0.38496
   1  -1   9   34.79    2.33   1-0.43714-0.40028 0.75709 0.30173 0.48550 0.86529
  -1   1  -9   34.34    1.76   1-0.65976-0.69722 0.16670 0.62317 0.73274 0.35429
  -1   1  -9   35.69    1.54   1-0.40463-0.44163-0.79643-0.34130-0.44939-0.82974
   1  -1   9   35.24    1.65   1-0.64546-0.60881-0.26360-0.71850-0.71686-0.33629
   1  -1  10   79.47    2.52   1-0.40670-0.36352 0.79408 0.29795 0.45169 0.88265
  -1   1 -10   76.66    3.09   1-0.66245-0.70626 0.14090 0.63828 0.73573 0.30624
  -1   1 -10   77.60    2.97   1-0.37272-0.41608-0.83049-0.33462-0.41395-0.84551
   1  -1  10   78.62    2.10   1-0.64855-0.60557-0.24604-0.74165-0.72029-0.28849
   1  -1  11    0.81    1.01   1-0.37582-0.32632 0.82736 0.29047 0.41739 0.89951
  -1   1 -11    0.92    0.65   1-0.66496-0.71512 0.11135 0.64963 0.73852 0.25800
  -1   1 -11    0.57    0.77   1-0.34114-0.39086-0.86027-0.32367-0.37888-0.86166
   1  -1  11    0.89    0.56   1-0.65208-0.60276-0.22429-0.76059-0.72421-0.24117
   1  -1  12    7.60    1.23   1-0.34431-0.28849 0.85745 0.27979 0.38239 0.91568
  -1   1 -12    7.91    1.30   1-0.66706-0.72357 0.07856 0.65775 0.74084 0.20929
  -1   1 -12    8.13    0.97   1-0.30963-0.36571-0.88649-0.30916-0.34388-0.87787
   1  -1  12    7.92    0.94   1-0.65574-0.60009-0.19904-0.77604-0.72827-0.19400
   1  -1  13   19.50    1.86   1-0.31199-0.24986 0.88464 0.26622 0.34650 0.93096
  -1   1 -13   20.95    1.89   1-0.66851-0.73137 0.04287 0.66296 0.74246 0.15987
  -1   1 -13   18.27    1.84   1-0.27797-0.34041-0.90962-0.29156-0.30871-0.89392
   1  -1  13   22.37    1.98   1-0.65930-0.59732-0.17075-0.78846-0.73223-0.14672
   1  -1  14    6.79    1.28   1-0.27870-0.21026 0.90912 0.24994 0.30953 0.94515
  -1   1 -14    7.73    1.20   1-0.66912-0.73833 0.00448 0.66547 0.74313 0.10951
  -1   1 -14    6.80    0.85   1-0.24597-0.31477-0.92998-0.27118-0.27317-0.90960
   1  -1  14    7.02    0.76   1-0.66256-0.59425-0.13974-0.79814-0.73585-0.09911
   1   0 -14    3.53    1.12   1-0.65176-0.68614 0.22634 0.72573 0.72385-0.05010
   1   0 -14    3.08    0.88   1 0.07925 0.04907-0.99296-0.49927-0.08802-0.86505
  -1   0  14    3.31    0.62   1-0.63873-0.60414-0.29795-0.79404-0.70939 0.06707
   1   0 -13   13.34    1.44   1-0.64154-0.66957 0.28419 0.74267 0.71250-0.01042
   1   0 -13   12.81    1.50   1 0.10441 0.08061-0.98774-0.53443-0.11596-0.84135
  -1   0  13   12.91    1.33   1-0.62826-0.59999-0.34413-0.79953-0.69775 0.02747
   1   0 -12   19.43    1.95   1-0.62893-0.65061 0.34135 0.75893 0.69850 0.02661
   1   0 -12   19.69    1.99   1 0.12683 0.10903-0.98187-0.56910-0.14086-0.81500
  -1   0  12   19.79    1.69   1-0.61630-0.59437-0.38942-0.80411-0.68448-0.01048
   1   0 -11    9.54    1.09   1-0.61377-0.62910 0.39826 0.77494 0.68166 0.06080
   1   0 -11    8.90    1.06   1 0.14679 0.13499-0.97563-0.60343-0.16303-0.78590
  -1   0  11    9.67    1.04   1-0.60279-0.58719-0.43410-0.80809-0.66947-0.04670
   1   0 -10   17.89    1.24   1-0.59573-0.60470 0.45536 0.79114 0.66162 0.09179
   1   0 -10   18.29    1.59   1 0.16398 0.15818-0.96950-0.63785-0.18212-0.75373
  -1   0  10   18.75    1.09   1-0.58755-0.57828-0.47850-0.81180-0.65254-0.08101
   1   0  -9    9.93    1.07   1-0.57428-0.57691 0.51321 0.80808 0.63781 0.11901
   1   0  -9    9.78    1.04   1 0.17793 0.17813-0.96399-0.67290-0.19761-0.71796
  -1   0   9   10.29    0.77   1-0.57028-0.56735-0.52308-0.81567-0.63336-0.11307
   1   0  -8    2.81    0.81   1-0.54741-0.54365 0.57507 0.82767 0.60796 0.13924
   1   0  -8    2.94    0.60   1 0.18786 0.19406-0.95977-0.70924-0.20864-0.67772
  -1   0   8    3.17    0.65   1-0.55071-0.55391-0.56799-0.82026-0.61163-0.14263
   1   0  -7  135.31    3.25   1-0.51605-0.50597 0.63656 0.84840 0.57313 0.15557
   1   0  -7  130.73    2.84   1 0.19253 0.20473-0.95770-0.74772-0.21383-0.63165
  -1   0   7  132.81    2.59   1-0.52764-0.53720-0.61496-0.82650-0.58600-0.16822
   1   0  -6    4.93    0.76   1-0.47692-0.46052 0.70142 0.87249 0.52967 0.16328
   1   0  -6    5.13    0.61   1 0.18988 0.20807-0.95889-0.78946-0.21088-0.57744
  -1   0   6    5.15    0.55   1-0.49972-0.51564-0.66501-0.83582-0.55500-0.18843
   1   0  -5   10.70    0.92   1-0.42620-0.40349 0.77090 0.90121 0.47334 0.15812
   1   0  -5    9.84    0.81   1 0.17632 0.20051-0.96465-0.83578-0.19582-0.51112
  -1   0   5    9.46    0.71   1-0.46397-0.48625-0.72056-0.85063-0.51529-0.19994
   1   0  -4    0.07    0.31   1-0.35693-0.32791 0.84584 0.93539 0.39641 0.13235
   1   0  -4    0.17    0.29   1 0.14528 0.17548-0.97614-0.88783-0.16136-0.42539
  -1   0   4    0.20    0.25   1-0.41369-0.44233-0.78597-0.87532-0.45945-0.19531
   1   0  -3   98.07    2.77   1-0.25590-0.22056 0.92397 0.97276 0.28421 0.07131
   1   0  -3  100.54    2.76   1 0.08392 0.12004-0.99210-0.94444-0.09321-0.30597
  -1   0   3   94.69    2.90   1-0.33110-0.36611-0.86899-0.91760-0.36772-0.15480
   1   0  -2   14.79    0.81   1-0.03090 0.01123-0.99893-0.99182 0.03432-0.12713
  -1   0   2   14.38    0.86   1 0.09516 0.05296-0.98983-0.99703-0.10568 0.05582
  -1   0   2   15.14    1.18   1-0.05000-0.09206 0.99720 0.99009-0.05554 0.10599
   1   0  -1    4.85    0.48   1-0.22982-0.18166-0.93916-0.97259 0.25525 0.14508
  -1   0   1    4.85    0.44   1-0.14571-0.19388-0.97600-0.94256 0.16183 0.27199
  -1   0   1    4.48    0.64   1-0.44306-0.49108 0.74936 0.78293-0.49207-0.38190
   1   0  -1    4.02    0.53   1-0.29803-0.24997 0.89533 0.86184-0.33099-0.44128
   1   0   0    3.08    0.39   1-0.47968-0.42541-0.69719-0.77105 0.53274 0.47380
  -1   0   0    3.25    0.40   1-0.42607-0.48034-0.77106-0.69720 0.47320 0.53214
  -1   0   0    3.12    0.35   1-0.66891-0.72297 0.02553 0.09924-0.74290-0.68371
   1   0   0    3.11    0.39   1-0.65762-0.60356 0.18462 0.11091-0.73036-0.78955
   1   0   1  355.08    6.92   1-0.63627-0.57593-0.30950-0.42396 0.70665 0.69896
  -1   0  -1  369.69    7.41   1-0.60224-0.66258-0.43580-0.32134 0.66886 0.67655
  -1   0  -1  357.02    7.03   1-0.62547-0.68586-0.35527-0.24086-0.69466-0.68671
   1   0   1  362.10    6.88   1-0.65263-0.59224-0.22066-0.33508-0.72482-0.73277
   1   0   2  165.60    3.97   1-0.66908-0.60184 0.01192-0.14313 0.74309 0.78568
  -1   0  -2  167.65    3.98   1-0.65788-0.72512-0.18255-0.02749 0.73065 0.68806
  -1   0  -2  170.86    3.75   1-0.57126-0.63798-0.52070-0.36559-0.63445-0.67773
   1   0   2  168.95    3.77   1-0.62338-0.55666-0.36339-0.51850-0.69234-0.64906
   1   0   3  107.13    3.02   1-0.65038-0.57679 0.23502 0.03906 0.72232 0.81595
  -1   0  -3  107.88    2.91   1-0.66882-0.74241-0.03044 0.16552 0.74280 0.64917
  -1   0  -3  105.17    2.70   1-0.52798-0.60116-0.61431-0.41854-0.58638-0.68075
   1   0   3  104.18    2.82   1-0.60779-0.53474-0.41823-0.61404-0.67502-0.58051
   1   0   4  160.00    4.08   1-0.61715-0.53721 0.38641 0.14954 0.68542 0.83008
  -1   0  -4  155.54    3.82   1-0.66823-0.74818 0.05162 0.28848 0.74215 0.59749
  -1   0  -4  147.83    3.46   1-0.49181-0.57135-0.67806-0.44155-0.54621-0.69179
   1   0   4  146.59    3.66   1-0.60174-0.52236-0.43733-0.67384-0.66830-0.52256
   1   0   5   20.79    1.21   1-0.58123-0.49493 0.49544 0.21767 0.64552 0.84122
  -1   0  -5   20.68    1.20   1-0.66622-0.75252 0.09308 0.37085 0.73991 0.54422
  -1   0  -5   20.88    0.95   1-0.45970-0.54561-0.72663-0.44939-0.51055-0.70735
   1   0   5   19.67    1.01   1-0.60132-0.51560-0.43864-0.71585-0.66783-0.47085
   1   0   6   27.73    1.75   1-0.54433-0.45214 0.58157 0.26348 0.60453 0.85213
  -1   0  -6   26.09    1.21   1-0.66505-0.75770 0.11020 0.42887 0.73861 0.49188
  -1   0  -6   27.68    1.12   1-0.42992-0.52219-0.76627-0.44830-0.47747-0.72548
   1   0   6   27.16    1.20   1-0.60420-0.51215-0.42969-0.74760-0.67104-0.42282
   1   0   7   26.41    1.89   1-0.50936-0.41086 0.64847 0.28961 0.56570 0.86447
  -1   0  -7   25.40    1.33   1-0.66493-0.76393 0.11176 0.47134 0.73848 0.44072
  -1   0  -7   27.58    1.27   1-0.40145-0.50008-0.80003-0.44132-0.44585-0.74508
   1   0   7   27.29    1.39   1-0.60906-0.51067-0.41410-0.77271-0.67643-0.37698
   1   0   8    9.41    1.04   1-0.47509-0.37027 0.70418 0.30456 0.52764 0.87757
  -1   0  -8    9.02    0.92   1-0.66558-0.77093 0.10274 0.50322 0.73921 0.39041
  -1   0  -8   10.03    0.72   1-0.37366-0.47865-0.82955-0.43011-0.41499-0.76543
   1   0   8   10.44    0.73   1-0.61505-0.51034-0.39381-0.79313-0.68308-0.33240
   1   0   9   15.33    1.37   1-0.44120-0.33007 0.75182 0.31143 0.49000 0.89110
  -1   0  -9   13.73    1.28   1-0.66664-0.77834 0.08606 0.52744 0.74038 0.34055
  -1   0  -9   14.87    1.13   1-0.34614-0.45750-0.85579-0.41563-0.38443-0.78609
   1   0   9   15.23    1.14   1-0.62165-0.51060-0.36995-0.80996-0.69041-0.28850
   1   0  10    5.08    0.82   1-0.40738-0.28993 0.79330 0.31215 0.45244 0.90470
  -1   0 -10    4.89    0.71   1-0.66777-0.78583 0.06353 0.54582 0.74164 0.29077
  -1   0 -10    5.07    0.65   1-0.31863-0.43635-0.87934-0.39844-0.35387-0.80674
   1   0  10    5.27    0.80   1-0.62849-0.51111-0.34318-0.82389-0.69801-0.24486
   1   0  11    1.67    0.74   1-0.37335-0.24959 0.82985 0.30794 0.41465 0.91808
  -1   0 -11    1.70    0.65   1-0.66868-0.79309 0.03631 0.55950 0.74265 0.24075
  -1   0 -11    1.55    0.81   1-0.29090-0.41499-0.90055-0.37891-0.32308-0.82716
   1   0  11    2.31    0.57   1-0.63530-0.51159-0.31393-0.83534-0.70557-0.20119
   1   0  12    5.46    1.19   1-0.33886-0.20878 0.86228 0.29960 0.37634 0.93093
  -1   0 -12    4.58    1.02   1-0.66912-0.79987 0.00513 0.56923 0.74313 0.19019
  -1   0 -12    5.74    0.85   1-0.26280-0.39325-0.91964-0.35727-0.29187-0.84717
   1   0  12    6.08    0.80   1-0.64188-0.51183-0.28244-0.84456-0.71288-0.15726
   1   0  13    5.74    0.91   1-0.30366-0.16727 0.89109 0.28764 0.33725 0.94301
  -1   0 -13    7.39    1.01   1-0.66883-0.80594-0.02951 0.57547 0.74282 0.13884
   1   0  13    6.85    1.03   1-0.64807-0.51169-0.24890-0.85171-0.71975-0.11290
   1   1 -14    4.99    0.93   1-0.64175-0.60189 0.28310 0.79758 0.71274-0.03983
   1   1 -14    5.54    0.95   1 0.09922 0.14364-0.98894-0.48015-0.11019-0.86533
  -1  -1  14    5.29    0.68   1-0.65447-0.69427-0.20816-0.71915-0.72686 0.02825
  -1  -1  13    0.18    0.75   1-0.64798-0.69412-0.24939-0.71968-0.71966-0.01577
   1   1 -12    0.35    0.72   1-0.61517-0.56261 0.39339 0.82607 0.68322 0.03271
   1   1 -12    0.14    0.72   1 0.14308 0.19950-0.97687-0.54919-0.15891-0.81152
  -1  -1  12    0.35    0.51   1-0.64060-0.69307-0.28888-0.71846-0.71146-0.05881
   1   1 -11    0.95    0.68   1-0.59830-0.53938 0.44777 0.83954 0.66447 0.06500
   1   1 -11    1.07    0.69   1 0.16154 0.22396-0.97042-0.58330-0.17941-0.78076
  -1  -1  11    0.74    0.61   1-0.63242-0.69122-0.32667-0.71555-0.70237-0.10095
   1   1 -10    2.89    0.97   1-0.57867-0.51340 0.50208 0.85295 0.64268 0.09424
   1   1 -10    3.16    0.96   1 0.17733 0.24575-0.96424-0.61768-0.19694-0.74704
  -1  -1  10    3.63    0.64   1-0.62354-0.68868-0.36277-0.71095-0.69252-0.14233
   1   1  -9    4.71    0.86   1-0.55463-0.48292 0.55941 0.86775 0.61598 0.11739
   1   1  -9    5.20    0.73   1 0.19000 0.26442-0.95883-0.65283-0.21101-0.70985
  -1  -1   9    4.97    0.59   1-0.61410-0.68557-0.39712-0.70460-0.68203-0.18308
   1   1  -8   19.58    1.15   1-0.52776-0.44973 0.61474 0.88232 0.58613 0.13871
   1   1  -8   19.53    1.15   1 0.19884 0.27926-0.95482-0.68937-0.22083-0.66840
   1   1  -8   20.25    1.10   1-0.25693-0.17937-0.92333-0.65609-0.28535-0.73304
  -1  -1   8   20.49    1.14   1-0.60424-0.68204-0.42958-0.69636-0.67107-0.22336
   1   1  -7   47.97    1.75   1-0.49590-0.41156 0.67137 0.89819 0.55075 0.15450
   1   1  -7   46.10    1.65   1 0.20276 0.28918-0.95298-0.72809-0.22518-0.62149
   1   1  -7   45.13    1.78   1-0.27639-0.19247-0.91069-0.68419-0.30697-0.70344
  -1  -1   7   44.86    1.51   1-0.59419-0.67832-0.45983-0.68591-0.65991-0.26343
   1   1  -6   70.37    2.59   1-0.45738-0.36672 0.72990 0.91596 0.50797 0.16288
   1   1  -6   65.61    2.32   1 0.19999 0.29240-0.95429-0.76995-0.22211-0.56715
   1   1  -6   66.69    2.48   1-0.29343-0.20314-0.89871-0.71293-0.32589-0.67115
  -1  -1   6   65.28    2.50   1-0.58433-0.67480-0.48721-0.67260-0.64897-0.30372
   1   1  -5   78.52    2.77   1-0.40944-0.31247 0.79092 0.93621 0.45473 0.16081
   1   1  -5   72.88    2.49   1 0.18761 0.28603-0.95988-0.81610-0.20836-0.50214
   1   1  -5   70.45    2.42   1-0.30662-0.20997-0.88882-0.74378-0.34053-0.63458
  -1  -1   5   65.37    2.50   1-0.57545-0.67224-0.51029-0.65497-0.63910-0.34509
   1   1  -4   80.93    2.59   1-0.34750-0.24421 0.85456 0.95909 0.38594 0.14318
   1   1  -4   77.74    2.35   1 0.16058 0.26499-0.97077-0.86755-0.17834-0.42086
   1   1  -4   70.83    2.27   1-0.31218-0.20916-0.88449-0.78018-0.34671-0.58954
   1   1  -3  112.96    3.12   1-0.26363-0.15403 0.91910 0.98286 0.29280 0.10121
   1   1  -3  113.80    3.15   1 0.10986 0.22028-0.98642-0.92376-0.12201-0.31327
   1   1  -3  110.56    3.41   1-0.29628-0.18691-0.89662-0.83304-0.32905-0.52067
   1   1  -2   68.46    2.08   1 0.01907 0.13549-0.99959-0.97757-0.02118-0.16120
  -1  -1   2   68.34    2.12   1 0.14135 0.02493-0.97743-0.99954-0.15698-0.01698
  -1  -1   2   73.28    2.44   1-0.62377-0.73956-0.36190-0.38448-0.69277-0.55246
   1   1  -1   96.80    2.48   1-0.13465-0.01221-0.97954-0.99807 0.14954 0.06082
  -1  -1   1   99.25    2.65   1-0.03125-0.15369-0.99890-0.98037 0.03471 0.12343
   1   1  -1   84.81    2.84   1-0.65564-0.53351-0.19976-0.21787-0.72816-0.81724
   1   1   0  148.76    3.41   1-0.35684-0.22837-0.84592-0.90500 0.39631 0.35889
  -1  -1   0  152.67    3.51   1-0.25774-0.38620-0.92283-0.86375 0.28625 0.32367
  -1  -1   0  131.18    3.39   1-0.41163-0.54009-0.78838-0.72977-0.45716-0.41919
   1   1   0  142.97    3.42   1-0.53365-0.40519-0.60326-0.66188-0.59268-0.63065
   1   1   1   31.17    1.09   1-0.56501-0.43041-0.53571-0.63521 0.62751 0.64128
  -1  -1  -1   33.04    1.28   1-0.47242-0.60702-0.70818-0.60868 0.52468 0.51091
  -1  -1  -1   26.52    1.33   1-0.42156-0.55639-0.77657-0.67723-0.46819-0.48144
   1   1   1   29.10    1.30   1-0.51661-0.38178-0.63554-0.73489-0.57375-0.56050
   1   1   2   33.79    1.39   1-0.65876-0.51727-0.17536-0.31532 0.73162 0.79560
  -1  -1  -2   33.82    1.20   1-0.59821-0.73888-0.44801-0.30792 0.66438 0.59936
  -1  -1  -2   29.63    1.29   1-0.41427-0.55546-0.78529-0.64521-0.46009-0.52455
   1   1   2   31.34    1.36   1-0.51865-0.37746-0.63181-0.77188-0.57602-0.51156
   1   1   3    0.34    0.26   1-0.66480-0.51696 0.11353-0.06733 0.73833 0.85335
  -1  -1  -3    0.24    0.33   1-0.64781-0.79454-0.25039-0.06970 0.71947 0.60319
  -1  -1  -3    0.28    0.30   1-0.40129-0.54884-0.80021-0.61939-0.44567-0.56135
   1   1   3    0.53    0.30   1-0.52679-0.37924-0.61658-0.79739-0.58507-0.46939
   1   1   4    2.80    0.46   1-0.63545-0.48126 0.31325 0.09148 0.70574 0.87178
  -1  -1  -4    2.70    0.42   1-0.66288-0.81707-0.13629 0.08548 0.73620 0.57016
  -1  -1  -4    2.72    0.57   1-0.38547-0.53938-0.81739-0.59585-0.42811-0.59499
   1   1   4    2.57    0.44   1-0.53738-0.38346-0.59583-0.81737-0.59682-0.42993
   1   1   5    8.13    0.74   1-0.59652-0.43598 0.45303 0.19035 0.66250 0.87958
  -1  -1  -5    7.44    0.65   1-0.66770-0.82823-0.06532 0.19735 0.74155 0.52447
  -1  -1  -5    8.15    0.67   1-0.36785-0.52813-0.83533-0.57305-0.40854-0.62664
   1   1   5    7.83    0.73   1-0.54898-0.38870-0.57172-0.83399-0.60971-0.39160
   1   1   6    1.34    0.61   1-0.55501-0.38855 0.55858 0.25546 0.61640 0.88530
  -1  -1  -6    1.37    0.43   1-0.66887-0.83576-0.02768 0.27589 0.74286 0.47474
  -1  -1  -6    1.43    0.44   1-0.34889-0.51553-0.85329-0.55029-0.38749-0.65680
   1   1   6    1.43    0.43   1-0.56093-0.39429-0.54519-0.84820-0.62298-0.35366
   1   1   7    4.39    0.84   1-0.51523-0.34246 0.63803 0.29415 0.57222 0.89229
  -1  -1  -7    4.33    0.75   1-0.66908-0.84232-0.01167 0.33281 0.74309 0.42394
  -1  -1  -7    4.14    0.72   1-0.32883-0.50184-0.87091-0.52717-0.36521-0.68574
   1   1   7    4.57    0.58   1-0.57285-0.40007-0.51677-0.86049-0.63622-0.31542
   1   1   8    6.95    0.96   1-0.47650-0.29741 0.70205 0.31741 0.52920 0.90043
  -1  -1  -8    6.05    0.83   1-0.66909-0.84868-0.01033 0.37505 0.74310 0.37291
  -1  -1  -8    7.34    0.69   1-0.30779-0.48716-0.88792-0.50345-0.34184-0.71358
   1   1   8    7.63    0.80   1-0.58454-0.40542-0.48667-0.87109-0.64919-0.27716
   1   1   9   23.09    1.87   1-0.43854-0.25314 0.75528 0.32988 0.48705 0.90944
  -1  -1  -9   21.18    1.51   1-0.66900-0.85494-0.01944 0.40684 0.74300 0.32178
  -1  -1  -9   23.70    1.67   1-0.28583-0.47156-0.90416-0.47896-0.31745-0.74041
   1   1   9   23.40    1.54   1-0.59583-0.41038-0.45505-0.88017-0.66174-0.23847
   1   1  10   16.59    1.35   1-0.40099-0.20927 0.80054 0.33437 0.44534 0.91891
  -1  -1 -10   14.24    1.14   1-0.66868-0.86098-0.03638 0.43081 0.74265 0.27039
  -1  -1 -10   15.81    1.18   1-0.26299-0.45508-0.91952-0.45358-0.29208-0.76626
   1   1  10   16.22    1.24   1-0.60663-0.41485-0.42198-0.88780-0.67373-0.19923
   1   1  11   13.61    1.16   1-0.36348-0.16545 0.83959 0.33265 0.40369 0.92842
  -1  -1 -11   12.58    1.02   1-0.66794-0.86659-0.05947 0.44862 0.74182 0.21853
   1   1  11   13.36    0.94   1-0.61685-0.41874-0.38749-0.89401-0.68508-0.15935
   1   1  12   38.86    2.04   1-0.32567-0.12133 0.87355 0.32585 0.36170 0.93760
  -1  -1 -12   38.78    1.79   1-0.66655-0.87155-0.08763 0.46136 0.74028 0.16596
   1   1  12   40.02    1.49   1-0.62641-0.42196-0.35158-0.89880-0.69570-0.11873
   1   1  13    2.00    1.08   1-0.28726-0.07659 0.90316 0.31469 0.31903 0.94609
  -1  -1 -13    2.39    0.73   1-0.66428-0.87562-0.12017 0.46972 0.73775 0.11239
   1   1  13    2.84    0.60   1-0.63524-0.42446-0.31421-0.90213-0.70550-0.07730
   1   2 -14   10.47    1.50   1-0.63283-0.51872 0.32489 0.85446 0.70282-0.02836
   1   2 -14    9.60    2.19   1 0.11058 0.22923-0.98624-0.46255-0.12281-0.85644
  -1  -2  14   10.97    1.02   1-0.66578-0.77998-0.09989-0.62576-0.73942-0.00565
   1   2 -13   20.87    2.28   1-0.61952-0.49906 0.37785 0.86652 0.68805 0.00789
   1   2 -13   22.04    2.51   1 0.13186 0.25651-0.98038-0.49724-0.14645-0.82882
  -1  -2  13   19.97    2.09   1-0.66312-0.78366-0.13366-0.61884-0.73647-0.05393
   1   2 -12    4.65    1.52   1-0.60412-0.47731 0.42997 0.87773 0.67094 0.04181
   1   2 -12    6.30    1.00   1 0.15098 0.28163-0.97421-0.53162-0.16768-0.79878
  -1  -2  12    4.78    0.85   1-0.66005-0.78692-0.16412-0.60860-0.73306-0.10176
   1   2 -11   22.73    1.84   1-0.58646-0.45330 0.48147 0.88833 0.65133 0.07324
   1   2 -11   24.84    2.12   1 0.16773 0.30437-0.96807-0.56604-0.18628-0.76612
  -1  -2  11   22.34    1.75   1-0.65683-0.79003-0.19079-0.59456-0.72949-0.14942
   1   2 -10   39.56    1.96   1-0.56513-0.42546 0.53543 0.89951 0.62764 0.09919
   1   2 -10   40.10    2.22   1 0.18181 0.32446-0.96237-0.60090-0.20192-0.73050
   1   2 -10   40.41    1.93   1-0.26434-0.12513-0.91865-0.55499-0.29357-0.82239
  -1  -2  10   34.26    1.63   1-0.65379-0.79332-0.21287-0.57594-0.72611-0.19727
   1   2  -9   32.19    1.80   1-0.54200-0.39602 0.58641 0.90973 0.60195 0.12466
   1   2  -9   31.29    1.55   1 0.19278 0.34142-0.95759-0.63668-0.21410-0.69142
   1   2  -9   34.03    1.59   1-0.29425-0.14868-0.89811-0.57517-0.32680-0.80440
   1   2  -8   24.23    1.45   1-0.51548-0.36318 0.63758 0.92014 0.57250 0.14638
   1   2  -8   23.61    1.21   1 0.19994 0.35459-0.95431-0.67395-0.22206-0.64811
   1   2  -8   25.19    1.26   1-0.32481-0.17288-0.87427-0.59207-0.36074-0.78712
   1   2  -7   11.48    0.92   1-0.48478-0.32617 0.68927 0.93107 0.53840 0.16345
   1   2  -7   11.17    0.85   1 0.20227 0.36292-0.95321-0.71340-0.22465-0.59944
   1   2  -7   10.90    0.75   1-0.35687-0.19857-0.84590-0.60443-0.39634-0.77151
  -1  -2   7    7.24    0.64   1-0.65080-0.80933-0.23242-0.47340-0.72279-0.34766
   1   2  -6   13.18    0.94   1-0.44870-0.28377 0.74184 0.94287 0.49833 0.17454
   1   2  -6   13.02    0.86   1 0.19818 0.36482-0.95513-0.75588-0.22010-0.54363
   1   2  -6   12.53    0.88   1-0.39204-0.22739-0.81037-0.60963-0.43541-0.75936
  -1  -2   6   10.43    0.69   1-0.65463-0.81949-0.20704-0.40731-0.72704-0.40314
   1   2  -5  227.30    5.97   1-0.40539-0.23415 0.79557 0.95583 0.45024 0.17762
   1   2  -5  216.38    5.55   1 0.18512 0.35776-0.96096-0.80227-0.20559-0.47786
   1   2  -5  208.93    5.36   1-0.43379-0.26277-0.76138-0.60137-0.48177-0.75451
  -1  -2   5  212.50    5.30   1-0.66236-0.83356-0.14181-0.30138-0.73563-0.46296
   1   2  -4    5.44    0.62   1-0.35195-0.17440 0.85048 0.96998 0.39089 0.16943
   1   2  -4    5.06    0.56   1 0.15892 0.33756-0.97138-0.85324-0.17650-0.39751
   1   2  -4    4.47    0.44   1-0.49080-0.31342-0.67969-0.56041-0.54509-0.76661
  -1  -2   4    4.62    0.51   1-0.66907-0.84659 0.01325-0.10562-0.74307-0.52164
   1   2  -3   28.25    1.37   1-0.28368-0.09980 0.90568 0.98441 0.31506 0.14477
   1   2  -3   27.05    1.31   1 0.11258 0.29722-0.98574-0.90816-0.12503-0.29478
   1   2  -3   26.52    1.00   1-0.58723-0.40338-0.47936-0.40119-0.65219-0.82239
  -1  -2   3   27.84    1.29   1-0.60893-0.79348 0.41452 0.33748-0.67628-0.50644
   1   2  -2    3.09    0.39   1 0.03407 0.22475-0.99870-0.96177-0.03783-0.15641
  -1  -2   2    3.41    0.44   1 0.19045-0.00018-0.95863-0.99566-0.21151-0.09303
   1   2  -2    3.62    0.49   1-0.63457-0.44396 0.31719 0.35372-0.70476-0.82327
  -1  -2   2    3.07    0.51   1-0.16174-0.35236 0.97034 0.93385-0.17963-0.06125
   1   2  -1   73.28    2.11   1-0.09286 0.10384-0.99032-0.99394 0.10313 0.03586
  -1  -2   1   75.35    2.55   1 0.06635-0.13035-0.99507-0.99144-0.07369-0.00641
   1   2  -1   78.93    2.28   1-0.14409 0.05253 0.97653 0.97243-0.16003-0.22716
   1   2   0    4.18    0.44   1-0.28015-0.07741-0.90813-0.95230 0.31113 0.29516
  -1  -2   0    4.50    0.44   1-0.09988-0.30262-0.98879-0.94462 0.11093 0.12691
   1   2   0    4.37    0.53   1-0.32459-0.12176-0.87445-0.91810-0.36050-0.37716
   1   2   1   11.67    0.66   1-0.49134-0.28248-0.67882-0.76336 0.54568 0.58092
  -1  -2  -1   12.52    0.82   1-0.29510-0.50387-0.89749-0.81277 0.32774 0.29243
   1   2   1   12.55    0.86   1-0.38422-0.17502-0.81870-0.90308-0.42672-0.39217
   1   2   2   36.35    1.46   1-0.63297-0.41805-0.32425-0.44938 0.70299 0.78947
  -1  -2  -2   36.54    1.50   1-0.46514-0.68006-0.71886-0.59372 0.51660 0.43011
  -1  -2  -2   35.74    1.54   1-0.25931-0.47487-0.92185-0.79674-0.28799-0.37376
   1   2   2   35.26    1.64   1-0.42344-0.20788-0.77429-0.89940-0.47028-0.38451
   1   2   3   67.33    2.40   1-0.66912-0.44705 0.00282-0.16295 0.74314 0.87953
  -1  -2  -3   65.10    1.99   1-0.57085-0.79184-0.52169-0.35596 0.63400 0.49625
  -1  -2  -3   61.93    2.24   1-0.27616-0.49808-0.91085-0.74501-0.30671-0.44369
   1   2   3   58.87    1.97   1-0.45361-0.23169-0.73513-0.90098-0.50379-0.36681
   1   2   4   75.01    2.72   1-0.64769-0.41927 0.25106 0.04437 0.71934 0.90677
  -1  -2  -4   69.63    2.29   1-0.62259-0.84964-0.36642-0.16009 0.69145 0.50246
  -1  -2  -4   62.59    2.48   1-0.28013-0.50841-0.90814-0.70157-0.31111-0.49931
   1   2   4   62.86    2.36   1-0.47883-0.25055-0.69849-0.90507-0.53180-0.34361
   1   2   5   70.30    2.42   1-0.60614-0.37136 0.42356 0.17597 0.67319 0.91165
  -1  -2  -5   67.92    2.11   1-0.64570-0.87883-0.26226-0.01533 0.71713 0.47688
  -1  -2  -5   65.85    2.14   1-0.27655-0.51120-0.91059-0.66328-0.30714-0.54655
   1   2   5   63.23    1.77   1-0.50092-0.26628-0.66299-0.91030-0.55633-0.31692
   1   2   6   64.77    2.67   1-0.55922-0.31850 0.54910 0.26096 0.62108 0.91128
  -1  -2  -6   60.19    2.27   1-0.65451-0.89564-0.20787 0.08060 0.72691 0.43740
  -1  -2  -6   64.65    2.43   1-0.26810-0.50911-0.91622-0.62818-0.29775-0.58838
   1   2   6   59.87    2.21   1-0.52079-0.27978-0.62787-0.91592-0.57839-0.28777
   1   2   7   17.37    1.33   1-0.51374-0.26671 0.64071 0.31180 0.57057 0.91194
  -1  -2  -7   16.17    1.02   1-0.65914-0.90662-0.17210 0.15728 0.73205 0.39151
  -1  -2  -7   18.14    1.03   1-0.25620-0.50357-0.92379-0.59502-0.28454-0.62638
   1   2   7   17.40    0.96   1-0.53894-0.29156-0.59268-0.92145-0.59855-0.25671
   1   2   8    7.14    0.93   1-0.46977-0.21642 0.71211 0.34244 0.52173 0.91427
  -1  -2  -8    6.24    0.70   1-0.66093-0.91476-0.15602 0.21427 0.73404 0.34247
  -1  -2  -8    7.73    0.76   1-0.24171-0.49545-0.93247-0.56296-0.26845-0.66150
   1   2   8    7.29    0.65   1-0.55566-0.30193-0.55711-0.92662-0.61713-0.22407
   1   2   9   13.18    1.19   1-0.42711-0.16744 0.76977 0.35934 0.47435 0.91805
  -1  -2  -9   12.05    0.91   1-0.66113-0.92132-0.15410 0.25709 0.73426 0.29166
   1   2   9   12.72    0.87   1-0.57116-0.31131-0.52094-0.93117-0.63434-0.18973
   1   2  10    5.30    0.96   1-0.38529-0.11931 0.81757 0.36638 0.42791 0.92278
  -1  -2 -10    4.96    0.84   1-0.66021-0.92674-0.16273 0.28936 0.73323 0.23959
   1   2  10    6.19    0.75   1-0.58551-0.31934-0.48404-0.93497-0.65028-0.15444
   1   2  11    6.25    1.04   1-0.34382-0.07152 0.85788 0.36592 0.38185 0.92789
  -1  -2 -11    5.92    1.01   1-0.65825-0.93114-0.17957 0.31342 0.73106 0.18638
   1   2  11    6.06    0.79   1-0.59881-0.32630-0.44624-0.93787-0.66504-0.11796
   1   2  12    1.62    0.70   1-0.30223-0.02361 0.89218 0.35945 0.33566 0.93286
  -1  -2 -12    1.22    0.61   1-0.65518-0.93442-0.20308 0.33081 0.72765 0.13194
   1   2  12    1.68    0.70   1-0.61107-0.33222-0.40744-0.93976-0.67866-0.08035
   1   2  13    0.81    0.74   1-0.26007 0.02486 0.92137 0.34788 0.28884 0.93720
  -1  -2 -13    0.94    0.69   1-0.65237-0.93404-0.22235 0.34935 0.72454 0.07426
   1   2  13    1.36    0.59   1-0.62230-0.33713-0.36750-0.94053-0.69113-0.04159
   1   3 -14    6.18    1.27   1-0.62567-0.43732 0.35451 0.89917 0.69487-0.01493
   1   3 -14    8.55    1.34   1 0.11523 0.30810-0.98505-0.44645-0.12797-0.84009
  -1  -3  14    5.88    0.76   1-0.66888-0.85748 0.02716-0.51360-0.74287-0.03044
   1   3 -13    2.55    0.82   1-0.61184-0.41714 0.40483 0.90860 0.67952 0.02074
   1   3 -13    2.71    0.85   1 0.13473 0.33361-0.97951-0.48146-0.14964-0.81049
  -1  -3  13    1.89    0.88   1-0.66912-0.86406 0.00339-0.49667-0.74314-0.08194
   1   3 -12   11.66    1.31   1-0.59613-0.39509 0.45417 0.91703 0.66207 0.05433
   1   3 -12   12.85    1.39   1 0.15205 0.35692-0.97384-0.51634-0.16887-0.77845
   1   3 -12   14.63    1.42   1-0.24415-0.04330-0.93105-0.47095-0.27116-0.88109
  -1  -3  12    8.41    1.09   1-0.66905-0.87032-0.01478-0.47415-0.74306-0.13310
   1   3 -11   -0.62    0.96   1-0.57843-0.37103 0.50269 0.92465 0.64242 0.08571
   1   3 -11   -0.36    0.94   1 0.16696 0.37783-0.96837-0.55142-0.18542-0.74375
   1   3 -11    0.32    0.75   1-0.27953-0.07232-0.90855-0.48919-0.31045-0.86917
  -1  -3  11    0.00    0.49   1-0.66890-0.87650-0.02611-0.44477-0.74289-0.18416
   1   3 -10   -0.06    0.64   1-0.55730-0.34337 0.55346 0.93252 0.61894 0.11180
   1   3 -10   -0.20    0.87   1 0.17914 0.39601-0.96349-0.58710-0.19896-0.70602
   1   3 -10    0.01    0.46   1-0.31578-0.10221-0.88163-0.50299-0.35071-0.85822
  -1  -3  10   -0.15    0.44   1-0.66885-0.88278-0.02859-0.40656-0.74284-0.23535
   1   3  -9    0.11    0.59   1-0.53489-0.31464 0.60081 0.93911 0.59406 0.13808
   1   3  -9   -0.10    0.56   1 0.18814 0.41101-0.95965-0.62382-0.20895-0.66476
   1   3  -9    0.11    0.40   1-0.35372-0.13378-0.84885-0.51095-0.39284-0.84913
  -1  -3   9    0.06    0.46   1-0.66900-0.88927-0.01905-0.35632-0.74300-0.28675
   1   3  -8    9.55    1.06   1-0.50969-0.28313 0.64789 0.94542 0.56607 0.16126
   1   3  -8   10.17    0.84   1 0.19328 0.42215-0.95737-0.66209-0.21466-0.61920
   1   3  -8    9.81    0.69   1-0.39454-0.16824-0.80767-0.51049-0.43818-0.84325
  -1  -3   8    7.40    0.73   1-0.66911-0.89570 0.00777-0.28878-0.74312-0.33810
   1   3  -7    5.03    0.83   1-0.48117-0.24829 0.69490 0.95167 0.53439 0.18074
   1   3  -7    5.10    0.67   1 0.19355 0.42842-0.95724-0.70253-0.21496-0.56824
   1   3  -7    4.79    0.52   1-0.44019-0.20753-0.75314-0.49669-0.48888-0.84274
  -1  -3   7    4.34    0.49   1-0.66788-0.90081 0.06091-0.19494-0.74176-0.38797
   1   3  -6   24.49    1.27   1-0.44854-0.20934 0.74206 0.95806 0.49815 0.19567
   1   3  -6   22.92    1.11   1 0.18746 0.42833-0.95995-0.74579-0.20820-0.51022
   1   3  -6   22.19    1.04   1-0.49378-0.25475-0.67486-0.45915-0.54839-0.85104
  -1  -3   6   22.47    1.10   1-0.66092-0.90018 0.15610-0.05905-0.73403-0.43148
   1   3  -5   61.08    2.39   1-0.41064-0.16512 0.78954 0.96478 0.45606 0.20474
   1   3  -5   57.44    2.16   1 0.17272 0.41959-0.96610-0.79250-0.19182-0.44258
   1   3  -5   55.42    1.84   1-0.55951-0.31412-0.54845-0.37347-0.62140-0.87283
   1   3  -4   75.43    2.76   1-0.36571-0.11389 0.83742 0.97189 0.40617 0.20602
   1   3  -4   76.29    2.56   1 0.14572 0.39858-0.97599-0.84294-0.16184-0.36133
   1   3  -4   73.09    2.17   1-0.63559-0.38367-0.31259-0.17882-0.70590-0.90598
  -1  -3   4   74.17    2.52   1-0.54242-0.79523 0.58555 0.45320-0.60241-0.40274
   1   3  -3   93.02    2.90   1-0.31108-0.05294 0.88536 0.97907 0.34549 0.19650
   1   3  -3   91.82    2.56   1 0.10075 0.35961-0.98859-0.89610-0.11190-0.26012
   1   3  -3   94.78    2.51   1-0.66273-0.40447 0.13794 0.23101-0.73604-0.88489
  -1  -3   3   89.97    2.74   1-0.32981-0.58872 0.87008 0.77830-0.36629-0.21825
   1   3  -2   75.07    2.47   1-0.24256 0.02189 0.93197 0.98492 0.26939 0.17158
   1   3  -2   76.16    2.23   1 0.02848 0.29344-0.99909-0.94726-0.03163-0.12876
   1   3  -2   76.31    2.38   1-0.48593-0.22098 0.68747 0.73878-0.53968-0.63668
  -1  -3   2   77.49    2.88   1-0.06273-0.32764 0.99559 0.94441-0.06967 0.02712
   1   3  -1   81.09    2.24   1-0.08274 0.18823-0.99232-0.98104 0.09190 0.04606
  -1  -3   1   87.90    2.53   1 0.15196-0.11889-0.97386-0.98525-0.16877-0.12306
   1   3  -1   82.81    2.53   1-0.21700 0.05391 0.94595 0.95654-0.24100-0.28655
   1   3   0   70.13    2.04   1-0.24383 0.03317-0.93124-0.96050 0.27080 0.27626
  -1  -3   0   74.64    2.32   1 0.03537-0.24163-0.99860-0.96933-0.03929-0.04475
   1   3   0   76.84    2.31   1-0.03122 0.24569 0.99891 0.96891-0.03467-0.02897
   1   3   1   62.42    2.01   1-0.43890-0.15579-0.75481-0.82439 0.48745 0.54414
  -1  -3  -1   64.05    2.07   1-0.11236-0.39540-0.98580-0.91598 0.12479 0.06803
   1   3   1   65.07    2.18   1-0.30637-0.02281-0.88901-0.95843-0.34026-0.28440
   1   3   2   33.28    1.30   1-0.60179-0.31261-0.43720-0.54737 0.66835 0.77630
  -1  -3  -2   32.77    1.30   1-0.27669-0.56576-0.91049-0.80013 0.30730 0.19924
   1   3   2   34.60    1.44   1-0.35900-0.06908-0.84388-0.95402-0.39871-0.29164
   1   3   3   25.40    1.25   1-0.66663-0.37031-0.08636-0.23704 0.74036 0.89815
  -1  -3  -3   23.03    0.97   1-0.42002-0.71526-0.77844-0.62766 0.46648 0.30728
   1   3   3   25.22    1.10   1-0.39987-0.10358-0.80179-0.95266-0.44410-0.28582
   1   3   4   17.44    1.00   1-0.65465-0.35198 0.20690 0.01531 0.72706 0.93588
  -1  -3  -4   16.06    0.89   1-0.51867-0.81998-0.63177-0.44040 0.57604 0.36559
   1   3   4   15.62    0.98   1-0.43349-0.13084-0.76176-0.95337-0.48144-0.27194
   1   3   5    0.85    0.52   1-0.60930-0.30028 0.41330 0.18081 0.67670 0.93655
  -1  -3  -5    0.84    0.41   1-0.57604-0.88342-0.50879-0.27682 0.63976 0.37805
   1   3   5    0.74    0.40   1-0.46227-0.15325-0.72299-0.95533-0.51340-0.25269
   1   3   6    2.33    0.61   1-0.55493-0.23995 0.55873 0.28557 0.61632 0.92783
  -1  -3  -6    2.09    0.51   1-0.60720-0.92065-0.42014-0.14758 0.67436 0.36140
   1   3   6    2.07    0.48   1-0.48757-0.17219-0.68486-0.95793-0.54150-0.22957
   1   3   7    8.55    0.80   1-0.50199-0.18069 0.66118 0.34726 0.55752 0.92019
  -1  -3  -7    8.22    0.64   1-0.62372-0.94323-0.36210-0.04894 0.69271 0.32849
   1   3   7    8.59    0.83   1-0.51023-0.18849-0.64694-0.96075-0.56667-0.20352
   1   3   8    0.13    0.50   1-0.45146-0.12384 0.73808 0.38339 0.50140 0.91524
  -1  -3  -8    0.00    0.55   1-0.63212-0.95770-0.32794 0.02581 0.70204 0.28657
   1   3   8    0.09    0.46   1-0.53077-0.20267-0.60892-0.96346-0.58948-0.17512
   1   3   9    1.54    0.58   1-0.40311-0.06918 0.79815 0.40269 0.44770 0.91271
  -1  -3  -9    1.12    0.46   1-0.63576-0.96741-0.31183 0.08252 0.70608 0.23936
   1   3   9    1.61    0.73   1-0.54953-0.21506-0.57054-0.96581-0.61031-0.14474
   1   3  10    3.39    0.68   1-0.35624-0.01599 0.84649 0.41027 0.39565 0.91182
  -1  -3 -10    2.73    0.55   1-0.63627-0.97399-0.30950 0.12545 0.70665 0.18867
   1   3  10    3.52    0.60   1-0.56674-0.22591-0.53161-0.96761-0.62943-0.11264
   1   3  11    6.79    0.89   1-0.31010 0.03646 0.88612 0.40914 0.34440 0.91174
  -1  -3 -11    5.24    0.73   1-0.63440-0.97818-0.31797 0.15757 0.70457 0.13534
   1   3  11    6.33    0.93   1-0.58257-0.23566-0.49191-0.96865-0.64701-0.07858
   1   3  12    4.73    0.86   1-0.26398 0.08889 0.91888 0.40113 0.29319 0.91169
  -1  -3 -12    4.80    0.96   1-0.63041-0.98026-0.33522 0.18092 0.70014 0.07965
   1   3  12    6.58    0.84   1-0.59707-0.24383-0.45140-0.96884-0.66312-0.04346
   1   4 -13    4.73    1.47   1-0.60673-0.33780 0.42165 0.94051 0.67385 0.03646
   1   4 -13    4.35    1.14   1 0.13189 0.40498-0.98038-0.46741-0.14647-0.78581
   1   4 -13    6.53    0.96   1-0.24215 0.02670-0.93222-0.41642-0.26893-0.90877
  -1  -4  13    2.26    0.87   1-0.66058-0.92991 0.15934-0.35561-0.73364-0.09380
   1   4 -12   20.87    1.53   1-0.59125-0.31596 0.46821 0.94616 0.65665 0.07030
   1   4 -12   22.45    1.29   1 0.14735 0.42644-0.97545-0.50304-0.16365-0.75172
   1   4 -11   27.58    1.94   1-0.57407-0.29243 0.51375 0.95080 0.63757 0.10225
   1   4 -11   30.95    1.78   1 0.16033 0.44542-0.97086-0.53901-0.17807-0.71488
   1   4 -10    7.06    1.11   1-0.55374-0.26555 0.56136 0.95540 0.61500 0.12915
   1   4 -10    6.41    1.01   1 0.17050 0.46159-0.96698-0.57569-0.18936-0.67491
   1   4 -10    8.55    0.78   1-0.36623-0.07828-0.83692-0.44331-0.40674-0.89293
  -1  -4  10    4.33    0.85   1-0.65799-0.94632 0.18164-0.21121-0.73078-0.24463
   1   4  -9   36.39    1.89   1-0.53268-0.23816 0.60518 0.95846 0.59160 0.15692
   1   4  -9   36.01    1.85   1 0.17737 0.47446-0.96422-0.61348-0.19699-0.63128
   1   4  -9   40.35    1.85   1-0.41215-0.11785-0.78777-0.43490-0.45774-0.89273
   1   4  -8   46.73    2.28   1-0.50943-0.20860 0.64835 0.96086 0.56578 0.18227
   1   4  -8   44.04    1.99   1 0.18026 0.48335-0.96302-0.65284-0.20020-0.58323
   1   4  -8   44.34    1.84   1-0.46241-0.16174-0.72279-0.41065-0.51356-0.89733
   1   4  -7   62.19    2.29   1-0.48368-0.17653 0.69099 0.96274 0.53718 0.20484
   1   4  -7   58.69    2.23   1 0.17820 0.48729-0.96388-0.69425-0.19791-0.52967
   1   4  -7   58.79    2.08   1-0.51848-0.21145-0.63213-0.36072-0.57583-0.90838
   1   4  -6   21.39    1.33   1-0.45498-0.14151 0.73324 0.96422 0.50530 0.22413
   1   4  -6   21.15    1.27   1 0.16973 0.48482-0.96729-0.73821-0.18851-0.46901
   1   4  -6   22.07    1.24   1-0.58051-0.26686-0.49730-0.26724-0.64473-0.92593
   1   4  -5   10.07    1.01   1-0.42267-0.10289 0.77523 0.96545 0.46942 0.23941
   1   4  -5   10.62    0.80   1 0.15276 0.47385-0.97359-0.78507-0.16966-0.39890
   1   4  -5   10.12    0.62   1-0.64117-0.32118-0.28602-0.09666-0.71209-0.94207
  -1  -4   5    9.96    0.69   1-0.48963-0.81071 0.68157 0.49392-0.54379-0.31428
   1   4  -4   35.87    1.94   1-0.38580-0.05970 0.81704 0.96649 0.42847 0.24962
   1   4  -4   34.02    1.57   1 0.12409 0.45117-0.98265-0.83469-0.13781-0.31579
   1   4  -4   33.53    1.38   1-0.66872-0.34239 0.03501 0.18367-0.74268-0.92142
  -1  -4   4   32.63    1.51   1-0.34979-0.67695 0.85247 0.70533-0.38849-0.21031
   1   4  -3  124.20    4.20   1-0.34295-0.01054 0.85866 0.96735 0.38088 0.25320
   1   4  -3  120.17    3.47   1 0.07846 0.41167-0.99309-0.88581-0.08714-0.21413
   1   4  -3  119.32    3.51   1-0.60198-0.26877 0.43659 0.54321-0.66857-0.79541
  -1  -4   3  113.72    4.24   1-0.17439-0.50759 0.96543 0.85897-0.19368-0.06721
   1   4  -2    0.06    0.48   1-0.29199 0.04673 0.89976 0.96768 0.32428 0.24777
   1   4  -2    0.13    0.37   1 0.00968 0.34891-0.99989-0.93316-0.01075-0.08643
   1   4  -2    0.14    0.22   1-0.44000-0.10072 0.75338 0.81948-0.48867-0.56417
  -1  -4   2    0.21    0.33   1-0.01305-0.35225 0.99980 0.93393-0.01450 0.06071
   1   4  -1   14.93    0.85   1-0.09212 0.25312-0.99047-0.96428 0.10232 0.07793
   1   4  -1   14.70    0.84   1-0.26196 0.08323 0.92018 0.94546-0.29093-0.31490
   1   4   0    2.92    0.41   1-0.23524 0.11603-0.93616-0.95051 0.26127 0.28817
  -1  -4   0    3.37    0.46   1 0.15014-0.20094-0.97450-0.96023-0.16674-0.19382
   1   4   0    3.20    0.52   1-0.12350 0.22769 0.98281 0.96751-0.13717-0.10988
   1   4   1   15.16    0.78   1-0.41189-0.05452-0.78808-0.84270 0.45745 0.53561
  -1  -4  -1   15.97    1.04   1 0.05046-0.30684-0.99715-0.94224-0.05604-0.13425
   1   4   1   15.24    0.92   1-0.26698 0.09094-0.91695-0.97139-0.29651-0.21935
   1   4   1   15.50    0.86   1-0.02834 0.32885 0.99910 0.94320-0.03148 0.04705
   1   4   2    2.33    0.38   1-0.57784-0.21440-0.50422-0.59943 0.64175 0.77116
  -1  -4  -2    2.50    0.37   1-0.07263-0.43597-0.99409-0.89863 0.08066-0.04883
   1   4   2    2.52    0.42   1-0.32088 0.04341-0.87751-0.97269-0.35637-0.22799
   1   4   2    2.18    0.39   1 0.03414 0.39735 0.99869 0.90221 0.03792 0.16771
   1   4   3   12.89    0.85   1-0.66204-0.29148-0.14519-0.28078 0.73527 0.91443
  -1  -4  -3   13.57    0.78   1-0.20968-0.57905-0.94963-0.81362 0.23288 0.05208
   1   4   3   12.74    0.79   1-0.36481 0.00583-0.83829-0.97420-0.40517-0.22557
   1   4   4   38.82    1.95   1-0.65700-0.28009 0.18949 0.01299 0.72968 0.95988
  -1  -4  -4   35.51    1.67   1-0.33666-0.71205-0.86420-0.68765 0.37390 0.14180
   1   4   4   35.94    1.58   1-0.40189-0.02487-0.79953-0.97617-0.44634-0.21553
   1   4   5   10.70    0.96   1-0.60361-0.22035 0.43154 0.21414 0.67038 0.95162
  -1  -4  -5   10.12    0.74   1-0.43273-0.81437-0.76273-0.54572 0.48060 0.19743
   1   4   5    8.98    0.81   1-0.43401-0.05062-0.76111-0.97848-0.48201-0.19999
   1   4   6   26.51    1.46   1-0.53721-0.14795 0.59618 0.33799 0.59663 0.92944
  -1  -4  -6   23.84    1.17   1-0.49729-0.88499-0.66908-0.41147 0.55229 0.21787
   1   4   6   22.64    1.23   1-0.46239-0.07264-0.72281-0.98092-0.51354-0.18030
   1   4   7   29.59    2.03   1-0.47343-0.07785 0.70668 0.40772 0.52579 0.90977
  -1  -4  -7   26.38    1.67   1-0.53718-0.93096-0.59622-0.29802 0.59660 0.21092
   1   4   7   28.07    1.83   1-0.48784-0.09173-0.68443-0.98327-0.54180-0.15735
   1   4   8   21.98    1.41   1-0.41411-0.01222 0.78548 0.44576 0.45992 0.89506
  -1  -4  -8   18.18    1.06   1-0.56071-0.96055-0.54571-0.20691 0.62273 0.18580
   1   4   8   21.20    1.33   1-0.51090-0.10843-0.64576-0.98533-0.56741-0.13175
   1   4   9    7.89    0.84   1-0.35856 0.04964 0.84430 0.46382 0.39822 0.88453
  -1  -4  -9    5.63    0.64   1-0.57362-0.97952-0.51488-0.13548 0.63707 0.14888
   1   4   9    7.64    0.76   1-0.53194-0.12311-0.60663-0.98693-0.59078-0.10390
   1   4  10    1.27    0.62   1-0.30544 0.10907 0.88973 0.46848 0.33923 0.87671
  -1  -4 -10    0.99    0.66   1-0.57934-0.99132-0.50034-0.08035 0.64343 0.10399
   1   4  10    1.03    0.78   1-0.55122-0.13602-0.56689-0.98793-0.61219-0.07409
   1   4  11    1.65    0.50   1-0.25493 0.16505 0.92457 0.46349 0.28313 0.87058
   1   4  11    4.48    0.66   1-0.56891-0.14736-0.52640-0.98816-0.63184-0.04253
   1   4  12    2.72    0.77   1-0.58519-0.15755-0.48492-0.98746-0.64992-0.00891
   1   5 -13    8.83    1.44   1-0.60416-0.26098 0.42982 0.96377 0.67099 0.05499
   1   5 -13    9.80    1.43   1 0.12407 0.47139-0.98265-0.45477-0.13779-0.75562
   1   5 -13   12.02    1.39   1-0.27255 0.07066-0.91328-0.38251-0.30270-0.92124
   1   5 -12   10.28    1.37   1-0.58931-0.23978 0.47364 0.96668 0.65449 0.08953
   1   5 -12   12.83    1.55   1 0.13764 0.49096-0.97861-0.49129-0.15287-0.71943
   1   5 -12   16.28    1.80   1-0.31779 0.03178-0.88001-0.38998-0.35295-0.92027
   1   5 -11    4.61    0.91   1-0.57305-0.21717 0.51627 0.96841 0.63644 0.12251
   1   5 -11    3.47    0.76   1 0.14864 0.50796-0.97501-0.52824-0.16508-0.68038
   1   5 -11    5.01    0.77   1-0.36470-0.00875-0.83840-0.38910-0.40504-0.92115
   1   5 -10   18.26    1.75   1-0.55399-0.19152 0.56083 0.96984 0.61527 0.15073
   1   5 -10   17.63    1.49   1 0.15671 0.52203-0.97218-0.56597-0.17405-0.63808
   1   5 -10   19.11    1.55   1-0.41409-0.05178-0.78550-0.37693-0.45989-0.92479
   1   5  -9   -0.11    0.66   1-0.53467-0.16589 0.60124 0.96949 0.59382 0.18044
   1   5  -9    0.34    0.60   1 0.16135 0.53267-0.97048-0.60483-0.17920-0.59197
   1   5  -9    0.18    0.57   1-0.46680-0.09812-0.71646-0.34862-0.51843-0.93211
   1   5  -8    0.47    0.88   1-0.51376-0.13866 0.64068 0.96816 0.57059 0.20838
   1   5  -8    0.40    0.69   1 0.16187 0.53918-0.97029-0.64520-0.17977-0.54128
   1   5  -8    0.23    0.34   1-0.52320-0.14816-0.62338-0.29627-0.58107-0.94353
   1   5  -7   -0.13    0.59   1-0.49110-0.10968 0.67921 0.96593 0.54542 0.23438
   1   5  -7   -0.03    0.50   1 0.15729 0.54061-0.97197-0.68743-0.17469-0.48494
   1   5  -7    0.04    0.40   1-0.58197-0.20025-0.49348-0.20783-0.64635-0.95744
   1   5  -6   14.64    1.15   1-0.46649-0.07876 0.71691 0.96287 0.51809 0.25821
   1   5  -6   14.40    0.92   1 0.14624 0.53556-0.97582-0.73183-0.16242-0.42141
   1   5  -6   14.40    0.74   1-0.63630-0.24825-0.30934-0.06439-0.70669-0.96655
  -1  -5   6   14.54    1.09   1-0.43884-0.82820 0.75489 0.51193-0.48739-0.22804
   1   5  -5    3.50    0.66   1-0.43965-0.04560 0.75384 0.95904 0.48828 0.27957
   1   5  -5    3.95    0.71   1 0.12674 0.52205-0.98189-0.77846-0.14076-0.34848
   1   5  -5    4.24    0.41   1-0.66803-0.27364-0.05734 0.14690-0.74192-0.95054
  -1  -5   5    4.04    0.57   1-0.33397-0.72945 0.86653 0.66418-0.37092-0.16353
   1   5  -4   17.33    1.09   1-0.41017-0.00981 0.79008 0.95451 0.45554 0.29800
   1   5  -4   17.47    0.98   1 0.09591 0.49723-0.98967-0.82679-0.10652-0.26299
   1   5  -4   16.77    0.94   1-0.64708-0.24559 0.25458 0.41651-0.71865-0.87532
  -1  -5   4   15.39    1.04   1-0.20941-0.61089 0.94976 0.78801-0.23257-0.07643
   1   5  -3   40.07    1.82   1-0.37747 0.02920 0.82568 0.94935 0.41922 0.31284
   1   5  -3   40.76    1.82   1 0.04917 0.45665-0.99729-0.87510-0.05461-0.16016
   1   5  -3   39.09    1.42   1-0.55947-0.15192 0.54854 0.66995-0.62135-0.72669
  -1  -5   3   37.69    1.80   1-0.08367-0.49115 0.99215 0.87099-0.09292 0.01196
   1   5  -2   39.88    1.81   1-0.34068 0.07230 0.86067 0.94357 0.37837 0.32316
   1   5  -2   40.75    1.40   1-0.01833 0.39516-0.99962-0.91798 0.02036-0.03388
   1   5  -2   38.62    1.54   1-0.43039-0.01677 0.76569 0.84658-0.47799-0.53199
  -1  -5   2   41.30    1.61   1 0.02731-0.38617 0.99916 0.91859 0.03033 0.08397
   1   5  -1   53.75    1.75   1-0.29852 0.12078 0.89496 0.93709 0.33154 0.32750
   1   5  -1   59.29    1.76   1-0.11438 0.30514-0.98527-0.94418 0.12704 0.12409
   1   5  -1   58.87    1.75   1-0.29881 0.12066 0.89474 0.93472-0.33186-0.33425
   1   5   0   43.68    1.52   1-0.24903 0.17659 0.92816 0.92953 0.27658 0.32370
   1   5   0   49.22    1.53   1-0.24528 0.18027-0.93038-0.92984 0.27241 0.32076
   1   5   0   49.36    1.56   1-0.18994 0.23554 0.95886 0.95825-0.21095-0.16209
   1   5   1   32.66    1.21   1-0.40627 0.02535-0.79457-0.83423 0.45121 0.55082
  -1  -5  -1   35.22    1.43   1 0.18884-0.24246-0.95934-0.91944-0.20973-0.30958
   1   5   1   31.33    1.26   1-0.25048 0.18181-0.92729-0.96676-0.27819-0.17972
   1   5   1   32.74    1.46   1-0.10739 0.32408 0.98703 0.94583-0.11927-0.01916
   1   5   2   47.39    1.34   1-0.56665-0.12895-0.53183-0.61209 0.62932 0.78020
  -1  -5  -2   49.20    1.80   1 0.11506-0.32224-0.98510-0.90464-0.12779-0.27890
   1   5   2   46.58    1.57   1-0.30129 0.13737-0.89289-0.97310-0.33461-0.18493
   1   5   2   44.16    1.54   1-0.04774 0.38974 0.99745 0.91565-0.05302 0.09833
   1   5   3   24.53    1.67   1-0.65966-0.21486-0.16756-0.28807 0.73263 0.93319
  -1  -5  -3   28.89    1.51   1 0.02359-0.42004-0.99937-0.87827-0.02620-0.22844
   1   5   3   26.74    1.47   1-0.34452 0.10049-0.85725-0.97819-0.38264-0.18173
   1   5   3   23.53    1.27   1-0.00594 0.43753 0.99996 0.87757-0.00660 0.19600
   1   5   4    8.35    0.70   1-0.65399-0.20284 0.21145 0.05005 0.72634 0.97793
  -1  -5  -4    8.46    0.70   1-0.08371-0.53337-0.99214-0.83049 0.09297-0.16056
   1   5   4    8.02    0.75   1-0.38208 0.06930-0.82094-0.98261-0.42434-0.17223
   1   5   4    5.67    0.56   1 0.02236 0.47185 0.99944 0.83646 0.02483 0.27870
   1   5   5   14.00    1.02   1-0.58095-0.12344 0.49617 0.29386 0.64521 0.94784
  -1  -5  -5   14.31    1.09   1-0.19425-0.64994-0.95693-0.75473 0.21574-0.08909
   1   5   5   12.59    0.87   1-0.41525 0.04249-0.78414-0.98654-0.46118-0.15785
   1   5   5   10.04    0.75   1 0.04052 0.49601 0.99816 0.79459 0.04500 0.35012
   1   5   6    7.17    0.90   1-0.49105-0.02752 0.67929 0.43608 0.54536 0.89948
  -1  -5  -6    7.38    0.92   1-0.29039-0.75211-0.90092-0.65817 0.32251-0.03362
   1   5   6    5.80    0.78   1-0.44494 0.01916-0.74688-0.99001-0.49415-0.13961
   1   5   7    1.11    0.46   1-0.40898 0.06085 0.79145 0.50748 0.45422 0.85951
  -1  -5  -7    1.02    0.41   1-0.36274-0.83048-0.84030-0.55701 0.40286-0.00457
   1   5   7    0.42    0.70   1-0.47179-0.00132-0.70911-0.99298-0.52398-0.11822
   1   5   8    1.26    0.64   1-0.33671 0.13944 0.86416 0.53942 0.37395 0.83041
  -1  -5  -8    1.07    0.44   1-0.41114-0.88524-0.78895-0.46511 0.45662-0.00177
   1   5   8    1.22    0.53   1-0.49627-0.01943-0.67076-0.99536-0.55117-0.09419
   1   5   9    5.16    0.73   1-0.27140 0.21106 0.91404 0.54853 0.30142 0.80904
  -1  -5  -9    5.19    0.68   1-0.44199-0.92216-0.75077-0.38634 0.49088-0.01876
   1   5   9    5.51    0.95   1-0.51870-0.03550-0.63172-0.99706-0.57607-0.06788
   1   5  10    0.45    0.56   1-0.53932-0.04975-0.59191-0.99797-0.59897-0.03957
   1   5  10    0.43    0.63   1 0.04295 0.52844 0.99793 0.59141 0.04770 0.60907
   1   5  11    0.60    0.57   1-0.55830-0.06237-0.55120-0.99800-0.62005-0.00943
   1   5  11    0.91    0.68   1 0.03258 0.52408 0.99881 0.55170 0.03619 0.64881
   1   6 -13    0.67    1.17   1-0.60396-0.18654 0.43045 0.97948 0.67077 0.07615
   1   6 -13    0.98    1.06   1 0.11183 0.53337-0.98593-0.44314-0.12420-0.72051
   1   6 -12    1.89    0.83   1-0.59005-0.16627 0.47159 0.97972 0.65531 0.11173
   1   6 -12    1.12    1.04   1 0.12349 0.55103-0.98282-0.48058-0.13715-0.68220
   1   6 -12    2.37    0.72   1-0.35015 0.07379-0.85214-0.34714-0.38888-0.93490
   1   6 -11    7.20    1.28   1-0.57502-0.14490 0.51137 0.97860 0.63862 0.14608
   1   6 -11    7.39    0.94   1 0.13247 0.56601-0.98020-0.51852-0.14712-0.64090
   1   6 -11    8.70    0.82   1-0.40269 0.02761-0.79863-0.33436-0.44724-0.94204
   1   6 -10   27.12    1.69   1-0.55751-0.12078 0.55297 0.97696 0.61918 0.17595
   1   6 -10   27.38    1.61   1 0.13838 0.57792-0.97838-0.55725-0.15369-0.59621
   1   6 -10   30.58    1.70   1-0.45757-0.02089-0.72964-0.30610-0.50818-0.95176
   1   6  -9   29.83    1.98   1-0.54021-0.09716 0.59008 0.97331 0.59996 0.20790
   1   6  -9   28.08    1.79   1 0.14072 0.58626-0.97763-0.59706-0.15628-0.54754
   1   6  -9   32.10    2.13   1-0.51464-0.07160-0.63909-0.25628-0.57157-0.96394
   1   6  -8    5.91    0.97   1-0.52183-0.07247 0.62593 0.96839 0.57955 0.23865
   1   6  -8    6.30    0.91   1 0.13878 0.59032-0.97825-0.63824-0.15413-0.49413
   1   6  -8    6.85    0.80   1-0.57228-0.12249-0.51818-0.17694-0.63558-0.97656
   1   6  -7   41.96    2.72   1-0.50238-0.04670 0.66052 0.96222 0.55795 0.26821
   1   6  -7   42.49    2.67   1 0.13160 0.58914-0.98046-0.68101-0.14616-0.43489
   1   6  -7   43.66    2.63   1-0.62512-0.16900-0.35666-0.05611-0.69427-0.98401
   1   6  -6   33.18    1.76   1-0.48183-0.01984 0.69387 0.95480 0.53513 0.29656
   1   6  -6   33.49    1.71   1 0.11784 0.58138-0.98436-0.72547-0.13088-0.36835
   1   6  -6   32.37    1.41   1-0.66178-0.19933-0.14775 0.11209-0.73498-0.97350
  -1  -6   6   33.13    1.60   1-0.30332-0.76709 0.89134 0.63372-0.33687-0.09981
   1   6  -5   64.87    2.30   1-0.46018 0.00813 0.72596 0.94613 0.51108 0.32368
   1   6  -5   67.71    2.34   1 0.09565 0.56518-0.98973-0.77138-0.10623-0.29244
   1   6  -5   63.57    2.26   1-0.66569-0.19690 0.10121 0.32035-0.73932-0.92660
  -1  -6   5   59.43    2.35   1-0.20892-0.67868 0.95000 0.73297-0.23203-0.04622
   1   6  -4   14.14    1.13   1-0.43739 0.03723 0.75678 0.93618 0.48577 0.34953
   1   6  -4   14.81    1.04   1 0.06193 0.53766-0.99570-0.81806-0.06878-0.20418
   1   6  -4   15.26    0.78   1-0.62251-0.14669 0.36671 0.54342-0.69137-0.82653
  -1  -6   4   14.58    1.36   1-0.11094-0.58671 0.98615 0.80971-0.12322 0.01133
   1   6  -3    9.12    0.82   1-0.41342 0.06752 0.78629 0.92493 0.45915 0.37407
   1   6  -3   10.13    0.78   1 0.01406 0.49581-0.99977-0.86268-0.01561-0.09971
   1   6  -3    9.72    0.71   1-0.53907-0.05718 0.59242 0.72861-0.59869-0.68252
  -1  -6   3    9.55    0.90   1-0.01812-0.49989 0.99963 0.86378-0.02012 0.06317
   1   6  -2   35.45    1.91   1-0.38823 0.09902 0.81446 0.91234 0.43118 0.39727
   1   6  -2   36.28    1.85   1-0.05326 0.43451-0.99682-0.90028 0.05915 0.02635
   1   6  -2   35.70    1.82   1-0.43551 0.05244 0.75919 0.85487-0.48368-0.51618
   1   6  -1   24.34    1.36   1-0.36178 0.13179 0.84123 0.89834 0.40180 0.41905
   1   6  -1   26.88    1.37   1-0.14581 0.34799-0.97596-0.91996 0.16194 0.18043
   1   6  -1   28.18    1.58   1-0.33207 0.16169 0.86816 0.92283-0.36880-0.34961
   1   6   0    1.00    0.53   1-0.33401 0.16588 0.86650 0.88285 0.37095 0.43937
   1   6   0    1.22    0.34   1-0.26831 0.23151-0.91607-0.90062 0.29800 0.36779
   1   6   0    1.43    0.42   1-0.24321 0.25655 0.93159 0.94568-0.27012-0.19967
   1   6   1    3.04    0.48   1-0.30487 0.20133 0.89016 0.86575 0.33860 0.45819
   1   6   1    3.53    0.42   1-0.41707 0.08880-0.78197-0.80667 0.46320 0.58428
   1   6   1    3.01    0.47   1-0.24792 0.25873-0.92882-0.95333-0.27535-0.15557
   1   6   1    3.25    0.62   1-0.17168 0.33408 0.96652 0.94001-0.19067-0.06897
   1   6   2    0.32    0.42   1-0.27439 0.23813 0.91205 0.84687 0.30474 0.47550
   1   6   2    0.43    0.26   1-0.56897-0.05702-0.52625-0.59155 0.63191 0.80424
   1   6   2    0.32    0.38   1-0.29439 0.21863-0.89801-0.96326-0.32695-0.15596
   1   6   2    0.37    0.53   1-0.11662 0.39514 0.98469 0.91759-0.12952 0.04341
   1   6   3    0.58    0.28   1-0.66185-0.14280-0.14707-0.25248 0.73506 0.95700
   1   6   3    0.64    0.59   1-0.33529 0.18409-0.86539-0.97136-0.37238-0.15017
   1   6   3    0.58    0.40   1-0.07560 0.44216 0.99359 0.88590-0.08396 0.14022
   1   6   4    1.59    0.39   1-0.63779-0.11239 0.30243 0.15611 0.70834 0.98132
   1   6   4    1.51    0.46   1-0.37174 0.15400-0.83147-0.97817-0.41286-0.13944
   1   6   4    0.93    0.43   1-0.04600 0.47777 0.99763 0.84935-0.05108 0.22435
   1   6   5    8.62    1.02   1-0.49185 0.03964 0.67799 0.49050 0.54626 0.87053
  -1  -6  -5    8.46    1.04   1 0.18722-0.34233-0.96006-0.77282-0.20792-0.53435
   1   6   5    7.58    0.90   1-0.40456 0.12755-0.79652-0.98396-0.44931-0.12467
   1   6   5    6.35    0.81   1-0.02553 0.50423 0.99927 0.81039-0.02836 0.29833
   1   6   6   12.80    1.13   1-0.43436 0.10412-0.76066-0.98883-0.48240-0.10655
   1   6   6   10.13    0.88   1-0.01240 0.52337 0.99982 0.77036-0.01377 0.36417
   1   6   7    1.67    0.55   1-0.46160 0.08323-0.72394-0.99284-0.51266-0.08559
   1   6   7    1.15    0.75   1-0.00518 0.53658 0.99997 0.72991-0.00576 0.42343
   1   6   8    5.77    0.79   1-0.48664 0.06455-0.68633-0.99597-0.54047-0.06219
   1   6   8    4.73    0.89   1-0.00282 0.54495 0.99999 0.68934-0.00313 0.47731
   1   6   9    8.22    1.20   1-0.50974 0.04782-0.64781-0.99818-0.56612-0.03662
   1   6   9    6.56    0.99   1-0.00449 0.54928 0.99997 0.64874-0.00499 0.52670
   1   6  10    5.77    0.80   1-0.53108 0.03284-0.60831-0.99941-0.58982-0.00911
   1   6  10    4.84    1.06   1-0.00958 0.55019 0.99989 0.60807-0.01064 0.57230
   1   7 -12    7.46    1.12   1-0.59315-0.09513 0.46282 0.98605 0.65876 0.13656
   1   7 -12    8.48    1.19   1 0.10529 0.60706-0.98754-0.47039-0.11694-0.64047
   1   7 -11    8.45    1.50   1-0.57955-0.07519 0.49980 0.98213 0.64366 0.17250
   1   7 -11   10.03    1.47   1 0.11221 0.61998-0.98583-0.50924-0.12463-0.59690
   1   7 -11   11.89    1.53   1-0.43602 0.06866-0.75854-0.27930-0.48425-0.95774
   1   7 -10   14.55    1.53   1-0.56381-0.05281 0.53852 0.97749 0.62617 0.20424
   1   7 -10   14.71    1.60   1 0.11594 0.62970-0.98487-0.54883-0.12876-0.54977
   1   7 -10   17.80    1.66   1-0.49498 0.01606-0.67289-0.23439-0.54973-0.97200
   1   7  -9    5.63    1.14   1-0.54866-0.03134 0.57241 0.97061 0.60935 0.23858
   1   7  -9    5.54    0.98   1 0.11593 0.63569-0.98487-0.58939-0.12875-0.49849
   1   7  -9    6.39    0.85   1-0.55348-0.03607-0.56195-0.16417-0.61470-0.98577
   1   7  -8   12.74    1.20   1-0.53290-0.00927 0.60474 0.96218 0.59185 0.27225
   1   7  -8   12.36    1.23   1 0.11148 0.63724-0.98602-0.63110-0.12381-0.44229
   1   7  -8   14.52    1.17   1-0.60769-0.08350-0.41856-0.06242-0.67491-0.99454
  -1  -7   8   12.51    1.16   1-0.32801-0.85406 0.87160 0.51810-0.36429-0.04631
   1   7  -7    0.73    0.93   1-0.51665 0.01329 0.63546 0.95214 0.57380 0.30536
   1   7  -7    0.53    0.56   1 0.10164 0.63340-0.98839-0.67402-0.11288-0.38010
   1   7  -7    0.31    0.30   1-0.64968-0.11916-0.23930 0.07612-0.72155-0.98995
  -1  -7   7    0.41    0.45   1-0.26217-0.79422 0.92004 0.60713-0.29117-0.02444
   1   7  -6    1.30    0.66   1-0.50002 0.03624 0.66451 0.94042 0.55533 0.33806
   1   7  -6    1.42    0.56   1 0.08461 0.62256-0.99197-0.71832-0.09397-0.31052
   1   7  -6    1.26    0.34   1-0.66886-0.13201-0.02789 0.24684-0.74285-0.96002
  -1  -7   6    0.89    0.44   1-0.18834-0.72639 0.95956 0.68725-0.20917 0.00630
   1   7  -5    0.12    0.58   1-0.48318 0.05939 0.69177 0.92691 0.53663 0.37053
   1   7  -5   -0.01    0.66   1 0.05964 0.60362-0.99601-0.76292-0.06624-0.23149
   1   7  -5   -0.11    0.29   1-0.65570-0.11251 0.19934 0.43337-0.72823-0.89416
  -1  -7   5    0.19    0.58   1-0.11110-0.65515 0.98611 0.75439-0.12339 0.04083
   1   7  -4    8.11    0.99   1-0.46637 0.08251 0.71707 0.91145 0.51796 0.40303
   1   7  -4    8.82    0.74   1 0.02386 0.57386-0.99936-0.80681-0.02650-0.14045
   1   7  -4    8.92    0.71   1-0.60642-0.05626 0.42266 0.61417-0.67350-0.78716
  -1  -7   4    8.10    0.96   1-0.03519-0.58524 0.99861 0.80747-0.03909 0.07388
   1   7  -3    3.34    0.64   1-0.44992 0.10529 0.74018 0.89380 0.49969 0.43592
   1   7  -3    4.28    0.55   1-0.02591 0.53011-0.99924-0.84724 0.02877-0.03387
   1   7  -3    4.29    0.51   1-0.53267 0.02355 0.60521 0.75619-0.59159-0.65391
  -1  -7   3    3.93    0.58   1 0.03590-0.52014 0.99855 0.84801 0.03988 0.10161
   1   7  -2    6.10    0.85   1-0.43430 0.12722 0.76073 0.87358 0.48234 0.46974
   1   7  -2    7.82    0.64   1-0.09374 0.46830-0.99013-0.87868 0.10411 0.09275
   1   7  -2    7.77    0.70   1-0.44780 0.11448 0.74304 0.85351-0.49733-0.50832
   1   7  -1   16.00    1.21   1-0.42028 0.14755 0.77812 0.85021 0.46677 0.50534
   1   7  -1   19.62    1.26   1-0.18426 0.38381-0.96133-0.89042 0.20465 0.24458
   1   7  -1   19.80    1.28   1-0.36440 0.20394 0.83869 0.90864-0.40471-0.36436
   1   7   0   14.32    1.05   1-0.40912 0.16503 0.79129 0.82262 0.45438 0.54410
   1   7   0   18.65    1.13   1-0.30100 0.27309-0.89310-0.86274 0.33430 0.42554
   1   7   0   18.50    1.29   1-0.28889 0.28515 0.90199 0.93076-0.32085-0.22883
   1   7   1   21.32    1.66   1-0.40309 0.17738 0.79817 0.78873 0.44768 0.58857
   1   7   1   28.35    1.90   1-0.44049 0.13964-0.75274-0.76248 0.48922 0.63176
   1   7   1   24.89    1.72   1-0.25433 0.32670-0.92494-0.93449-0.28246-0.14138
   1   7   1   25.63    1.85   1-0.22652 0.35352 0.94095 0.92913-0.25158-0.10831
   1   7   2   17.91    1.46   1-0.40702 0.17976 0.79371 0.74350 0.45204 0.64411
   1   7   2   22.60    1.59   1-0.58357 0.00263-0.48926-0.53960 0.64812 0.84191
   1   7   2   20.08    1.44   1-0.29632 0.29106-0.89659-0.94687-0.32910-0.13680
   1   7   2   18.85    1.45   1-0.17637 0.40968 0.96463 0.91222-0.19588-0.00135
   1   7   3    8.95    1.42   1-0.43495 0.15816 0.75990 0.66893 0.48306 0.72629
   1   7   3    7.03    1.27   1-0.66765-0.07435-0.06645-0.15677 0.74150 0.98483
   1   7   3   10.03    0.90   1-0.33429 0.25946-0.86625-0.95726-0.37127-0.12776
   1   7   3    8.32    0.94   1-0.13730 0.45475 0.97872 0.88572-0.15249 0.09328
   1   7   4   23.46    1.34   1-0.36886 0.23126-0.83433-0.96607-0.40966-0.11493
   1   7   4   19.70    1.30   1-0.10779 0.49026 0.98693 0.85334-0.11971 0.17730
   1   7   5    7.79    0.83   1-0.40051 0.20597-0.80107-0.97355-0.44481-0.09887
   1   7   5    5.94    0.63   1-0.08632 0.51773 0.99164 0.81746-0.09587 0.25240
   1   7   6    1.03    0.74   1-0.42965 0.18319-0.76661-0.97981-0.47718-0.08002
   1   7   6    0.88    0.53   1-0.07157 0.53848 0.99426 0.77949-0.07948 0.32003
   1   7   7    4.92    0.71   1-0.45659 0.16261-0.73100-0.98493-0.50710-0.05872
   1   7   7    2.49    0.84   1-0.06243 0.55362 0.99563 0.74027-0.06934 0.38143
   1   7   8    2.46    0.61   1-0.48157 0.14399-0.69428-0.98895-0.53484-0.03525
   1   7   8    1.66    0.87   1-0.05802 0.56403 0.99623 0.70028-0.06444 0.43757
   1   7   9    0.43    0.73   1-0.50478 0.12715-0.65643-0.99183-0.56061-0.00981
   1   7   9    0.50    0.92   1-0.05764 0.57041 0.99628 0.65973-0.06402 0.48925
   1   8 -11    0.40    0.82   1-0.58624-0.00763 0.48207 0.97949 0.65109 0.20131
   1   8 -11    0.00    0.72   1 0.08765 0.66974-0.99138-0.50009-0.09735-0.54895
   1   8 -10    2.54    1.02   1-0.57374 0.01121 0.51457 0.97108 0.63720 0.23846
   1   8 -10    2.41    0.73   1 0.08916 0.67728-0.99108-0.54034-0.09902-0.49932
  -1  -8  10    2.61    0.67   1-0.30919-0.89751 0.88683 0.43746-0.34338 0.05551
   1   8  -9    5.54    0.98   1-0.55944 0.03214 0.54862 0.96179 0.62132 0.27185
   1   8  -9    5.70    0.90   1 0.08678 0.68092-0.99155-0.58135-0.09638-0.44538
   1   8  -9    7.82    0.98   1-0.58279 0.00946-0.49132-0.07959-0.64726-0.99678
  -1  -8   9    6.82    0.90   1-0.26411-0.85844 0.91880 0.51002-0.29332 0.05432
   1   8  -8   21.48    2.06   1-0.54630 0.05159 0.57743 0.94984 0.60673 0.30843
   1   8  -8   23.01    2.03   1 0.07979 0.67996-0.99286-0.62321-0.08862-0.38632
   1   8  -8   27.37    2.31   1-0.63073-0.03214-0.33386 0.03716-0.70050-0.99879
  -1  -8   8   22.43    2.16   1-0.21163-0.81196 0.94866 0.58047-0.23503 0.06136
   1   8  -7   20.16    1.70   1-0.53315 0.07106 0.60426 0.93590 0.59212 0.34499
   1   8  -7   22.04    1.93   1 0.06726 0.67346-0.99493-0.66583-0.07470-0.32111
   1   8  -7   23.52    1.74   1-0.66162-0.05669-0.14939 0.18093-0.73480-0.98185
  -1  -8   7   16.45    1.87   1-0.15362-0.75995 0.97328 0.64568-0.17061 0.07453
   1   8  -6    2.25    0.87   1-0.52021 0.09031 0.62893 0.91982 0.57776 0.38179
   1   8  -6    2.86    0.83   1 0.04794 0.66016-0.99743-0.70888-0.05324-0.24834
   1   8  -6    3.18    0.44   1-0.66820-0.05695 0.05246 0.34208-0.74212-0.93794
  -1  -8   6    2.13    0.59   1-0.09265-0.70498 0.99036 0.70335-0.10290 0.09099
   1   8  -5   27.11    1.75   1-0.50779 0.10905 0.65121 0.90133 0.56396 0.41916
   1   8  -5   32.02    1.73   1 0.02015 0.63840-0.99954-0.75154-0.02238-0.16619
   1   8  -5   33.28    1.69   1-0.64586-0.02744 0.26137 0.50818-0.71731-0.86080
  -1  -8   5   24.39    2.02   1-0.03140-0.64973 0.99889 0.75247-0.03487 0.10777
   1   8  -4   14.02    1.10   1-0.49629 0.12686 0.67072 0.88007 0.55119 0.45756
   1   8  -4   15.78    1.11   1-0.01826 0.60600-0.99962-0.79217 0.02028-0.07222
   1   8  -4   17.56    1.03   1-0.59873 0.02575 0.44646 0.65276-0.66496-0.75712
  -1  -8   4   15.23    1.39   1 0.02794-0.59639 0.99912 0.79330 0.03103 0.12243
   1   8  -3   35.43    1.85   1-0.48628 0.14319 0.68690 0.85549 0.54007 0.49761
   1   8  -3   40.83    2.22   1-0.07015 0.56014-0.99448-0.82758 0.07791 0.03670
   1   8  -3   43.66    2.04   1-0.53483 0.09572 0.60093 0.76670-0.59399-0.63481
   1   8  -2    7.31    1.10   1-0.47859 0.15720 0.69887 0.82670 0.53153 0.54022
   1   8  -2    9.76    0.82   1-0.13899 0.49733-0.97818-0.85183 0.15436 0.16445
   1   8  -2    9.97    0.89   1-0.46398 0.17264 0.72054 0.84580-0.51530-0.50479
   1   8  -1    6.53    1.03   1-0.47448 0.16762 0.70510 0.79216 0.52696 0.58683
   1   8  -1    9.36    0.81   1-0.22854 0.41381-0.93986-0.85405 0.25382 0.31520
   1   8  -1    9.76    0.81   1-0.39429 0.24839 0.80794 0.89268-0.43790-0.37605
   1   8   0   14.11    1.31   1-0.47608 0.17234 0.70268 0.74898 0.52874 0.63977
   1   8   0   21.90    1.48   1-0.34142 0.30695-0.86002-0.81476 0.37918 0.49186
   1   8   0   20.91    1.33   1-0.32974 0.31859 0.87014 0.91360-0.36621-0.25261
   1   8   1    2.67    0.56   1-0.48737 0.16737 0.68519 0.69072 0.54127 0.70347
   1   8   1    3.64    0.62   1-0.47409 0.18030-0.70568-0.70046 0.52653 0.69053
   1   8   1    3.27    0.56   1-0.26683 0.38857-0.91705-0.91162-0.29634-0.13395
   1   8   1    3.73    0.76   1-0.27500 0.37933 0.91164 0.91451-0.30541-0.14056
   1   8   2    0.93    0.60   1-0.51773 0.14333 0.63350 0.59827 0.57499 0.78836
   1   8   2    1.19    0.47   1-0.60886 0.05160-0.41476-0.45014 0.67620 0.89146
   1   8   2    1.24    0.50   1-0.30461 0.35715-0.89037-0.92568-0.33830-0.12469
   1   8   2    0.51    0.66   1-0.22953 0.43080 0.93932 0.90160-0.25492-0.03881
   1   8   3    0.10    0.30   1-0.65441 0.01177 0.20858 0.13350 0.72679 0.99097
   1   8   3    0.32    0.70   1-0.33950 0.32862-0.86172-0.93776-0.37705-0.11223
   1   8   3    0.54    0.46   1-0.19291 0.47342 0.95753 0.87923-0.21425 0.05310
   1   8   4   -0.40    0.66   1-0.16428 0.50805 0.96939 0.85049-0.18245 0.13614
   1   8   5    0.03    0.53   1-0.40189 0.27895-0.79953-0.95704-0.44634-0.07909
   1   8   5    0.20    0.49   1-0.14265 0.53568 0.97700 0.81752-0.15843 0.21142
   1   8   6    0.35    0.80   1-0.42991 0.25730-0.76628-0.96452-0.47746-0.05900
   1   8   6    0.62    0.67   1-0.12708 0.55725 0.98179 0.78171-0.14114 0.27996
   1   8   7    3.37    0.67   1-0.45608 0.23749-0.73171-0.97068-0.50653-0.03685
   1   8   7    2.41    0.86   1-0.11673 0.57360 0.98466 0.74399-0.12965 0.34270
   1   8   8    2.71    0.82   1-0.48055 0.21938-0.69585-0.97555-0.53371-0.01281
   1   8   8    1.88    0.91   1-0.11089 0.58544 0.98616 0.70490-0.12316 0.40044
   1   9 -10    9.97    1.51   1-0.58406 0.07513 0.48794 0.95955 0.64867 0.27131
   1   9 -10    9.23    1.32   1 0.05932 0.72171-0.99606-0.53041-0.06588-0.44473
   1   9  -9    6.46    1.18   1-0.57341 0.09213 0.51538 0.94608 0.63684 0.31052
   1   9  -9    6.42    1.08   1 0.05453 0.72295-0.99667-0.57157-0.06057-0.38812
   1   9  -8   12.02    1.07   1-0.56141 0.11075 0.54408 0.93147 0.62351 0.34652
   1   9  -8   12.18    1.03   1 0.04499 0.71943-0.99773-0.61318-0.04996-0.32622
   1   9  -8   14.49    0.99   1-0.64448 0.02850-0.26888 0.11704-0.71577-0.99271
  -1  -9   8    9.13    1.51   1-0.10659-0.78121 0.98722 0.60434-0.11838 0.15643
   1   9  -7    4.71    1.10   1-0.55122 0.12726 0.56689 0.91352 0.61219 0.38636
   1   9  -7    5.25    0.75   1 0.02974 0.71021-0.99901-0.65500-0.03303-0.25799
   1   9  -7    6.81    0.85   1-0.66658 0.01273-0.08709 0.25812-0.74032-0.96602
  -1  -9   7    4.16    1.05   1-0.05954-0.74015 0.99603 0.65374-0.06612 0.15744
   1   9  -6    4.07    0.97   1-0.54171 0.14308 0.58701 0.89287 0.60163 0.42697
   1   9  -6    4.71    0.95   1 0.00759 0.69408-0.99993-0.69647-0.00843-0.18209
   1   9  -6    6.04    0.79   1-0.66569 0.01995 0.10114 0.40566-0.73933-0.91380
  -1  -9   6    3.70    1.03   1-0.01126-0.69788 0.99985 0.69815-0.01250 0.15981
   1   9  -5    0.54    0.66   1-0.53328 0.15783 0.60400 0.86910 0.59227 0.46877
   1   9  -5    1.13    0.57   1-0.02304 0.66948-0.99940-0.73649 0.02558-0.09677
   1   9  -5    1.11    0.45   1-0.64070 0.05205 0.28835 0.54995-0.71157-0.83357
  -1  -9   5    0.45    0.57   1 0.03684-0.65577 0.99848 0.73737 0.04091 0.16198
   1   9  -4    1.42    0.66   1-0.52645 0.17098 0.61724 0.84157 0.58468 0.51235
   1   9  -4    2.00    0.76   1-0.06417 0.63437-0.99539-0.77302 0.07127 0.00020
   1   9  -4    1.94    0.52   1-0.59748 0.10134 0.45021 0.67129-0.66356-0.73422
   1   9  -3    0.15    0.59   1-0.52192 0.18182 0.62576 0.80933 0.57966 0.55849
   1   9  -3    0.52    0.70   1-0.11835 0.58621-0.98423-0.80242 0.13144 0.11167
   1   9  -3    0.35    0.69   1-0.54236 0.16252 0.58565 0.76622-0.60236-0.62168
   1   9  -2    1.41    0.62   1-0.52075 0.18931 0.62794 0.77075 0.57835 0.60835
   1   9  -2    2.12    0.56   1-0.18859 0.52200-0.95945-0.81819 0.20946 0.24098
   1   9  -2    1.97    0.61   1-0.48238 0.22857 0.69302 0.83307-0.53574-0.50372
   1   9  -1    3.41    0.66   1-0.52450 0.19187 0.62093 0.72297 0.58252 0.66369
   1   9  -1    4.85    0.78   1-0.27803 0.43859-0.90958-0.80887 0.30878 0.39160
   1   9  -1    4.68    0.94   1-0.42315 0.29386 0.77464 0.87417-0.46996-0.38661
   1   9   0    1.77    0.60   1-0.53581 0.18688 0.59897 0.66025 0.59508 0.72742
   1   9   0    2.65    0.77   1-0.38859 0.33405-0.81408-0.75391 0.43158 0.56570
   1   9   0    1.91    0.55   1-0.24756 0.47583-0.92903-0.86791-0.27495-0.14247
   1   9   0    2.07    0.64   1-0.36841 0.35468 0.83478 0.89379-0.40916-0.27447
   1   9   1    3.47    0.69   1-0.55980 0.16921 0.54780 0.56831 0.62172 0.80522
   1   9   1    6.04    0.78   1-0.51665 0.21199-0.63545-0.61527 0.57380 0.75927
   1   9   1    4.70    0.83   1-0.28368 0.44609-0.90568-0.88529-0.31505-0.13136
   1   9   1    4.66    0.67   1-0.31893 0.40968 0.87909 0.89666-0.35421-0.16778
   1   9   2    6.45    0.82   1-0.31759 0.41853-0.88018-0.90052-0.35272-0.11781
   1   9   2    5.77    0.93   1-0.27779 0.45683 0.90975 0.88672-0.30851-0.07083
   1   9   3    8.31    0.95   1-0.34947 0.39302-0.85277-0.91385-0.38812-0.10199
   1   9   3    7.08    0.84   1-0.24378 0.49683 0.93126 0.86765-0.27075 0.01818
   1   9   4    5.73    0.95   1-0.37946 0.36939-0.82365-0.92545-0.42143-0.08409
   1   9   4    4.83    0.67   1-0.21647 0.53014 0.94622 0.84201-0.24042 0.09976
   1   9   5    1.68    0.62   1-0.40770 0.34751-0.79293-0.93547-0.45280-0.06424
   1   9   5    1.49    0.56   1-0.19524 0.55738 0.95648 0.81168-0.21683 0.17459
   1   9   6    8.83    1.19   1-0.43433 0.32725-0.76070-0.94397-0.48237-0.04260
   1   9   6    7.01    1.05   1-0.17942 0.57920 0.96337 0.77799-0.19927 0.24341
   1  10  -9   -0.22    0.79   1-0.58719 0.15260 0.47949 0.92528 0.65214 0.34720
   1  10  -9   -0.13    0.72   1 0.01882 0.76151-0.99960-0.55959-0.02090-0.32702
   1  10  -8    2.38    1.12   1-0.57911 0.16703 0.50095 0.90585 0.64317 0.38927
   1  10  -8    2.84    1.00   1 0.00669 0.75540-0.99994-0.60049-0.00743-0.26224
   1  10  -7    3.29    0.82   1-0.57174 0.18075 0.51952 0.88351 0.63498 0.43211
   1  10  -7    4.42    0.86   1-0.01129 0.74344-0.99985-0.64094 0.01254-0.19097
   1  10  -7    4.89    0.59   1-0.66831 0.08540-0.04922 0.31088-0.74224-0.94660
  -1 -10   7    2.57    0.83   1 0.02315-0.73174 0.99940 0.64241 0.02571 0.22771
   1  10  -6   10.18    1.33   1-0.56387 0.19519 0.53839 0.85922 0.62624 0.47288
   1  10  -6   13.00    1.57   1-0.03630 0.72446-0.99852-0.68016 0.04031-0.11190
   1  10  -6   16.67    1.76   1-0.66384 0.09621 0.12549 0.44490-0.73727-0.89039
   1  10  -5    9.32    0.94   1-0.55899 0.20639 0.54963 0.82971 0.62082 0.51863
   1  10  -5   10.10    1.01   1-0.06983 0.69696-0.99453-0.71672 0.07755-0.02336
   1  10  -5   14.33    0.93   1-0.63930 0.12778 0.29522 0.57160-0.71002-0.81051
   1  10  -4    0.66    0.67   1-0.55619 0.21550 0.55593 0.79524 0.61772 0.56669
   1  10  -4    0.56    0.81   1-0.11376 0.65905-0.98544-0.74817 0.12635 0.07672
   1  10  -4    0.75    0.65   1-0.60082 0.17233 0.44015 0.67602-0.66728-0.71643
   1  10  -3   11.26    1.01   1-0.55627 0.22173 0.55575 0.75429 0.61781 0.61795
   1  10  -3   15.72    1.53   1-0.17043 0.60841-0.96701-0.77030 0.18928 0.19095
   1  10  -3   19.41    1.34   1-0.55334 0.22588 0.56226 0.75761-0.61454-0.61236
   1  10  -2    4.26    0.76   1-0.56036 0.22397 0.54650 0.70428 0.62234 0.67365
   1  10  -2    7.27    0.98   1-0.24248 0.54238-0.93202-0.77585 0.26931 0.32228
   1  10  -2    7.70    1.02   1-0.50207 0.28322 0.66105 0.81589-0.55760-0.50408
   1  10  -1   10.66    1.08   1-0.57184 0.21876 0.51927 0.63784 0.63509 0.73844
   1  10  -1   16.45    1.50   1-0.33263 0.45827-0.86768-0.75206 0.36942 0.47369
   1  10  -1   16.90    1.18   1-0.45117 0.34018 0.73848 0.85280-0.50107-0.39622
   1  10   0    4.19    0.76   1-0.59011 0.20684 0.47141 0.54908 0.65538 0.80976
   1  10   0    6.09    0.80   1-0.44164 0.35520-0.75124-0.67549 0.49049 0.64616
   1  10   0    5.90    0.87   1-0.27197 0.52580-0.91367-0.83758-0.30205-0.14826
   1  10   0    5.72    0.85   1-0.40348 0.39394 0.79774 0.87154-0.44811-0.29192
   1  10   1    6.04    0.73   1-0.30379 0.50034-0.89099-0.85564-0.33739-0.13238
   1  10   1    5.76    0.77   1-0.36066 0.44282 0.84229 0.87558-0.40056-0.19303
   1  10   2    5.86    0.95   1-0.33418 0.47631-0.86635-0.87173-0.37115-0.11492
   1  10   2    5.07    0.71   1-0.32229 0.48661 0.87635 0.86802-0.35794-0.09868
   1  10   3    0.03    0.59   1-0.36318 0.45367-0.83987-0.88598-0.40336-0.09592
   1  10   3    0.05    0.79   1-0.29091 0.52400 0.90054 0.85162-0.32308-0.01257
   1  10   4    0.12    0.89   1-0.39083 0.43239-0.81168-0.89852-0.43406-0.07541
   1  10   4   -0.07    0.55   1-0.26515 0.55575 0.91813 0.82862-0.29448 0.06727
   1  11  -6    5.13    0.87   1-0.58751 0.24557 0.47861 0.81679 0.65250 0.52205
   1  11  -6    6.11    0.81   1-0.08373 0.75130-0.99213-0.65887 0.09299-0.03777
   1  11  -5    3.13    0.80   1-0.58576 0.25368 0.48339 0.78066 0.65055 0.57114
   1  11  -5    3.79    0.98   1-0.12024 0.72082-0.98372-0.69100 0.13354 0.05406
   1  11  -5    4.81    0.80   1-0.64096 0.20046 0.28706 0.57824-0.71186-0.79085
   1  11  -4    0.75    0.70   1-0.58638 0.25940 0.48168 0.73806 0.65125 0.62287
   1  11  -4    0.90    0.90   1-0.16711 0.67997-0.96830-0.71613 0.18560 0.15742
   1  11  -4    1.22    0.91   1-0.60737 0.24011 0.41959 0.67025-0.67456-0.70221
   1  11  -3    1.21    0.75   1-0.59019 0.26195 0.47119 0.68667 0.65547 0.67813
   1  11  -3    1.09    0.94   1-0.22652 0.62659-0.94095-0.72932 0.25158 0.27470
   1  11  -3    1.01    0.71   1-0.56652 0.28703 0.53213 0.74227-0.62919-0.60550
   1  11  -2    0.98    0.73   1-0.59826 0.26023 0.44787 0.62243 0.66444 0.73813
   1  11  -2    1.04    0.70   1-0.30092 0.55822-0.89316-0.72208 0.33421 0.40862
   1  11  -2    1.85    0.81   1-0.52246 0.33716 0.62476 0.79439-0.58025-0.50523
   1  11  -1    0.66    0.65   1-0.26962 0.59615-0.91522-0.78343-0.29945-0.17556
   1  11   0    0.31    0.64   1-0.29841 0.57372-0.89504-0.80399-0.33142-0.15632
   1  11   1    2.91    0.96   1-0.32644 0.55206-0.87291-0.82259-0.36255-0.13624
  -2  12  -1    0.38    1.03   1-0.55245 0.22533 0.56421 0.93037-0.61356-0.28918
  -2  12  -2    2.53    1.01   1-0.57861 0.19310 0.50223 0.90891-0.64262-0.36958
   2 -12   2    1.66    0.95   1 0.01097-0.76030 0.99986 0.59423 0.01219-0.26233
  -2  12  -3   -0.16    0.90   1-0.60356 0.16209 0.43170 0.87889-0.67032-0.44862
   2 -12   3    0.23    0.74   1-0.02814-0.79342 0.99911 0.55289-0.03125-0.25453
  -2  12  -4   -0.36    0.92   1-0.66641 0.09001-0.09006 0.40117 0.74012 0.91157
  -2  12  -4   -0.47    0.81   1 0.10728 0.86558-0.98706-0.49806-0.11914 0.05195
  -2  12  -4   -0.13    0.86   1-0.62608 0.13350 0.35287 0.84058-0.69533-0.52497
   2 -12   4    0.63    1.04   1-0.06616-0.82545 0.99509 0.50828-0.07348-0.24551
  -2  11   3   -0.08    0.98   1-0.43082 0.29689 0.76514 0.95444-0.47847 0.02974
  -2  11   2    0.19    0.71   1-0.45529 0.26636 0.73282 0.96263-0.50565-0.04876
  -2  11   1    3.63    0.78   1-0.48219 0.23339 0.69332 0.96365-0.53553-0.12998
  -2  11   0    2.29    1.00   1-0.51091 0.19860 0.64575 0.95660-0.56742-0.21321
  -2  11  -1   29.01    3.04   1-0.54057 0.16288 0.58935 0.94072-0.60036-0.29749
   2 -11   1   24.19    2.78   1 0.00423-0.69877 0.99997 0.64962 0.00469-0.29949
  -2  11  -2    6.36    0.88   1-0.65556 0.03931-0.20032 0.19401 0.72808 0.98021
  -2  11  -2    4.13    1.35   1 0.09101 0.78759-0.99070-0.59767-0.10108 0.14992
  -2  11  -2    9.00    1.17   1-0.57005 0.12732 0.52363 0.91552-0.63311-0.38158
   2 -11   2    8.09    1.14   1-0.03981-0.73681 0.99822 0.60728-0.04421-0.29716
  -2  11  -3    0.31    0.78   1-0.66598 0.02254-0.09687 0.33836 0.73965 0.94074
  -2  11  -3    1.13    0.68   1 0.15032 0.84039-0.97443-0.54090-0.16694 0.03389
  -2  11  -3    0.43    0.60   1-0.59805 0.09326 0.44850 0.88090-0.66420-0.46401
   2 -11   3    0.27    0.67   1-0.08306-0.77406 0.99226 0.56073-0.09224-0.29394
  -2  11  -4    0.96    0.74   1-0.66890 0.01327-0.02617 0.44996 0.74289 0.89295
  -2  11  -4    2.34    0.60   1-0.62312 0.06213 0.36438 0.83730-0.69205-0.54319
   2 -11   4    1.83    0.96   1-0.12491-0.80992 0.98241 0.51029-0.13873-0.28918
  -2  11  -6    5.12    0.87   1-0.66811 0.00136 0.05515 0.61310 0.74201 0.79000
  -2  11  -6    7.33    0.98   1-0.65918 0.01308 0.17175 0.72718-0.73210-0.68631
   2 -11   6    6.74    0.97   1-0.20210-0.87510 0.95329 0.39999-0.22445-0.27240
  -2  11  -7    4.26    1.10   1-0.66719-0.00407 0.07599 0.67484 0.74099 0.73795
  -2  11  -7    5.29    0.71   1-0.66754-0.00159 0.06888 0.66501-0.74137-0.74682
   2 -11   7    5.39    1.13   1-0.23638-0.90337 0.93552 0.34162-0.26252-0.25922
  -2  11  -8    8.58    1.24   1-0.66655-0.00978 0.08758 0.72733 0.74028 0.68620
  -2  11  -8   11.64    0.80   1-0.66869-0.00908-0.03602 0.60080-0.74266-0.79934
   2 -11   8   10.39    0.95   1-0.26724-0.92823 0.91678 0.28229-0.29680-0.24224
  -2  10   5    4.86    0.82   1-0.36218 0.30333 0.84084 0.93432-0.40224 0.18714
  -2  10   4    3.08    0.94   1-0.38271 0.27673 0.82028 0.95427-0.42504 0.11300
  -2  10   3    4.39    0.75   1-0.40679 0.24659 0.79397 0.96849-0.45179 0.03492
  -2  10   2    3.90    1.00   1-0.43419 0.21312 0.76087 0.97590-0.48222-0.04684
  -2  10   1    5.48    0.98   1-0.46447 0.17678 0.71983 0.97538-0.51584-0.13180
  -2  10   0    4.17    0.76   1-0.58260 0.05143-0.49184-0.19450 0.64704 0.97955
  -2  10   0    2.77    1.20   1-0.01324 0.62111-0.99980-0.70277 0.01470 0.34687
  -2  10   0    5.54    0.86   1-0.49686 0.13831 0.66978 0.96584-0.55182-0.21912
   2 -10   0    6.46    1.11   1 0.00561-0.62910 0.99996 0.70489 0.00623-0.32763
  -2  10  -1    1.16    0.60   1-0.64478-0.01681-0.26727 0.07065 0.71610 0.99735
  -2  10  -1    1.36    0.76   1 0.12117 0.74903-0.98346-0.64595-0.13458 0.14727
  -2  10  -1    1.35    0.62   1-0.53033 0.09879 0.60978 0.94636-0.58899-0.30762
   2 -10   1    1.60    0.66   1-0.04353-0.67225 0.99788 0.66222-0.04834-0.33096
  -2  10  -2    7.88    1.07   1-0.66343-0.04279-0.13024 0.24899 0.73681 0.96755
  -2  10  -2    8.53    1.17   1 0.19300 0.81485-0.95749-0.57943-0.21435 0.01624
  -2  10  -2    9.94    1.05   1-0.56347 0.05957 0.53931 0.91641-0.62580-0.39577
   2 -10   2    8.73    1.02   1-0.09232-0.71504 0.99043 0.61418-0.10253-0.33390
  -2  10  -3   -0.11    0.50   1-0.66865-0.05436-0.03758 0.38256 0.74261 0.92232
  -2  10  -3    0.00    0.50   1-0.59468 0.02230 0.45839 0.87601-0.66046-0.48177
   2 -10   3    0.10    0.60   1-0.13999-0.75671 0.97786 0.56102-0.15548-0.33560
   2 -10   4    3.08    0.74   1-0.26391-0.87274 0.91893 0.45910 0.29310 0.16593
  -2  10  -4    3.48    0.67   1-0.66891-0.06097 0.02540 0.48644 0.74290 0.87157
  -2  10  -4    3.88    0.64   1-0.62223-0.01131 0.36776 0.82589-0.69106-0.56370
   2 -10   4    3.86    0.74   1-0.18576-0.79648 0.96069 0.50325-0.20631-0.33518
   2 -10   5    0.12    0.98   1-0.27986-0.88239 0.90832 0.40773 0.31082 0.23482
  -2  10  -5    0.01    0.64   1-0.64448-0.03962 0.26891 0.76756-0.71577-0.63975
   2 -10   5    0.29    0.83   1-0.22885-0.83357 0.93969 0.44167-0.25417-0.33179
   2 -10   6    0.63    1.04   1-0.28832-0.88453 0.90240 0.36103 0.32022 0.29538
  -2  10  -6    0.02    0.93   1-0.66606-0.07082 0.09566 0.63851 0.73973 0.76634
  -2  10  -6   -0.00    0.64   1-0.66029-0.06241 0.16201 0.70255-0.73332-0.70888
   2 -10   6    0.11    0.61   1-0.26860-0.86731 0.91589 0.37728-0.29831-0.32468
   2 -10   7    2.66    1.16   1-0.29124-0.88114 0.90030 0.31817 0.32346 0.34979
  -2  10  -7    3.33    0.79   1-0.66490-0.07602 0.11223 0.69598 0.73844 0.71401
  -2  10  -7    4.23    0.55   1-0.66816-0.07662 0.05355 0.63479-0.74207-0.76887
   2 -10   7    4.03    0.75   1-0.30448-0.89719 0.89046 0.31126-0.33816-0.31328
   2 -10   8    7.84    1.48   1-0.28988-0.87346 0.90128 0.27839 0.32195 0.39944
  -2  10  -8    8.96    1.15   1-0.66428-0.08175 0.12010 0.74476 0.73776 0.66229
  -2  10  -8   10.24    1.07   1-0.66809-0.08288-0.05564 0.56630-0.74199-0.82002
   2 -10   8    9.42    1.32   1-0.33616-0.92288 0.86463 0.24484-0.37335-0.29722
   2 -10   9    1.78    1.27   1-0.28508-0.86233 0.90470 0.24104 0.31661 0.44527
  -2  10  -9    1.88    0.68   1-0.66017-0.08129-0.16308 0.49955-0.73319-0.86245
   2 -10   9    1.28    0.76   1-0.36415-0.94474 0.83893 0.17822-0.40443-0.27511
  -2   9   7    8.96    1.07   1-0.30403 0.30162-0.89081-0.89406-0.33766 0.33115
  -2   9   7    6.49    0.89   1-0.29922 0.30322 0.89444 0.89068-0.33231 0.33872
  -2   9   6    0.42    0.66   1-0.26183 0.33746-0.92026-0.88278-0.29079 0.32681
  -2   9   6    0.29    0.59   1-0.31378 0.28265 0.88322 0.92005-0.34849 0.27129
  -2   9   5    0.76    0.84   1-0.33237 0.25806 0.86790 0.94532-0.36914 0.19939
  -2   9   4    0.21    0.59   1-0.35607 0.22904 0.84665 0.96585-0.39546 0.12108
  -2   9   3    0.66    0.85   1-0.38294 0.19611 0.82004 0.97976-0.42529 0.03991
  -2   9   2    0.20    0.59   1-0.41372 0.15926 0.78594 0.98618-0.45948-0.04560
  -2   9   1    0.24    0.41   1-0.43406 0.13180-0.76103-0.51925 0.48208 0.84439
  -2   9   1    0.14    0.40   1-0.09721 0.46891-0.98938-0.74780 0.10797 0.47000
  -2   9   1   -0.07    0.57   1-0.44789 0.11902 0.74292 0.98368-0.49743-0.13489
   2  -9  -1    0.63    0.58   1 0.01601-0.55042 0.99971 0.75992 0.01778-0.34575
  -2   9   0    1.85    0.45   1-0.61256-0.05278-0.40239-0.12002 0.68032 0.99136
  -2   9   0    2.22    0.54   1 0.14322 0.70285-0.97682-0.69478-0.15907 0.15253
  -2   9   0    2.54    0.63   1-0.48455 0.07630 0.68964 0.97091-0.53815-0.22694
   2  -9   0    2.80    0.63   1-0.03836-0.59879 0.99835 0.71797-0.04260-0.35489
  -2   9  -1    6.02    0.63   1-0.65490-0.10215-0.20513 0.11810 0.72733 0.98773
  -2   9  -1    6.42    0.69   1-0.52234 0.03243 0.62498 0.94677-0.58012-0.32026
   2  -9   1    6.62    0.79   1-0.09305-0.64748 0.99028 0.66931-0.10334-0.36438
   2  -9   2    6.20    0.93   1-0.28723-0.83443 0.90317 0.53984 0.31900 0.11080
  -2   9  -2    5.47    0.77   1-0.66713-0.12073-0.07713 0.28700 0.74093 0.95028
  -2   9  -2    5.99    0.65   1-0.55953-0.01081 0.54840 0.91071-0.62142-0.41289
   2  -9   2    6.13    0.72   1-0.14710-0.69554 0.97553 0.61397-0.16338-0.37316
   2  -9   3   75.05    4.34   1-0.31618-0.85707 0.88131 0.47721 0.35116 0.19412
  -2   9  -3   79.86    4.67   1-0.66910-0.12906 0.00815 0.41321 0.74312 0.90144
  -2   9  -3   79.96    4.31   1-0.59407-0.05142 0.46016 0.86299-0.65978-0.50259
   2  -9   3   85.93    2.25   1-0.19946-0.74190 0.95453 0.55238-0.22153-0.38007
   2  -9   4    8.34    1.15   1-0.33245-0.86702 0.86784 0.42298 0.36922 0.26335
  -2   9  -4    9.48    0.92   1-0.66769-0.13400 0.06542 0.51138 0.74155 0.84884
  -2   9  -4    9.43    0.84   1-0.62387-0.08729 0.36150 0.80484-0.69288-0.58703
   2  -9   4    9.64    0.90   1-0.24906-0.78549 0.92814 0.48540-0.27661-0.38390
   2  -9   5    0.59    0.97   1-0.34041-0.86866 0.86092 0.37529 0.37806 0.32336
  -2   9  -5    0.85    0.74   1-0.66555-0.13821 0.10321 0.59007 0.73917 0.79542
  -2   9  -5    0.54    0.59   1-0.64707-0.11655 0.25461 0.73847-0.71865-0.66413
   2  -9   5    0.79    0.56   1-0.29493-0.82536 0.89762 0.41429-0.32755-0.38359
   2  -9   6    5.95    1.30   1-0.34252-0.86446 0.85904 0.33265 0.38041 0.37687
  -2   9  -6    7.59    0.89   1-0.66372-0.14273 0.12686 0.65462 0.73714 0.74235
  -2   9  -6    7.76    0.68   1-0.66248-0.13900 0.14058 0.66623-0.73576-0.73267
   2  -9   6    7.37    1.00   1-0.33631-0.86074 0.86450 0.34058-0.37351-0.37830
   2  -9   7   21.97    2.40   1-0.34026-0.85588 0.86105 0.29390 0.37790 0.42553
  -2   9  -7   22.84    1.98   1-0.66255-0.14791 0.13984 0.70850 0.73584 0.69002
  -2   9  -7   25.59    2.09   1-0.66889-0.15175 0.02630 0.59266-0.74288-0.79102
   2  -9   7   25.35    2.18   1-0.37348-0.89187 0.82972 0.26483-0.41479-0.36664
   2  -9   8   13.16    1.92   1-0.33457-0.84387 0.86602 0.25810 0.37157 0.47037
  -2   9  -8   14.09    1.47   1-0.66210-0.15381 0.14453 0.75410 0.73534 0.63849
  -2   9  -8   16.16    1.54   1-0.66660-0.15578-0.08684 0.52020-0.74033-0.83971
   2  -9   8   14.01    1.41   1-0.40475-0.91707 0.79629 0.19088-0.44953-0.35003
   2  -9   9    5.56    1.16   1-0.32606-0.82905 0.87323 0.22455 0.36213 0.51209
  -2   9  -9    6.51    0.92   1-0.66229-0.16035 0.14258 0.79305 0.73555 0.58766
  -2   9  -9    7.34    0.89   1-0.65611-0.15163-0.19626 0.45148-0.72869-0.87929
   2  -9   9    5.42    1.25   1-0.43096-0.93721 0.76497 0.11904-0.47863-0.32780
   2  -9  10   12.95    1.52   1-0.31517-0.81184 0.88212 0.19268 0.35003 0.55116
  -2   9 -10   14.66    1.56   1-0.66298-0.16740 0.13517 0.82654 0.73632 0.53740
  -2   9 -10   15.34    1.40   1-0.63830-0.14015-0.30001 0.38843-0.70891-0.91075
   2  -9  11    1.00    0.94   1-0.30218-0.79254 0.89221 0.16201 0.33560 0.58790
  -2   9 -11    0.56    0.85   1-0.66403-0.17480 0.12315 0.85542 0.73748 0.48753
  -2   9 -11    0.91    0.51   1-0.61418-0.12236-0.39684 0.33230-0.68212-0.93519
  -2   8   8    3.70    0.94   1-0.33598 0.20167-0.86480-0.92375-0.37314 0.32558
  -2   8   8    2.25    0.66   1-0.25551 0.27864 0.92421 0.86517-0.28378 0.41692
  -2   8   7    2.88    0.68   1-0.29374 0.23754-0.89848-0.91670-0.32623 0.32127
  -2   8   7    2.69    0.65   1-0.26701 0.26113 0.91692 0.89847-0.29655 0.35290
  -2   8   6    4.57    0.70   1-0.24841 0.27651-0.92853-0.90602-0.27589 0.32040
  -2   8   6    4.55    0.88   1-0.28280 0.23934 0.90629 0.92843-0.31409 0.28412
  -2   8   5   12.36    1.07   1-0.30320 0.21295 0.89144 0.95417-0.33673 0.21022
  -2   8   4    3.95    0.86   1-0.32841 0.18173 0.87126 0.97458-0.36474 0.13096
  -2   8   3   21.68    1.46   1-0.35945 0.14526 0.84345 0.98839-0.39921 0.04449
  -2   8   2   12.82    1.03   1-0.39420 0.10444 0.80804 0.99349-0.43780-0.04543
   2  -8  -2   14.88    1.06   1 0.03656-0.46159 0.99850 0.81400 0.04060-0.35260
  -2   8   1   13.44    1.18   1-0.50947-0.01788-0.64828-0.42146 0.56582 0.90666
  -2   8   1   12.99    1.44   1 0.14625 0.63765-0.97582-0.74924-0.16242 0.17892
  -2   8   1   13.92    1.29   1-0.43299 0.05959 0.76241 0.98837-0.48088-0.13984
   2  -8  -1   13.97    0.99   1-0.02299-0.51514 0.99940 0.77431-0.02553-0.36750
   2  -8   0   20.32    1.69   1-0.28289-0.76846 0.90623 0.63940 0.31418 0.02495
  -2   8   0   18.78    1.65   1-0.62766-0.14214-0.34653-0.07912 0.69709 0.98667
  -2   8   0   21.09    1.81   1-0.47465 0.01185 0.70484 0.97132-0.52716-0.23746
   2  -8   0   22.64    1.59   1-0.08388-0.57003 0.99211 0.72642-0.09316-0.38387
   2  -8   1    9.11    0.93   1-0.34284-0.82209 0.85876 0.55117 0.38076 0.14270
  -2   8  -1    8.30    0.81   1-0.66032-0.18181-0.16172 0.14643 0.73336 0.97236
  -2   8  -1    8.48    0.91   1-0.51745-0.03700 0.63401 0.94101-0.57468-0.33632
   2  -8   1    9.21    0.75   1-0.14496-0.62511 0.97625 0.66997-0.16099-0.40045
   2  -8   2   15.11    1.32   1-0.37341-0.84634 0.82980 0.48144 0.41471 0.22782
  -2   8  -2   16.08    1.28   1-0.66859-0.19644-0.03996 0.30909 0.74255 0.93052
  -2   8  -2   15.58    1.21   1-0.55907-0.08468 0.54945 0.89697-0.62091-0.43388
   2  -8   2   16.38    1.24   1-0.20483-0.67897 0.95199 0.60512-0.22748-0.41569
   2  -8   3    2.40    0.86   1-0.38892-0.85554 0.81373 0.42461 0.43194 0.29621
  -2   8  -3    2.46    0.56   1-0.66857-0.20277 0.04064 0.43060 0.74253 0.87946
  -2   8  -3    2.24    0.47   1-0.59691-0.12859 0.45188 0.83992-0.66294-0.52725
   2  -8   3    2.75    0.56   1-0.26199-0.73013 0.92016 0.53270-0.29096-0.42792
   2  -8   4   19.31    1.37   1-0.39542-0.85572 0.80671 0.37682 0.43915 0.35459
  -2   8  -4   21.14    1.42   1-0.66617-0.20672 0.09390 0.52476 0.73986 0.82576
  -2   8  -4   21.41    1.35   1-0.62844-0.16619 0.34336 0.77192-0.69796-0.61361
   2  -8   4   20.71    1.23   1-0.31501-0.77716 0.88224 0.45420-0.34985-0.43556
   2  -8   5    1.20    0.69   1-0.39591-0.84990 0.80616 0.33552 0.43970 0.40631
  -2   8  -5    1.31    0.61   1-0.66361-0.21051 0.12813 0.59989 0.73701 0.77188
  -2   8  -5    1.19    0.43   1-0.65188-0.19647 0.22557 0.69563-0.72399-0.69101
   2  -8   5    1.03    0.54   1-0.36356-0.81974 0.83951 0.37044-0.40377-0.43678
   2  -8   6    4.30    1.09   1-0.39210-0.83977 0.81031 0.29890 0.43547 0.45324
  -2   8  -6    5.69    0.77   1-0.66170-0.21495 0.14855 0.66122 0.73489 0.71873
  -2   8  -6    5.07    0.60   1-0.66539-0.21631 0.10550 0.61626-0.73899-0.75725
   2  -8   6    5.53    0.70   1-0.40527-0.85539 0.79571 0.28612-0.45010-0.43178
   2  -8   7   -0.09    1.04   1-0.38499-0.82635 0.81789 0.26571 0.42758 0.49652
  -2   8  -7   -0.00    0.82   1-0.66065-0.22025 0.15862 0.71219 0.73373 0.66653
  -2   8  -7    0.14    0.55   1-0.66906-0.22631-0.01430 0.53715-0.74306-0.81255
   2  -8   7    0.04    0.58   1-0.44071-0.88476 0.75245 0.20235-0.48946-0.41980
  -2   8  -8    1.35    0.43   1-0.66341-0.22699-0.13048 0.46167-0.73679-0.85751
   2  -8   8    1.20    0.92   1-0.47003-0.90802 0.71172 0.12110-0.52203-0.40103
   2  -8   9    3.18    0.90   1-0.36325-0.79198 0.83981 0.20610 0.40343 0.57470
  -2   8  -9    2.71    1.29   1-0.66091-0.23321 0.15624 0.79162 0.73401 0.56474
  -2   8  -9    3.15    0.57   1-0.64948-0.21940-0.24054 0.39231-0.72132-0.89328
   2  -8   9    3.23    0.76   1-0.49367-0.92559 0.67502 0.04388-0.54828-0.37595
   2  -8  10   10.33    1.44   1-0.34932-0.77173 0.85290 0.17844 0.38796 0.61039
  -2   8 -10    9.53    1.39   1-0.66190-0.24055 0.14658 0.82286 0.73511 0.51481
  -2   8 -10   10.89    0.88   1-0.62855-0.20480-0.34292 0.33063-0.69808-0.92127
   2  -8  11    1.74    1.27   1-0.33364-0.74973 0.86682 0.15159 0.37054 0.64414
  -2   8 -11    1.38    0.85   1-0.66323-0.24823 0.13247 0.84965 0.73659 0.46525
  -2   8 -11    2.16    0.63   1-0.60189-0.18447-0.43689 0.27736-0.66846-0.94288
   2  -8  12    9.78    1.11   1-0.31633-0.72610 0.88119 0.12520 0.35132 0.67608
  -2   8 -12   11.90    1.18   1-0.66472-0.25608 0.11453 0.87261 0.73825 0.41587
  -2   8 -12   11.86    0.81   1-0.57061-0.15952-0.52229 0.23266-0.63372-0.95938
  -2   7   9    2.00    0.63   1-0.37334 0.09630-0.82987-0.94452-0.41463 0.31399
  -2   7   9    1.43    0.64   1-0.21414 0.25173 0.94740 0.83308-0.23783 0.49255
  -2   7   8    1.19    0.82   1-0.33206 0.13121-0.86817-0.94208-0.36879 0.30862
  -2   7   8    0.40    0.83   1-0.22198 0.23789 0.94336 0.86963-0.24653 0.43259
  -2   7   7   15.13    1.52   1-0.28721 0.16970-0.90319-0.93638-0.31898 0.30722
  -2   7   7   11.71    1.39   1-0.23420 0.21966 0.93674 0.90359-0.26011 0.36776
  -2   7   6    7.75    0.88   1-0.25129 0.19658 0.92680 0.93425-0.27908 0.29754
  -2   7   5   18.83    1.52   1-0.27368 0.16818 0.91252 0.96056-0.30395 0.22142
  -2   7   4    0.41    0.51   1-0.30175 0.13411 0.89253 0.98116-0.33513 0.13899
  -2   7   3    1.68    0.74   1-0.33566 0.09420 0.86507 0.99429-0.37279 0.05008
  -2   7   2    0.42    0.69   1-0.37610 0.04820 0.82707 0.99773-0.41771-0.04684
   2  -7  -2    0.24    0.66   1 0.00418-0.41968 0.99997 0.83016 0.00464-0.36698
   2  -7  -1    0.77    0.51   1-0.33966-0.75728 0.86158 0.65049 0.37723 0.05814
  -2   7   1    0.63    0.27   1-0.53562-0.11829-0.59936-0.38750 0.59487 0.91424
  -2   7   1    0.62    0.47   1-0.42048-0.00223 0.77788 0.98906-0.46699-0.14746
   2  -7  -1    0.19    0.65   1-0.06295-0.48082 0.99556 0.78516-0.06991-0.39029
   2  -7   0    0.93    0.44   1-0.41051-0.82181 0.78968 0.53783 0.45592 0.18800
  -2   7   0    1.01    0.34   1-0.63429-0.22303-0.31845-0.06600 0.70445 0.97257
  -2   7   0    0.96    0.62   1-0.46816-0.05598 0.71447 0.96617-0.51994-0.25175
   2  -7   0    1.20    0.48   1-0.13162-0.54349 0.98046 0.72946-0.14618-0.41531
   2  -7   1    0.00    0.56   1-0.43977-0.84475 0.75369 0.46108 0.48841 0.27165
  -2   7  -1    0.04    0.36   1-0.66267-0.25841-0.13855 0.15451 0.73597 0.95359
  -2   7  -1    0.23    0.56   1-0.51674-0.11063 0.63529 0.92751-0.57390-0.35704
   2  -7   1    0.29    0.44   1-0.20009-0.60596 0.95424 0.66265-0.22222-0.44010
   2  -7   2    7.70    0.80   1-0.45199-0.85066 0.73735 0.40398 0.50199 0.33640
  -2   7  -2    8.04    0.69   1-0.66900-0.27109-0.01909 0.31487 0.74300 0.90959
  -2   7  -2    7.34    0.65   1-0.56312-0.16307 0.54014 0.87287-0.62540-0.45988
   2  -7   2    8.27    0.69   1-0.26626-0.66612 0.91741 0.58524-0.29571-0.46234
   2  -7   3    9.89    0.90   1-0.45515-0.84751 0.73300 0.35886 0.50550 0.39107
  -2   7  -3   11.05    0.81   1-0.66795-0.27639 0.05929 0.43415 0.74183 0.85738
  -2   7  -3    9.48    0.78   1-0.60391-0.20992 0.43062 0.80387-0.67071-0.55652
   2  -7   3   10.14    0.87   1-0.32799-0.72185 0.87162 0.49886-0.36427-0.47964
   2  -7   4    8.76    0.89   1-0.45269-0.83873 0.73640 0.32149 0.50277 0.43951
  -2   7  -4    9.95    0.87   1-0.66505-0.27984 0.11021 0.52598 0.73861 0.80313
  -2   7  -4    9.35    0.68   1-0.63612-0.24820 0.31020 0.72396-0.70648-0.64363
   2  -7   4    9.48    0.90   1-0.38430-0.77221 0.81862 0.40485-0.42681-0.48965
   2  -7   5  163.42    5.59   1-0.44635-0.82606 0.74500 0.28933 0.49572 0.48362
  -2   7  -5  168.86    5.43   1-0.66234-0.28348 0.14208 0.59875 0.73560 0.74908
  -2   7  -5  173.17    5.57   1-0.65792-0.27691 0.18221 0.63738-0.73070-0.71906
   2  -7   5  168.68    5.79   1-0.43228-0.81413 0.76330 0.30901-0.48010-0.49161
   2  -7   6    4.86    1.04   1-0.43709-0.81049 0.75716 0.26072 0.48544 0.52451
  -2   7  -6    5.00    0.97   1-0.66048-0.28798 0.16019 0.65776 0.73354 0.69599
  -2   7  -6    5.40    0.52   1-0.66813-0.29345 0.05452 0.55038-0.74203-0.78163
   2  -7   6    5.12    0.83   1-0.47238-0.84817 0.70823 0.21343-0.52464-0.48481
   2  -7   7    2.65    1.06   1-0.42551-0.79260 0.77175 0.23455 0.47258 0.56282
  -2   7  -7    2.59    0.97   1-0.65961-0.29345 0.16803 0.70651 0.73257 0.64399
  -2   7  -7    2.28    0.54   1-0.66750-0.29915-0.06966 0.46689-0.74133-0.83217
   2  -7   7    2.04    0.63   1-0.50486-0.87458 0.65629 0.12097-0.56070-0.46954
   2  -7   8   18.56    1.49   1-0.41198-0.77275 0.78798 0.21002 0.45754 0.59895
  -2   7  -8   17.65    1.57   1-0.65962-0.29982 0.16794 0.74732 0.73258 0.59296
  -2   7  -8   19.05    1.40   1-0.65731-0.29530-0.18707 0.39019-0.73002-0.87209
   2  -7   8   18.09    1.42   1-0.53043-0.89409 0.60957 0.03374-0.58911-0.44661
   2  -7   9   22.79    1.68   1-0.39673-0.75118 0.80527 0.18654 0.44061 0.63318
  -2   7  -9   23.46    2.05   1-0.66034-0.30688 0.16155 0.78183 0.73338 0.54272
  -2   7  -9   21.82    1.28   1-0.63920-0.28351-0.29573 0.32223-0.70990-0.90320
   2  -7   9   20.30    1.86   1-0.55007-0.90765 0.56938-0.04696-0.61091-0.41707
   2  -7  10   21.61    2.23   1-0.37992-0.72806 0.82317 0.16368 0.42194 0.66568
  -2   7 -10   23.56    2.11   1-0.66156-0.31445 0.14999 0.81118 0.73473 0.49304
  -2   7 -10   22.34    1.91   1-0.61477-0.26542-0.39478 0.26388-0.68278-0.92731
   2  -7  11    5.81    0.96   1-0.36166-0.70348 0.84134 0.14109 0.40166 0.69656
  -2   7 -11    6.31    0.94   1-0.66308-0.32233 0.13410 0.83619 0.73643 0.44370
  -2   7 -11    6.82    0.74   1-0.58546-0.24244-0.48417 0.21518-0.65022-0.94599
   2  -7  12   12.94    1.71   1-0.34200-0.67751 0.85951 0.11849 0.37983 0.72590
  -2   7 -12   16.20    1.67   1-0.66473-0.33033 0.11447 0.85746 0.73825 0.39449
  -2   7 -12   16.01    1.57   1-0.55232-0.21629-0.56449 0.17622-0.61341-0.96029
  -2   6  10    0.28    0.58   1-0.41513-0.01349-0.78427-0.95462-0.46105 0.29749
  -2   6  10   -0.19    0.89   1-0.17607 0.22151 0.96475 0.79515-0.19555 0.56450
  -2   6   9    1.84    0.81   1-0.37592 0.01935-0.82726-0.95688-0.41750 0.28982
  -2   6   9    2.01    0.89   1-0.17978 0.21181 0.96323 0.83421-0.19966 0.50913
  -2   6   8    0.34    0.74   1-0.33279 0.05611-0.86754-0.95643-0.36960 0.28650
  -2   6   8    0.16    0.56   1-0.18780 0.19778 0.95980 0.87137-0.20857 0.44897
  -2   6   7    3.17    0.76   1-0.28533 0.09722-0.90452-0.95267-0.31689 0.28800
  -2   6   7    3.05    0.61   1-0.20072 0.17886 0.95394 0.90610-0.22293 0.38337
  -2   6   6    3.27    0.78   1-0.21919 0.15439 0.94482 0.93757-0.24343 0.31161
  -2   6   5    0.00    0.48   1-0.24385 0.12373 0.93123 0.96457-0.27082 0.23297
  -2   6   4    8.06    0.93   1-0.27528 0.08630 0.91145 0.98539-0.30573 0.14682
  -2   6   3   29.33    1.43   1-0.31381 0.04177 0.88320 0.99773-0.34852 0.05277
   2  -6  -3   32.72    1.38   1 0.04496-0.31061 0.99773 0.88321 0.04994-0.35135
   2  -6  -2   16.18    1.12   1-0.43769-0.78736 0.75638 0.60103 0.48611 0.13715
  -2   6   2   15.68    1.03   1-0.25964 0.08967-0.92164-0.76533 0.28836 0.63735
  -2   6   2   13.84    1.00   1-0.36015-0.01016 0.84279 0.99866-0.39998-0.05061
   2  -6  -2   16.20    0.93   1-0.02787-0.37745 0.99913 0.84401-0.03095-0.38100
   2  -6  -1   55.62    2.40   1-0.50434-0.84769 0.65717 0.46106 0.56013 0.26234
  -2   6   1   57.87    2.25   1-0.54065-0.19757-0.58919-0.39230 0.60045 0.89836
  -2   6   1   56.80    2.32   1-0.41146-0.06755 0.78858 0.98497-0.45697-0.15895
   2  -6  -1   64.57    2.38   1-0.10437-0.44795 0.98776 0.79205-0.11591-0.41471
   2  -6   0   34.75    1.73   1-0.52196-0.85899 0.62570 0.38883 0.57969 0.33307
  -2   6   0   37.59    1.70   1-0.63451-0.29751-0.31745-0.07996 0.70470 0.95136
  -2   6   0   36.41    2.00   1-0.46648-0.12863 0.71692 0.95383-0.51808-0.27138
   2  -6   0   39.12    1.84   1-0.18252-0.52010 0.96207 0.72577-0.20271-0.45026
   2  -6   1   24.47    1.40   1-0.52522-0.85594 0.61957 0.34193 0.58332 0.38787
  -2   6  -1   28.71    1.46   1-0.66283-0.33280-0.13689 0.14106 0.73614 0.93238
  -2   6  -1   26.32    1.31   1-0.52174-0.18995 0.62611 0.90354-0.57945-0.38409
   2  -6   1   27.40    1.42   1-0.25953-0.59111 0.92171 0.64482-0.28824-0.48454
   2  -6   2   42.35    2.00   1-0.52173-0.84613 0.62612 0.30772 0.57944 0.43515
  -2   6  -2   53.33    2.29   1-0.66904-0.34537-0.01600 0.30286 0.74304 0.88824
  -2   6  -2   44.04    1.83   1-0.57289-0.24717 0.51668 0.83462-0.63626-0.49224
   2  -6   2   47.68    2.20   1-0.33219-0.65777 0.86805 0.55057-0.36894-0.51399
   2  -6   3   18.23    1.30   1-0.51423-0.83231 0.63984 0.28067 0.57111 0.47798
  -2   6  -3   19.28    1.14   1-0.66781-0.35049 0.06273 0.42251 0.74168 0.83584
  -2   6  -3   18.14    0.99   1-0.61558-0.29593 0.39197 0.75043-0.68367-0.59099
   2  -6   3   18.61    1.08   1-0.39841-0.71806 0.80341 0.44495-0.44248-0.53516
   2  -6   4   30.87    1.65   1-0.50396-0.81573 0.65783 0.25790 0.55970 0.51775
  -2   6  -4   33.96    1.65   1-0.66483-0.35386 0.11316 0.51384 0.73837 0.78150
  -2   6  -4   30.97    1.52   1-0.64653-0.33294 0.25770 0.65667-0.71804-0.67670
   2  -6   4   32.88    1.60   1-0.45429-0.76787 0.73420 0.33523-0.50454-0.54588
   2  -6   5    2.16    0.68   1-0.49158-0.79703 0.67843 0.23774 0.54596 0.55517
  -2   6  -5    2.76    0.61   1-0.66215-0.35753 0.14401 0.58559 0.73539 0.72749
  -2   6  -5    2.43    0.41   1-0.66434-0.35773 0.11937 0.55965-0.73783-0.74754
   2  -6   5    2.25    0.52   1-0.49994-0.80746 0.66464 0.22514-0.55524-0.54525
   2  -6   6   34.00    2.08   1-0.47746-0.77660 0.70059 0.21913 0.53027 0.59065
  -2   6  -6   36.38    1.98   1-0.66042-0.36215 0.16083 0.64331 0.73347 0.67453
  -2   6  -6   37.02    1.71   1-0.66905-0.36877-0.01453 0.46644-0.74306-0.80401
   2  -6   6   36.92    1.72   1-0.53579-0.83723 0.59903 0.11902-0.59505-0.53372
   2  -6   7    2.36    0.73   1-0.46182-0.75464 0.72362 0.20140 0.51291 0.62445
  -2   6  -7    2.17    0.92   1-0.65970-0.36779 0.16724 0.69062 0.73267 0.62270
  -2   6  -7    2.64    0.42   1-0.66248-0.36852-0.14064 0.38103-0.73575-0.84793
   2  -6   7    2.37    0.57   1-0.56300-0.85838 0.54041 0.01988-0.62528-0.51261
   2  -6   8    3.97    0.87   1-0.44481-0.73132 0.74704 0.18406 0.49401 0.65672
  -2   6  -8    3.89    1.07   1-0.65988-0.37431 0.16568 0.72996 0.73287 0.57186
  -2   6  -8    4.29    0.70   1-0.64675-0.35913-0.25642 0.30594-0.71829-0.88171
   2  -6   8    4.47    0.92   1-0.58311-0.87243 0.49047-0.07056-0.64761-0.48361
   2  -6   9    0.52    1.01   1-0.42651-0.70670 0.77051 0.16676 0.47369 0.68757
  -2   6  -9   -0.05    0.86   1-0.66074-0.38153 0.15780 0.76299 0.73383 0.52179
  -2   6  -9   -0.03    0.39   1-0.62402-0.34273-0.36095 0.24212-0.69304-0.90769
   2  -6  10    2.85    0.83   1-0.40698-0.68085 0.79375 0.14924 0.45200 0.71704
  -2   6 -10    3.17    0.81   1-0.66207-0.38921 0.14479 0.79088 0.73531 0.47223
  -2   6 -10    2.88    0.50   1-0.59608-0.32112-0.45434 0.18943-0.66201-0.92789
   2  -6  11    1.05    1.15   1-0.38625-0.65380 0.81656 0.13129 0.42897 0.74518
  -2   6 -11    1.25    0.78   1-0.66367-0.39716 0.12747 0.81446 0.73708 0.42297
  -2   6 -11    1.24    0.52   1-0.56426-0.29624-0.53746 0.14754-0.62668-0.94364
   2  -6  12    8.69    1.21   1-0.36431-0.62555 0.83878 0.11274 0.40461 0.77198
  -2   6 -12    9.64    1.24   1-0.66532-0.40516 0.10644 0.83434 0.73892 0.37377
  -2   6 -12    8.41    0.94   1-0.52974-0.26808-0.61091 0.11483-0.58834-0.95652
   2  -6  13    1.54    1.23   1-0.34117-0.59610 0.86024 0.09343 0.37891 0.79745
  -2   6 -13    2.26    1.23   1-0.66686-0.41306 0.08214 0.85094 0.74063 0.32445
  -2   6 -13    1.86    0.64   1-0.49313-0.23783-0.67591 0.09056-0.54768-0.96707
  -2   5  11    2.43    0.65   1-0.45994-0.12631-0.72629-0.95234-0.51082 0.27763
  -2   5  11    1.42    0.68   1-0.14223 0.18707 0.97714 0.75225-0.15797 0.63175
  -2   5  10    8.29    1.21   1-0.42394-0.09666-0.77368-0.95900-0.47083 0.26640
  -2   5  10    6.33    0.77   1-0.14148 0.18182 0.97738 0.79308-0.15714 0.58133
   2  -5  -9    7.45    1.41   1-0.66911-0.98842-0.00590 0.14025 0.74313 0.05792
   2  -5  -9    8.30    1.39   1-0.41297-0.73033-0.78682-0.64397 0.45865-0.22783
  -2   5   9    9.32    1.10   1-0.38389-0.06297-0.81905-0.96364-0.42635 0.25966
  -2   5   9    7.74    0.95   1-0.14483 0.17246 0.97629 0.83258-0.16086 0.52636
   2  -5  -8    7.10    0.98   1-0.66808-0.98103 0.05581 0.16106 0.74198 0.10781
   2  -5  -8    8.12    1.15   1-0.45939-0.77068-0.72707-0.62482 0.51020-0.12502
  -2   5   8    8.67    1.00   1-0.33923-0.02468-0.86196-0.96581-0.37675 0.25805
  -2   5   8    6.89    0.84   1-0.15291 0.15838 0.97353 0.87041-0.16983 0.46614
   2  -5  -7    7.77    0.83   1-0.66452-0.97112 0.11708 0.18143 0.73803 0.15489
   2  -5  -7    8.39    0.88   1-0.52727-0.83250-0.61567-0.55401 0.58560 0.00161
  -2   5   7    9.32    0.94   1-0.28932 0.01886-0.90168-0.96481-0.32132 0.26226
  -2   5   7    7.49    0.88   1-0.16649 0.13881 0.96855 0.90602-0.18490 0.39981
   2  -5  -6   10.01    0.99   1-0.65776-0.95802 0.18349 0.20694 0.73052 0.19841
  -2   5   6   10.49    0.94   1-0.18643 0.11286 0.96039 0.93846-0.20705 0.32641
   2  -5  -3   38.73    2.03   1-0.64564-0.92684 0.26258 0.16332 0.71706 0.33807
  -2   5   3   44.72    2.63   1 0.12418 0.40491-0.98262-0.88190-0.13792 0.24141
  -2   5   3   43.36    2.03   1-0.29353-0.01222 0.89864 0.99848-0.32599 0.05372
   2  -5  -3   45.70    1.87   1 0.02399-0.25730 0.99935 0.89952 0.02665-0.35306
   2  -5  -2    4.27    0.53   1-0.63423-0.90907 0.31869 0.17852 0.70439 0.37643
  -2   5   2    4.56    0.51   1-0.29123-0.01619-0.90030-0.75890 0.32345 0.65099
  -2   5   2    4.43    0.54   1-0.34654-0.07124 0.85543 0.99586-0.38488-0.05640
   2  -5  -2    4.88    0.64   1-0.05962-0.33492 0.99602 0.85559-0.06621-0.39469
   2  -5  -1   16.06    1.00   1-0.62242-0.89091 0.36705 0.18598 0.69127 0.41435
  -2   5   1   16.13    0.82   1-0.52977-0.26095-0.61087-0.42894 0.58836 0.86481
  -2   5   1   16.20    1.03   1-0.40762-0.13804 0.79302 0.97463-0.45271-0.17618
   2  -5  -1   17.53    0.99   1-0.14806-0.41736 0.97521 0.79419-0.16444-0.44166
   2  -5   0    2.29    0.60   1-0.60980-0.87194 0.41164 0.18966 0.67726 0.45137
  -2   5   0    2.49    0.47   1-0.62813-0.36538-0.34464-0.12211 0.69761 0.92281
  -2   5   0    1.98    0.54   1-0.47171-0.20819 0.70924 0.93135-0.52389-0.29870
   2  -5   0    2.25    0.56   1-0.23795-0.50125 0.93463 0.71302-0.26427-0.49024
   2  -5   1    0.17    0.38   1-0.59628-0.85206 0.45373 0.19086 0.66224 0.48739
  -2   5  -1    0.36    0.45   1-0.66059-0.40480-0.15925 0.10362 0.73366 0.90851
  -2   5  -1    0.24    0.33   1-0.53443-0.27698 0.60173 0.86437-0.59354-0.41969
   2  -5   1    0.10    0.44   1-0.32465-0.58195 0.87440 0.61221-0.36056-0.53528
   2  -5   2    2.21    0.69   1-0.58182-0.83125 0.49388 0.19010 0.64618 0.52236
  -2   5  -2    2.03    0.45   1-0.66876-0.41933-0.03313 0.27064 0.74273 0.86655
  -2   5  -2    1.81    0.38   1-0.58956-0.33818 0.47294 0.77609-0.65477-0.53226
   2  -5   2    2.07    0.44   1-0.40410-0.65548 0.79703 0.49388-0.44880-0.57132
   2  -5   3    1.29    0.51   1-0.56517-0.80899 0.53532 0.19113 0.62769 0.55587
  -2   5  -3    1.41    0.46   1-0.66833-0.42525 0.04885 0.39354 0.74225 0.81503
  -2   5  -3    1.14    0.46   1-0.63175-0.38644 0.32951 0.67318-0.70164-0.63046
   2  -5   3    1.35    0.55   1-0.47058-0.71590 0.71091 0.36724-0.52263-0.59381
   2  -5   4   12.53    1.06   1-0.54877-0.78627 0.57216 0.18721 0.60948 0.58882
  -2   5  -4   12.79    0.98   1-0.66571-0.42898 0.10094 0.48652 0.73934 0.76109
  -2   5  -4   12.50    0.90   1-0.65823-0.41969 0.17969 0.56437-0.73104-0.71087
   2  -5   4   12.34    0.81   1-0.52338-0.76262 0.62305 0.23886-0.58127-0.60111
   2  -5   5   17.82    1.18   1-0.53144-0.76262 0.60762 0.18190 0.59022 0.62073
  -2   5  -5   18.10    1.12   1-0.66324-0.43286 0.13237 0.55886 0.73660 0.70731
  -2   5  -5   18.83    0.98   1-0.66875-0.43653 0.03363 0.45901-0.74272-0.77378
   2  -5   5   18.73    1.08   1-0.56305-0.79623 0.54030 0.11559-0.62533-0.59384
   2  -5   6    9.67    1.07   1-0.51316-0.73803 0.64175 0.17527 0.56992 0.65160
  -2   5  -6    9.43    0.84   1-0.66164-0.43762 0.14913 0.61652 0.73483 0.65451
  -2   5  -6    9.69    0.75   1-0.66557-0.43968-0.10299 0.36309-0.73919-0.82148
   2  -5   6    9.81    0.71   1-0.59159-0.81871 0.46724 0.00202-0.65703-0.57420
   2  -5   7  201.10    6.40   1-0.49394-0.71249 0.67459 0.16734 0.54858 0.68142
  -2   5  -7  199.05    6.23   1-0.66103-0.44336 0.15508 0.66337 0.73415 0.60279
  -2   5  -7  218.85    2.92   1-0.65167-0.43212-0.22691 0.27987-0.72376-0.85728
   2  -5   7  213.83    3.44   1-0.61147-0.83252 0.40607-0.09966-0.67911-0.54494
   2  -5   8    1.61    0.93   1-0.47377-0.68601 0.70616 0.15815 0.52618 0.71019
  -2   5  -8    1.16    0.63   1-0.66127-0.44995 0.15281 0.70200 0.73441 0.55202
  -2   5  -8    1.55    0.54   1-0.62993-0.41672-0.33720 0.21027-0.69961-0.88437
   2  -5   8    1.70    0.65   1-0.62499-0.83997 0.35717-0.18907-0.69412-0.50861
   2  -5   9    4.88    0.83   1-0.45264-0.65856 0.73647 0.14770 0.50271 0.73788
  -2   5  -9    4.04    0.77   1-0.66214-0.45717 0.14408 0.73418 0.73539 0.50196
  -2   5  -9    4.75    0.67   1-0.60270-0.39581-0.43439 0.15378-0.66936-0.90536
   2  -5  10   24.66    2.12   1-0.43052-0.63012 0.76552 0.13598 0.47814 0.76449
  -2   5 -10   26.60    2.06   1-0.66344-0.46482 0.13011 0.76112 0.73682 0.45236
  -2   5 -10   24.96    1.87   1-0.57167-0.37112-0.51968 0.10919-0.63491-0.92214
   2  -5  11    9.74    1.23   1-0.40739-0.60068 0.79328 0.12298 0.45245 0.78996
  -2   5 -11   11.45    1.28   1-0.66493-0.47266 0.11179 0.78369 0.73848 0.40298
  -2   5 -11   11.34    1.10   1-0.53801-0.34435-0.59456 0.07548-0.59752-0.93579
   2  -5  12   22.11    2.55   1-0.38322-0.57019 0.81975 0.10868 0.42561 0.81428
  -2   5 -12   23.01    2.57   1-0.66643-0.48051 0.08972 0.80253 0.74014 0.35361
  -2   5 -12   20.68    2.13   1-0.50257-0.31527-0.66020 0.05057-0.55816-0.94765
   2  -5  13    4.66    1.04   1-0.35796-0.53861 0.84487 0.09304 0.39755 0.83739
  -2   5 -13    5.03    0.96   1-0.66774-0.48817 0.06436 0.81807 0.74160 0.30403
  -2   5 -13    4.81    0.90   1-0.46576-0.28483-0.71796 0.03354-0.51728-0.95798
  -2   4  12    1.63    0.88   1-0.50592-0.24029-0.65445-0.93620-0.56189 0.25646
  -2   4  12    1.15    0.96   1-0.11349 0.14753 0.98551 0.70533-0.12604 0.69334
   2  -4 -11    0.59    0.64   1-0.66166-0.91941 0.14899 0.39205 0.73484-0.03103
   2  -4 -11    0.42    0.75   1-0.21790-0.47291-0.94548-0.70705 0.24201-0.52576
  -2   4  11    0.40    0.83   1-0.47419-0.21492-0.70553-0.94655-0.52664 0.24050
  -2   4  11   -0.11    0.90   1-0.10811 0.14690 0.98685 0.74727-0.12007 0.64806
   2  -4 -10   20.66    1.86   1-0.65160-0.90301 0.22737 0.42952 0.72367 0.00882
   2  -4 -10   13.73    2.13   1-0.22017-0.46914-0.94431-0.74642 0.24452-0.47196
  -2   4  10   17.70    1.66   1-0.43853-0.18562-0.75530-0.95558-0.48703 0.22889
  -2   4  10   14.51    1.52   1-0.10650 0.14252 0.98725 0.78825-0.11828 0.59860
   2  -4  -9    9.22    0.99   1-0.63634-0.88140 0.30915 0.47040 0.70673 0.04292
   2  -4  -9    7.49    1.26   1-0.23326-0.47621-0.93726-0.77992 0.25906-0.40611
  -2   4   9    8.13    0.85   1-0.39831-0.15176-0.80352-0.96308-0.44236 0.22234
  -2   4   9    6.49    1.01   1-0.10927 0.13374 0.98657 0.82817-0.12136 0.54427
   2  -4  -8    0.19    0.48   1-0.61401-0.85272 0.39742 0.51776 0.68193 0.06915
   2  -4  -8    0.08    0.44   1-0.26009-0.49702-0.92136-0.80457 0.28886-0.32502
  -2   4   8    0.01    0.45   1-0.35273-0.11255-0.84976-0.96858-0.39175 0.22174
  -2   4   8    0.06    0.74   1-0.11723 0.11978 0.98453 0.86672-0.13020 0.48419
   2  -4  -7    6.26    0.79   1-0.58076-0.81311 0.49668 0.57612 0.64499 0.08325
   2  -4  -7    5.57    0.77   1-0.30442-0.53532-0.89051-0.81426 0.33810-0.22448
  -2   4   7    6.09    0.60   1-0.30084-0.06703-0.89322-0.97131-0.33412 0.22815
  -2   4   7    5.58    0.66   1-0.13137 0.09964 0.98053 0.90331-0.14590 0.41723
   2  -4  -6    2.36    0.50   1-0.52779-0.75418 0.61467 0.65234 0.58617 0.07516
   2  -4  -6    1.91    0.42   1-0.36995-0.59482-0.83325-0.79755 0.41088-0.10041
  -2   4   6    1.97    0.46   1-0.24149-0.01404-0.93260-0.96995-0.26820 0.24286
  -2   4   6    2.06    0.53   1-0.15291 0.07210 0.97353 0.93690-0.16983 0.34206
   2  -4  -5    3.55    0.58   1-0.43907-0.65915 0.75459 0.75149 0.48764 0.02780
   2  -4  -5    2.54    0.39   1-0.45576-0.67459-0.73216-0.73674 0.50617 0.04617
  -2   4   5    3.36    0.68   1-0.18326 0.03575 0.96176 0.96572-0.20354 0.25710
   2  -4  -4    2.15    0.47   1-0.28116-0.49492 0.90743 0.86357 0.31226-0.09641
   2  -4  -4    1.93    0.38   1-0.55077-0.76353-0.56787-0.61304 0.61169 0.20294
  -2   4   4    1.95    0.61   1-0.22385-0.01083 0.94237 0.98693-0.24861 0.16077
   2  -4  -3   13.80    0.88   1-0.62615-0.83284-0.35260-0.43838 0.69541 0.33791
  -2   4   3   14.70    0.86   1 0.01587 0.22266-0.99971-0.91377-0.01762 0.33977
  -2   4   3   13.06    1.09   1-0.27574-0.06872 0.91114 0.99628-0.30624 0.05189
   2  -4  -3   14.78    0.99   1 0.00669-0.20032 0.99994 0.91480 0.00743-0.35071
   2  -4  -2    7.55    0.66   1-0.66237-0.86297-0.14170-0.26677 0.73564 0.42907
  -2   4   2    8.56    0.68   1-0.28401-0.08325-0.90544-0.77895 0.31543 0.62153
  -2   4   2    7.76    0.86   1-0.33886-0.13785 0.86228 0.98801-0.37635-0.06946
   2  -4  -2    8.84    0.63   1-0.09110-0.29211 0.99068 0.86495-0.10117-0.40807
   2  -4  -1   46.30    1.84   1-0.66877-0.86302 0.03250-0.13347 0.74275 0.48721
  -2   4   1   44.42    1.62   1-0.50341-0.30885-0.65877-0.49180 0.55909 0.81408
  -2   4   1   45.59    1.90   1-0.41170-0.21645 0.78830 0.95512-0.45724-0.20221
   2  -4  -1   45.87    1.78   1-0.19534-0.39035 0.95643 0.79011-0.21694-0.47259
   2  -4   0   35.73    1.70   1-0.65999-0.84788 0.16469-0.04219 0.73299 0.52849
  -2   4   0   36.53    1.49   1-0.61299-0.42450-0.40092-0.19335 0.68080 0.88453
  -2   4   0   34.82    1.56   1-0.48701-0.29784 0.68574 0.89307-0.54089-0.33720
   2  -4   0   36.97    1.56   1-0.29998-0.48899 0.89387 0.68695-0.33316-0.53755
   2  -4   1  111.00    3.58   1-0.64487-0.82641 0.26680 0.01902 0.71620 0.56274
  -2   4  -1  109.67    3.17   1-0.65441-0.47286-0.20860 0.03918 0.72679 0.88025
  -2   4  -1  107.20    3.17   1-0.55720-0.37409 0.55367 0.80152-0.61883-0.46648
   2  -4   1  110.74    3.22   1-0.39789-0.58100 0.80399 0.55614-0.44190-0.59425
   2  -4   2   90.98    3.22   1-0.62703-0.80222 0.34909 0.06041 0.69639 0.59396
  -2   4  -2   94.38    3.14   1-0.66731-0.49212-0.07367 0.21501 0.74112 0.84355
  -2   4  -2   88.28    2.66   1-0.61351-0.43647 0.39914 0.68750-0.68138-0.58036
   2  -4   2   91.10    3.05   1-0.47962-0.65666 0.69729 0.40893-0.53267-0.63368
   2  -4   3   34.84    1.80   1-0.60782-0.77666 0.41814 0.08855 0.67505 0.62366
  -2   4  -3   36.21    1.69   1-0.66905-0.50022 0.01481 0.34440 0.74306 0.79445
  -2   4  -3   33.35    1.40   1-0.65044-0.47947 0.23463 0.56351-0.72239-0.67272
   2  -4   3   34.16    1.58   1-0.54239-0.71337 0.58560 0.25672-0.60238-0.65206
   2  -4   4   54.30    2.21   1-0.58773-0.75022 0.47800 0.10751 0.65274 0.65238
  -2   4  -4   59.38    2.42   1-0.66743-0.50494 0.07111 0.44161 0.74126 0.74162
  -2   4  -4   58.13    2.10   1-0.66736-0.50321 0.07256 0.44235-0.74118-0.74235
   2  -4   4   55.15    1.94   1-0.58680-0.75171 0.48055 0.11115-0.65171-0.65005
   2  -4   5   30.32    1.36   1-0.56573-0.72265 0.53400 0.12326 0.62831 0.68013
  -2   4  -5   32.12    1.36   1-0.66542-0.50928 0.10512 0.51652 0.73902 0.68835
  -2   4  -5   31.63    1.32   1-0.66714-0.50932-0.07702 0.33346-0.74093-0.79334
   2  -4   5   31.33    1.23   1-0.61629-0.77513 0.38948-0.02042-0.68445-0.63146
   2  -4   6   37.93    1.95   1-0.54414-0.69474 0.58195 0.13045 0.60433 0.70732
  -2   4  -6   39.44    1.81   1-0.66402-0.51423 0.12334 0.57564 0.73746 0.63576
  -2   4  -6   39.72    1.61   1-0.65418-0.50269-0.21017 0.24101-0.72654-0.83018
   2  -4   6   38.52    1.70   1-0.63501-0.78779 0.31523-0.13519-0.70525-0.60091
   2  -4   7    1.56    0.61   1-0.52187-0.66615 0.62587 0.13360 0.57959 0.73374
  -2   4  -7    1.76    0.59   1-0.66345-0.52001 0.13003 0.62323 0.73683 0.58409
  -2   4  -7    1.73    0.46   1-0.63251-0.48736-0.32627 0.16561-0.70247-0.85735
   2  -4   7    1.36    0.61   1-0.64654-0.79326 0.25760-0.23334-0.71806-0.56239
   2  -4   8   36.45    1.80   1-0.49886-0.63683 0.66645 0.13341 0.55405 0.75936
  -2   4  -8   37.92    1.79   1-0.66362-0.52654 0.12800 0.66211 0.73703 0.53325
  -2   4  -8   39.28    1.78   1-0.60517-0.46635-0.42663 0.10595-0.67211-0.87822
   2  -4   8   37.27    1.82   1-0.65367-0.79249 0.21370-0.31888-0.72597-0.51986
   2  -4   9    2.45    0.99   1-0.47509-0.60674 0.70418 0.13038 0.52764 0.78412
  -2   4  -9    2.07    0.70   1-0.66435-0.53363 0.11919 0.69420 0.73784 0.48303
  -2   4  -9    2.76    0.63   1-0.57425-0.44176-0.51328 0.06000-0.63777-0.89512
   2  -4   9    1.32    0.79   1-0.65772-0.79021 0.18381-0.38947-0.73048-0.47314
   2  -4  10    1.72    0.77   1-0.45050-0.57583 0.73940 0.12484 0.50033 0.80797
  -2   4 -10    2.09    0.86   1-0.66543-0.54105 0.10492 0.72083 0.73904 0.43319
  -2   4 -10    1.92    0.52   1-0.54105-0.41540-0.58836 0.02598-0.60090-0.90926
   2  -4  10    1.45    0.87   1-0.65999-0.78614 0.16472-0.44926-0.73299-0.42441
   2  -4  11   -0.11    1.08   1-0.42502-0.54404 0.77235 0.11702 0.47204 0.83085
  -2   4 -11    0.22    1.00   1-0.66664-0.54861 0.08611 0.74293 0.74038 0.38350
  -2   4 -11    0.01    0.74   1-0.50642-0.38713-0.65359 0.00148-0.56244-0.92202
   2  -4  11   -0.26    0.66   1-0.66107-0.78090 0.15467-0.50002-0.73420-0.37439
   2  -4  12    4.24    0.95   1-0.39861-0.51132 0.80318 0.10709 0.44271 0.85268
  -2   4 -12    3.47    0.83   1-0.66778-0.55610 0.06344 0.76116 0.74164 0.33372
  -2   4 -12    2.94    0.87   1-0.47078-0.35786-0.71061-0.01479-0.52286-0.93365
   2  -4  12    2.88    0.80   1-0.66133-0.77482 0.15222-0.54316-0.73448-0.32343
   2  -4  13    0.53    0.87   1-0.37120-0.47759 0.83200 0.09515 0.41226 0.87341
  -2   4 -13    0.36    0.77   1-0.66866-0.56333 0.03738 0.77600 0.74262 0.28367
  -2   4 -13    0.64    0.88   1-0.43437-0.32781-0.76064-0.02409-0.48242-0.94443
   2  -4  13    0.20    0.93   1-0.66091-0.76807 0.15624-0.57984-0.73401-0.27173
   2  -3 -12    0.10    0.71   1-0.64971-0.83958 0.23912 0.53817 0.72158-0.07394
   2  -3 -12   -0.10    0.66   1-0.12928-0.31603-0.98115-0.68726 0.14358-0.65405
  -2   3  12   -0.23    0.56   1-0.52424-0.33298-0.62142-0.91813-0.58223 0.21481
  -2   3  12    0.11    0.66   1-0.08057 0.10616 0.99272 0.69785-0.08949 0.70832
   2  -3 -11    0.14    0.69   1-0.63509-0.81861 0.31486 0.57301 0.70534-0.03915
   2  -3 -11    0.16    0.85   1-0.11985-0.30058-0.98382-0.73048 0.13311-0.61322
  -2   3  11    0.39    0.54   1-0.49408-0.30918-0.67436-0.93035-0.54873 0.19710
  -2   3  11    0.16    0.61   1-0.07389 0.10684 0.99388 0.73961-0.08206 0.66450
   2  -3 -10    4.08    0.74   1-0.61546-0.79263 0.39237 0.60961 0.68354-0.00991
   2  -3 -10    2.54    0.87   1-0.11709-0.29179-0.98457-0.77177 0.13004-0.56499
  -2   3  10    3.55    0.61   1-0.45974-0.28120-0.72658-0.94183-0.51059 0.18402
  -2   3  10    2.74    0.64   1-0.07112 0.10361 0.99433 0.78065-0.07899 0.61631
   2  -3  -9    9.84    0.91   1-0.58951-0.76032 0.47308 0.64942 0.65472 0.01229
   2  -3  -9    6.08    1.28   1-0.12251-0.29119-0.98309-0.81084 0.13606-0.50767
  -2   3   9    8.31    0.74   1-0.42041-0.24824-0.77796-0.95248-0.46692 0.17648
  -2   3   9    6.47    0.73   1-0.07303 0.09570 0.99402 0.82093-0.08111 0.56294
   2  -3  -8   26.91    2.10   1-0.55409-0.71885 0.56059 0.69476 0.61538 0.02335
   2  -3  -8   19.92    1.80   1-0.13838-0.30103-0.97838-0.84668 0.15368-0.43875
  -2   3   8   22.59    1.71   1-0.37503-0.20922-0.82817-0.96195-0.41651 0.17567
  -2   3   8   20.42    1.59   1-0.08061 0.08211 0.99271 0.86021-0.08953 0.50327
   2  -3  -7   30.62    1.78   1-0.50686-0.66530 0.65284 0.74624 0.56292 0.02205
   2  -3  -7   25.28    2.06   1-0.16788-0.32450-0.96801-0.87686 0.18645-0.35468
  -2   3   7   26.55    1.37   1-0.32216-0.16271-0.87646-0.96951-0.35780 0.18317
  -2   3   7   24.60    1.33   1-0.09519 0.06154 0.98982 0.89791-0.10572 0.43584
   2  -3  -6   20.84    1.24   1-0.44032-0.59245 0.75296 0.80560 0.48903-0.00067
   2  -3  -6   16.94    1.19   1-0.21524-0.36583-0.94685-0.89624 0.23904-0.25079
  -2   3   6   15.91    0.93   1-0.26001-0.10692-0.92141-0.97373-0.28877 0.20099
  -2   3   6   16.35    1.04   1-0.11847 0.03226 0.98420 0.93288-0.13157 0.35873
   2  -3  -5   36.94    1.69   1-0.34303-0.48883 0.85859 0.87047 0.38097-0.05756
   2  -3  -5   37.11    1.77   1-0.28487-0.42944-0.90484-0.89479 0.31638-0.12216
  -2   3   5   34.89    1.56   1-0.15255-0.00782 0.97366 0.96293-0.16943 0.26963
   2  -3  -4   50.10    2.24   1-0.37801-0.51655-0.82514-0.85563 0.41982 0.03257
  -2   3   4   55.50    2.14   1 0.19188 0.33017-0.95799-0.92765-0.21311 0.17445
  -2   3   4   54.18    2.18   1-0.19978-0.06105 0.95438 0.98424-0.22188 0.16592
   2  -3  -3   35.06    1.50   1-0.48429-0.61672-0.69004-0.76086 0.53786 0.20182
  -2   3   3   37.05    1.53   1-0.01367 0.11884-0.99979-0.92874 0.01519 0.35114
  -2   3   3   38.26    1.67   1-0.26208-0.12934 0.92010 0.99055-0.29107 0.04549
   2  -3  -3   40.47    1.73   1-0.00497-0.13771 0.99997 0.92952-0.00552-0.34209
   2  -3  -2   68.49    2.19   1-0.58030-0.70667-0.49785-0.60927 0.64449 0.35971
  -2   3   2   71.00    2.08   1-0.25526-0.12876-0.92437-0.81278 0.28349 0.56815
  -2   3   2   69.93    2.85   1-0.33946-0.21273 0.86175 0.97279-0.37701-0.09170
   2  -3  -2   69.58    2.40   1-0.12234-0.24907 0.98314 0.87210-0.13587-0.42118
   2  -3  -1   63.36    1.93   1-0.64159-0.76188-0.28393-0.43595 0.71255 0.47903
  -2   3   1   62.93    1.92   1-0.46104-0.34074-0.72474-0.57273 0.51204 0.74556
  -2   3   1   63.14    2.46   1-0.42841-0.30750 0.76816 0.92018-0.47580-0.24228
   2  -3  -1   59.98    1.95   1-0.24852-0.36925 0.92846 0.77683-0.27601-0.51007
   2  -3   0   19.68    1.07   1-0.66612-0.77977-0.09463-0.28641 0.73980 0.55669
  -2   3   0   19.31    0.96   1-0.58535-0.47112-0.48448-0.29187 0.65010 0.83237
  -2   3   0   19.50    1.18   1-0.51696-0.40211 0.63490 0.82744-0.57414-0.39196
   2  -3   0   19.67    0.98   1-0.37263-0.48748 0.83057 0.63803-0.41385-0.59604
   2  -3   1   75.77    2.29   1-0.66769-0.77499 0.06554-0.16714 0.74154 0.60946
  -2   3  -1   76.75    2.24   1-0.64210-0.53394-0.28132-0.04811 0.71313 0.84415
  -2   3  -1   75.35    2.28   1-0.59182-0.48304 0.46660 0.69966-0.65728-0.52643
   2  -3   1   79.89    2.58   1-0.47799-0.58676 0.69979 0.46673-0.53086-0.66171
   2  -3   2   35.56    1.49   1-0.65646-0.75740 0.19366-0.07992 0.72907 0.64803
  -2   3  -2   37.09    1.45   1-0.66245-0.56150-0.14093 0.13265 0.73572 0.81677
  -2   3  -2   36.22    1.49   1-0.64221-0.53950 0.28078 0.55435-0.71324-0.63373
   2  -3   2   35.14    1.43   1-0.55618-0.65889 0.55596 0.28239-0.61770-0.69721
   2  -3   3    0.34    0.37   1-0.63886-0.73345 0.29736-0.01713 0.70952 0.67951
  -2   3  -3    0.62    0.36   1-0.66852-0.57392-0.04267 0.27182 0.74246 0.77247
  -2   3  -3    0.50    0.35   1-0.66590-0.56981 0.09812 0.41232-0.73955-0.71084
   2  -3   3    0.43    0.40   1-0.60710-0.70375 0.42046 0.10637-0.67426-0.70243
   2  -3   4    0.14    0.40   1-0.61801-0.70626 0.38333 0.02793 0.68637 0.70740
  -2   3  -4    0.17    0.37   1-0.66898-0.58074 0.02078 0.37618 0.74298 0.72195
  -2   3  -4    0.06    0.24   1-0.66759-0.57784-0.06772 0.28717-0.74143-0.76395
   2  -3   4    0.20    0.29   1-0.63700-0.72758 0.30612-0.04848-0.70746-0.68430
   2  -3   5    0.65    0.45   1-0.59536-0.67725 0.45642 0.06012 0.66122 0.73328
  -2   3  -5    1.03    0.45   1-0.66793-0.58604 0.05974 0.45604 0.74181 0.66975
  -2   3  -5    0.77    0.29   1-0.65406-0.57064-0.21097 0.18462-0.72641-0.80017
   2  -3   5    1.00    0.35   1-0.65334-0.73676 0.21596-0.17963-0.72560-0.65185
   2  -3   6    9.03    0.81   1-0.57157-0.64711 0.51994 0.08273 0.63479 0.75789
  -2   3  -6    9.10    0.91   1-0.66691-0.59137 0.08131 0.51851 0.74068 0.61758
  -2   3  -6    9.19    0.70   1-0.63114-0.55405-0.33215 0.10414-0.70095-0.82594
   2  -3   6    9.43    0.69   1-0.66163-0.73872 0.14925-0.28704-0.73482-0.60983
   2  -3   7   21.47    1.37   1-0.54563-0.61565 0.57883 0.10154 0.60599 0.78144
  -2   3  -7   20.69    1.33   1-0.66640-0.59721 0.09022 0.56833 0.74011 0.56598
  -2   3  -7   23.37    1.22   1-0.60276-0.53200-0.43420 0.04279-0.66943-0.84565
   2  -3   7   22.63    1.28   1-0.66564-0.73640 0.10192-0.37507-0.73927-0.56305
   2  -3   8    6.22    0.93   1-0.52010-0.58380 0.62914 0.11108 0.57763 0.80425
  -2   3  -8    6.87    0.97   1-0.66643-0.60359 0.08963 0.60865 0.74015 0.51498
  -2   3  -8    6.99    0.59   1-0.57133-0.50691-0.52051-0.00281-0.63453-0.86199
   2  -3   8    6.52    0.76   1-0.66748-0.73190 0.07018-0.44751-0.74131-0.51385
   2  -3   9  147.06    8.12   1-0.49384-0.55123 0.67475 0.11593 0.54847 0.82625
  -2   3  -9  153.55   12.97   1-0.66689-0.61040 0.08170 0.64162 0.74066 0.46445
  -2   3  -9  155.86   13.03   1-0.53823-0.48058-0.59411-0.03546-0.59777-0.87622
   2  -3   9  137.06    7.41   1-0.66826-0.72635 0.05087-0.50752-0.74218-0.46349
   2  -3  10    1.09    1.00   1-0.46683-0.51790 0.71641 0.11682 0.51847 0.84742
  -2   3 -10    0.89    0.64   1-0.66758-0.61745 0.06791 0.66872 0.74142 0.41419
  -2   3 -10    1.06    0.51   1-0.50421-0.45292-0.65740-0.05802-0.55998-0.88965
   2  -3  10    0.71    0.60   1-0.66855-0.72031 0.04149-0.55760-0.74250-0.41258
   2  -3  11    6.17    1.12   1-0.43901-0.48377 0.75467 0.11432 0.48757 0.86769
  -2   3 -11    5.60    0.81   1-0.66831-0.62453 0.04928 0.69100 0.74224 0.36397
  -2   3 -11    5.70    0.87   1-0.46961-0.42469-0.71234-0.07222-0.52156-0.90245
   2  -3  11    5.03    0.77   1-0.66859-0.71401 0.04015-0.59964-0.74254-0.36138
   2  -3  12   21.24    1.42   1-0.41033-0.44876 0.78990 0.10879 0.45571 0.88700
  -2   3 -12   20.54    1.23   1-0.66889-0.63146 0.02654 0.70917 0.74288 0.31357
  -2   3 -12   21.13    1.27   1-0.43460-0.39604-0.76035-0.07950-0.48267-0.91478
   2  -3  12   19.24    1.17   1-0.66843-0.70753 0.04543-0.63506-0.74237-0.30998
   2  -3  13    3.82    1.28   1-0.38069-0.41281 0.82237 0.10050 0.42280 0.90525
  -2   3 -13    2.77    1.11   1-0.66913-0.63804 0.00023 0.72375 0.74314 0.26280
  -2   3 -13    2.94    0.69   1-0.39921-0.36701-0.80252-0.08094-0.44337-0.92668
   2  -3  13    3.21    0.81   1-0.66806-0.70082 0.05629-0.66490-0.74196-0.25834
   2  -2 -13    4.81    0.93   1-0.64236-0.76433 0.28000 0.63505 0.71341-0.11176
   2  -2 -13    3.39    0.80   1-0.07936-0.19787-0.99294-0.64359 0.08814-0.73934
  -2   2  13    3.75    0.65   1-0.57112-0.44812-0.52103-0.87292-0.63430 0.19281
  -2   2  13    2.42    1.02   1-0.05969 0.05876 0.99601 0.64586-0.06630 0.76118
   2  -2 -12   20.16    2.32   1-0.62640-0.74202 0.35162 0.66576 0.69568-0.07845
   2  -2 -12   12.86    2.22   1-0.06383-0.17632-0.99543-0.68664 0.07090-0.70528
  -2   2  12   18.00    1.98   1-0.54736-0.43047-0.57518-0.88686-0.60791 0.16783
  -2   2  12   13.03    1.83   1-0.04796 0.06449 0.99742 0.68787-0.05327 0.72296
   2  -2 -11   15.55    1.69   1-0.60609-0.71536 0.42372 0.69695 0.67313-0.04997
   2  -2 -11   11.24    1.87   1-0.05292-0.15937-0.99686-0.72861 0.05877-0.66611
  -2   2  11   14.10    1.35   1-0.51993-0.40939-0.62946-0.90042-0.57744 0.14709
  -2   2  11   11.66    1.31   1-0.03965 0.06680 0.99824 0.72927-0.04403 0.68094
   2  -2 -10    5.90    1.02   1-0.58060-0.68352 0.49707 0.72941 0.64483-0.02724
   2  -2 -10    4.36    0.89   1-0.04740-0.14783-0.99748-0.76978 0.05264-0.62094
  -2   2  10    4.76    0.61   1-0.48829-0.38412-0.68372-0.91393-0.54230 0.13101
  -2   2  10    3.51    0.65   1-0.03537 0.06507 0.99860 0.77022-0.03929 0.63444
   2  -2  -9    7.14    1.14   1-0.54762-0.64442 0.57463 0.76454 0.60819-0.01370
   2  -2  -9    4.93    1.00   1-0.04849-0.14289-0.99737-0.81021 0.05385-0.56844
  -2   2   9    5.20    0.74   1-0.45148-0.35367-0.73806-0.92755-0.50142 0.12067
  -2   2   9    4.35    0.74   1-0.03604 0.05840 0.99854 0.81076-0.04003 0.58245
   2  -2  -8   41.69    2.17   1-0.50690-0.59739 0.65276 0.80190 0.56297-0.00775
   2  -2  -8   34.78    2.46   1-0.05793-0.14630-0.99624-0.84964 0.06433-0.50665
  -2   2   8   34.93    1.64   1-0.40812-0.31667-0.79245-0.94121-0.45326 0.11762
  -2   2   8   34.14    1.78   1-0.04289 0.04555 0.99794 0.85074-0.04764 0.52359
   2  -2  -7   29.32    1.41   1-0.45438-0.53855 0.73407 0.84245 0.50464-0.01492
   2  -2  -7   24.30    1.44   1-0.07827-0.16062-0.99313-0.88707 0.08692-0.43277
  -2   2   7   25.15    1.19   1-0.35625-0.27117-0.84648-0.95450-0.39565 0.12401
  -2   2   7   24.93    1.60   1-0.05768 0.02477 0.99627 0.88967-0.06406 0.45592
   2  -2  -6    0.33    0.54   1-0.38502-0.46287 0.81786 0.88548 0.42761-0.04078
   2  -2  -6    0.15    0.46   1-0.11307-0.18940-0.98561-0.92010 0.12558-0.34281
  -2   2   6    0.36    0.43   1-0.29312-0.21440-0.89894-0.96623-0.32554 0.14291
  -2   2   6    0.18    0.41   1-0.08282-0.00637 0.99230 0.92629-0.09199 0.37674
   2  -2  -5    8.85    0.82   1-0.29127-0.36281 0.90028 0.92713 0.32349-0.09373
   2  -2  -5    8.19    0.85   1-0.16694-0.23724-0.96837-0.94341 0.18541-0.23169
  -2   2   5    7.99    0.87   1-0.12160-0.05115 0.98334 0.95792-0.13505 0.28242
   2  -2  -4    2.28    0.36   1-0.24446-0.30873-0.93087-0.94646 0.27149-0.09430
  -2   2   4    2.38    0.39   1 0.15819 0.22225-0.97165-0.95622-0.17569 0.19035
  -2   2   4    2.43    0.54   1-0.17801-0.11356 0.96396 0.97913-0.19769 0.16853
   2  -2  -3    0.36    0.23   1-0.34621-0.40446-0.85573-0.91187 0.38451 0.07000
  -2   2   3    0.37    0.31   1-0.01167 0.04657-0.99984-0.94371 0.01296 0.32747
  -2   2   3    0.41    0.30   1-0.25570-0.19725 0.92410 0.97986-0.28398 0.03099
   2  -2  -3    0.32    0.37   1-0.00706-0.06551 0.99994 0.94418-0.00785-0.32283
   2  -2  -2    0.73    0.24   1-0.46044-0.51255-0.72558-0.82203 0.51138 0.24806
  -2   2   2    0.81    0.25   1-0.21242-0.16020-0.94827-0.85158 0.23592 0.49913
  -2   2   2    0.62    0.28   1-0.35546-0.30282 0.84722 0.94393-0.39478-0.13143
   2  -2  -2    0.76    0.27   1-0.15343-0.20587 0.97335 0.87700-0.17040-0.43413
   2  -2  -1   83.10    2.26   1-0.56363-0.60968-0.53893-0.67598 0.62598 0.41391
  -2   2   1   82.71    2.31   1-0.40410-0.35791-0.79703-0.65980 0.44880 0.66071
  -2   2   1   84.52    2.82   1-0.46605-0.41948 0.71754 0.85478-0.51760-0.30558
   2  -2  -1   80.65    2.31   1-0.31198-0.35843 0.88464 0.74770-0.34649-0.55897
   2  -2   0    4.87    0.51   1-0.63227-0.67225-0.32728-0.50493 0.70221 0.54140
  -2   2   0    4.80    0.48   1-0.54107-0.50110-0.58832-0.41068 0.60092 0.76173
  -2   2   0    4.81    0.50   1-0.56662-0.52611 0.53188 0.70964-0.62930-0.46862
   2  -2   0    5.11    0.50   1-0.45751-0.49802 0.72971 0.55196-0.50812-0.66880
   2  -2   1   45.48    1.63   1-0.66305-0.69611-0.13441-0.35201 0.73640 0.62570
  -2   2  -1   44.28    1.57   1-0.61689-0.58298-0.38734-0.16910 0.68513 0.79468
  -2   2  -1   45.24    1.63   1-0.63519-0.60075 0.31440 0.53267-0.70546-0.59611
   2  -2   1   45.17    1.62   1-0.56270-0.59714 0.54111 0.32284-0.62494-0.73429
   2  -2   2   57.47    1.89   1-0.66871-0.69542 0.03519-0.22330 0.74268 0.68302
  -2   2  -2   58.52    1.95   1-0.65113-0.62329-0.23034 0.02849 0.72316 0.78146
  -2   2  -2   56.10    1.85   1-0.66562-0.63761 0.10217 0.36078-0.73925-0.68065
   2  -2   2   58.10    1.88   1-0.62395-0.65233 0.36120 0.10241-0.69297-0.75098
   2  -2   3  114.74    3.20   1-0.65889-0.67924 0.17423-0.12517 0.73177 0.72315
  -2   2  -3  114.61    3.02   1-0.66374-0.64339-0.12662 0.17277 0.73716 0.74578
  -2   2  -3  115.74    2.98   1-0.66676-0.64508-0.08398 0.21531-0.74051-0.73315
   2  -2   3  115.40    2.93   1-0.65337-0.67505 0.21573-0.08357-0.72564-0.73301
   2  -2   4  114.10    3.42   1-0.64075-0.65475 0.28813-0.05217 0.71162 0.75403
  -2   2  -4  116.42    3.41   1-0.66818-0.65418-0.05310 0.28720 0.74209 0.69968
  -2   2  -4  115.06    3.10   1-0.65007-0.63471-0.23697 0.10303-0.72197-0.76584
   2  -2   4  120.38    3.31   1-0.66522-0.68057 0.10790-0.23210-0.73880-0.69494
   2  -2   5   27.93    1.26   1-0.61815-0.62580 0.38283 0.00162 0.68653 0.77997
  -2   2  -5   29.55    1.42   1-0.66911-0.66146-0.00654 0.37466 0.74312 0.64968
  -2   2  -5   28.44    1.05   1-0.62408-0.61506-0.36069 0.02001-0.69312-0.78821
   2  -2   5   29.84    1.31   1-0.66877-0.67779 0.03264-0.34805-0.74274-0.64764
   2  -2   6   40.61    1.56   1-0.59306-0.59436 0.46306 0.04094 0.65866 0.80315
  -2   2  -6   41.61    1.50   1-0.66898-0.66768 0.02058 0.44269 0.74298 0.59850
  -2   2  -6   40.82    1.23   1-0.59368-0.59099-0.46129-0.03988-0.65935-0.80568
   2  -2   6   43.75    1.58   1-0.66902-0.67171-0.01763-0.43903-0.74302-0.59669
   2  -2   7   30.59    1.62   1-0.56529-0.56104 0.53504 0.07272 0.62782 0.82458
  -2   2  -7   31.91    1.51   1-0.66875-0.67380 0.03351 0.49653 0.74272 0.54721
  -2   2  -7   31.98    1.33   1-0.56134-0.56533-0.54426-0.08204-0.62343-0.82076
   2  -2   7   31.93    1.43   1-0.66831-0.66467-0.04930-0.51141-0.74224-0.54467
   2  -2   8   29.69    1.62   1-0.53748-0.52691 0.59562 0.09254 0.59693 0.84486
  -2   2  -8   30.32    1.36   1-0.66870-0.68010 0.03582 0.53974 0.74266 0.49611
  -2   2  -8   29.52    1.16   1-0.52825-0.53860-0.61380-0.11084-0.58668-0.83523
   2  -2   8   29.96    1.31   1-0.66762-0.65764-0.06708-0.56989-0.74147-0.49266
   2  -2   9    0.76    0.91   1-0.50883-0.49194 0.64941 0.10556 0.56511 0.86420
  -2   2  -9    0.86    0.58   1-0.66882-0.68658 0.02996 0.57478 0.74281 0.44522
  -2   2  -9    0.88    0.47   1-0.49491-0.51163-0.67301-0.12932-0.54965-0.84941
   2  -2   9    1.11    0.74   1-0.66728-0.65097-0.07431-0.61782-0.74109-0.44105
   2  -2  10   25.46    2.00   1-0.47939-0.45619 0.69764 0.11304 0.53241 0.88267
  -2   2 -10   26.44    1.56   1-0.66902-0.69313 0.01760 0.60333 0.74303 0.39440
  -2   2 -10   26.08    1.38   1-0.46149-0.48458-0.72409-0.13968-0.51254-0.86352
   2  -2  10   26.12    1.55   1-0.66732-0.64468-0.07334-0.65755-0.74114-0.38987
   2  -2  11    1.40    0.79   1-0.44916-0.41964 0.74122 0.11584 0.49884 0.90026
  -2   2 -11    1.89    0.95   1-0.66913-0.69958-0.00005 0.62657 0.74314 0.34349
  -2   2 -11    2.06    0.79   1-0.42802-0.45747-0.76864-0.14349-0.47537-0.87756
   2  -2  11    1.03    0.63   1-0.66767-0.63870-0.06582-0.69073-0.74153-0.33903
   2  -2  12    0.35    0.81   1-0.41808-0.38225 0.78076 0.11463 0.46433 0.91692
  -2   2 -12    0.38    0.67   1-0.66896-0.70577-0.02219 0.64533 0.74296 0.29227
  -2   2 -12   -0.03    0.58   1-0.39444-0.43025-0.80777-0.14189-0.43807-0.89148
   2  -2  12    0.03    0.65   1-0.66819-0.63288-0.05293-0.71853-0.74210-0.28836
   2  -2  13    0.31    1.19   1-0.38608-0.34393 0.81674 0.10984 0.42879 0.93254
  -2   2 -13    0.29    0.71   1-0.66835-0.71151-0.04822 0.66021 0.74228 0.24055
  -2   2 -13    0.06    0.63   1-0.36064-0.40282-0.84231-0.13570-0.40053-0.90516
   2  -2  13    0.00    0.67   1-0.66870-0.62707-0.03549-0.74180-0.74267-0.23770
   2  -1 -13    3.12    0.89   1-0.62358-0.67131 0.36263 0.73277 0.69255-0.11123
   2  -1 -13    2.22    0.76   1-0.03334-0.07757-0.99875-0.63450 0.03703-0.76901
  -2   1  13    2.38    0.58   1-0.59475-0.54614-0.45821-0.82500-0.66053 0.14522
  -2   1  13    1.85    0.72   1-0.02958 0.01458 0.99902 0.63418-0.03286 0.77304
   2  -1 -12    1.19    1.07   1-0.60405-0.64543 0.43017 0.75941 0.67087-0.08189
   2  -1 -12    0.65    0.65   1-0.01794-0.05615-0.99963-0.67593 0.01993-0.73481
  -2   1  12    1.09    0.75   1-0.57461-0.53234-0.51240-0.83849-0.63817 0.11636
  -2   1  12    0.86    0.65   1-0.01585 0.02231 0.99971 0.67546-0.01760 0.73705
   2  -1 -11    0.24    0.94   1-0.58031-0.61534 0.49784 0.78617 0.64450-0.05722
   2  -1 -11    0.29    0.84   1-0.00652-0.03870-0.99995-0.71679 0.00724-0.69620
  -2   1  11    0.28    0.69   1-0.55152-0.51535-0.56624-0.85216-0.61252 0.09069
  -2   1  11    0.17    0.81   1-0.00552 0.02665 0.99996 0.71630-0.00613 0.69727
   2  -1 -10    0.21    0.88   1-0.55052-0.57937 0.56841 0.81406 0.61141-0.04034
   2  -1 -10    0.25    0.76   1 0.00026-0.02589-1.00000-0.75739-0.00029-0.65244
  -2   1  10    0.59    0.46   1-0.52439-0.49459-0.62114-0.86633-0.58239 0.06961
  -2   1  10    0.25    0.77   1 0.00070 0.02687 0.99999 0.75693 0.00078 0.65294
   2  -1  -9    0.21    0.81   1-0.51549-0.53802 0.63757 0.84245 0.57251-0.02808
   2  -1  -9    0.21    0.68   1 0.00143-0.01869-0.99999-0.79794-0.00159-0.60244
  -2   1   9    0.28    0.43   1-0.49239-0.46895-0.67711-0.88157-0.54685 0.05393
  -2   1   9    0.27    0.70   1 0.00179 0.02196 0.99999 0.79751 0.00198 0.60289
   2  -1  -8    8.51    0.96   1-0.47260-0.48882 0.70791 0.87203 0.52487-0.02454
   2  -1  -8    6.18    0.91   1-0.00443-0.01853-0.99997-0.83846 0.00492-0.54463
  -2   1   8    6.38    0.61   1-0.45397-0.43689-0.73464-0.89836-0.50418 0.04539
  -2   1   8    5.98    0.80   1-0.00381 0.01035 0.99998 0.83809-0.00423 0.54542
   2  -1  -7   22.28    1.26   1-0.41936-0.42927 0.77923 0.90259 0.46575-0.03251
   2  -1  -7   19.19    1.32   1-0.01938-0.02745-0.99958-0.87861 0.02152-0.47673
  -2   1   7   18.43    1.07   1-0.40671-0.39599-0.79407-0.91706-0.45169 0.04666
  -2   1   7   18.14    1.28   1-0.01841-0.01024 0.99962 0.87832-0.02045 0.47795
   2  -1  -6   47.91    1.66   1-0.35214-0.35573 0.85031 0.93290 0.39109-0.05600
   2  -1  -6   42.07    2.06   1-0.04632-0.04837-0.99760-0.91718 0.05145-0.39550
  -2   1   6   41.40    1.43   1-0.34676-0.34241-0.85524-0.93750-0.38512 0.06203
  -2   1   6   44.23    1.67   1-0.04553-0.04337 0.99768 0.91697-0.05057 0.39657
   2  -1  -5   54.94    2.10   1-0.26588-0.26315 0.91766 0.95948 0.29529-0.10063
   2  -1  -5   53.68    2.13   1-0.08923-0.08525-0.99106-0.95120 0.09910-0.29655
  -2   1   5   49.70    1.91   1-0.26797-0.26998-0.91630-0.95783-0.29761 0.09831
  -2   1   5   55.28    2.28   1-0.09047-0.09431 0.99081 0.95070-0.10048 0.29541
   2  -1  -4   24.26    1.06   1-0.15290-0.14290-0.97354-0.97422 0.16981-0.17454
  -2   1   4   24.26    1.18   1 0.14995 0.13979-0.97456-0.97405-0.16654 0.17799
  -2   1   4   23.57    1.24   1-0.16062-0.17046 0.97076 0.97123-0.17839 0.16626
   2  -1  -3   95.96    2.55   1-0.24122-0.22519-0.93275-0.97398 0.26790-0.02516
  -2   1   3   90.68    2.79   1 0.00789-0.00813-0.99993-0.95870-0.00876 0.28430
  -2   1   3   91.93    2.78   1-0.26370-0.27954 0.91906 0.96013-0.29287 0.00052
   2  -1  -3  105.19    3.05   1 0.00951 0.02534 0.99989 0.95883 0.01056-0.28283
   2  -1  -2  173.99    3.87   1-0.35222-0.33016-0.85024-0.93202 0.39118 0.14941
  -2   1   2  173.65    3.93   1-0.16031-0.18237-0.97087-0.88909 0.17805 0.41982
  -2   1   2  166.72    4.09   1-0.39926-0.42095 0.80247 0.88440-0.44342-0.20157
   2  -1  -2  157.05    3.90   1-0.18453-0.16270 0.96121 0.87956-0.20495-0.44710
   2  -1  -1   28.37    1.16   1-0.47038-0.44217-0.71120-0.83329 0.52241 0.33181
  -2   1   1   29.59    1.21   1-0.33384-0.36192-0.86664-0.74431 0.37077 0.56124
  -2   1   1   28.79    1.28   1-0.53784-0.56560 0.59490 0.71734-0.59733-0.40682
   2  -1  -1   27.26    1.20   1-0.39560-0.36784 0.80650 0.68406-0.43936-0.62987
   2  -1   0  100.24    2.58   1-0.57168-0.53739-0.51967-0.68236 0.63491 0.49556
  -2   1   0   99.39    2.70   1-0.47788-0.51216-0.69995-0.53726 0.53074 0.67009
  -2   1   0   99.69    2.84   1-0.63291-0.66673 0.32453 0.48749-0.70292-0.56374
   2  -1   0  102.57    2.75   1-0.55599-0.52217 0.55639 0.39342-0.61749-0.75667
   2  -1   1   64.45    1.98   1-0.63659-0.59624-0.30802-0.51130 0.70701 0.61891
  -2   1  -1   64.04    2.08   1-0.57368-0.61403-0.51472-0.31143 0.63713 0.72523
  -2   1  -1   63.80    1.91   1-0.66763-0.70768 0.06675 0.26976-0.74148-0.65299
   2  -1   1   62.59    1.95   1-0.63720-0.59731 0.30519 0.10171-0.70769-0.79553
   2  -1   2   35.42    1.42   1-0.66457-0.61703-0.11648-0.35989 0.73808 0.69981
  -2   1  -2   35.89    1.49   1-0.62597-0.67239-0.35330-0.10942 0.69521 0.73206
  -2   1  -2   34.88    1.23   1-0.66228-0.70866-0.14271 0.10099-0.73553-0.69828
   2  -1   2   36.18    1.37   1-0.66465-0.61827 0.11547-0.12824-0.73817-0.77543
   2  -1   3  113.55    2.93   1-0.66814-0.61425 0.05421-0.23009 0.74205 0.75481
  -2   1  -3  116.72    3.00   1-0.65104-0.70352-0.23093 0.05354 0.72305 0.70864
  -2   1  -3  116.51    2.71   1-0.63819-0.69090-0.30055-0.01613-0.70878-0.72276
   2  -1   3  121.89    3.18   1-0.66907-0.61636-0.01309-0.29750-0.74308-0.72910
   2  -1   4   63.11    2.22   1-0.65617-0.59593 0.19586-0.12935 0.72875 0.79254
  -2   1  -4   62.27    2.17   1-0.66126-0.72150-0.15286 0.17235 0.73441 0.67061
  -2   1  -4   62.10    2.10   1-0.60724-0.66629-0.42002-0.09490-0.67441-0.73962
   2  -1   4   62.00    2.08   1-0.66610-0.60706-0.09490-0.42002-0.73979-0.67457
   2  -1   5    3.67    0.55   1-0.63552-0.56893 0.31291-0.05320 0.70582 0.82065
  -2   1  -5    3.83    0.67   1-0.66602-0.73261-0.09625 0.26985 0.73969 0.62486
  -2   1  -5    3.32    0.50   1-0.57437-0.63975-0.51299-0.14718-0.63790-0.75435
   2  -1   5    3.78    0.45   1-0.66205-0.59667-0.14509-0.51090-0.73528-0.61883
   2  -1   6    1.38    0.67   1-0.61011-0.53717 0.41063 0.00361 0.67759 0.84346
  -2   1  -6    1.15    0.46   1-0.66787-0.74081-0.06125 0.34576 0.74174 0.57588
  -2   1  -6    1.38    0.46   1-0.54140-0.61340-0.58764-0.18112-0.60129-0.76871
   2  -1   6    0.95    0.53   1-0.65893-0.58722-0.17393-0.58044-0.73181-0.56413
   2  -1   7    0.20    0.72   1-0.58198-0.50269 0.49346 0.04553 0.64636 0.86326
  -2   1  -7    0.05    0.46   1-0.66853-0.74782-0.04230 0.40561 0.74247 0.52557
  -2   1  -7    0.36    0.54   1-0.50885-0.58722-0.64936-0.20210-0.56514-0.78378
   2  -1   7    0.12    0.56   1-0.65720-0.57915-0.18797-0.63519-0.72989-0.51098
   2  -1   8    3.01    0.88   1-0.55097-0.46614 0.56743 0.07932 0.61192 0.88114
  -2   1  -8    2.73    0.59   1-0.66870-0.75435-0.03543 0.45339 0.74267 0.47474
  -2   1  -8    3.34    0.68   1-0.47681-0.56153-0.70159-0.21360-0.52955-0.79940
   2  -1   8    2.98    0.65   1-0.65676-0.57238-0.19138-0.67930-0.72940-0.45925
   2  -1   9   18.22    1.68   1-0.51989-0.42874 0.62952 0.10065 0.57740 0.89779
  -2   1  -9   16.69    1.30   1-0.66865-0.76064-0.03785 0.49187 0.74261 0.42364
  -2   1  -9   17.22    1.24   1-0.44514-0.53623-0.74660-0.21788-0.49438-0.81545
   2  -1   9   17.81    1.38   1-0.65734-0.56663-0.18686-0.71547-0.73005-0.40867
   2  -1  10    3.79    0.82   1-0.48792-0.39045 0.68431 0.11467 0.54189 0.91345
  -2   1 -10    3.24    0.68   1-0.66837-0.76671-0.04762 0.52300 0.74230 0.37229
  -2   1 -10    3.40    0.59   1-0.41371-0.51117-0.78594-0.21649-0.45947-0.83176
   2  -1  10    4.08    0.83   1-0.65866-0.56162-0.17618-0.74549-0.73152-0.35890
   2  -1  11   66.12    3.52   1-0.45511-0.35133 0.73306 0.12266 0.50545 0.92818
  -2   1 -11   63.25    3.01   1-0.66778-0.77248-0.06337 0.54815 0.74165 0.32060
  -2   1 -11   70.32    2.12   1-0.38234-0.48616-0.82066-0.21048-0.42464-0.84814
   2  -1  11   69.55    1.99   1-0.66044-0.55707-0.16055-0.77056-0.73350-0.30965
   2  -1  12    0.63    0.99   1-0.42145-0.31135 0.77671 0.12555 0.46807 0.94196
  -2   1 -12    1.06    0.95   1-0.66675-0.77780-0.08414 0.56829 0.74050 0.26843
  -2   1 -12    0.85    0.60   1-0.35088-0.46105-0.85148-0.20057-0.38969-0.86440
   2  -1  12    1.15    0.62   1-0.66246-0.55276-0.14081-0.79152-0.73574-0.26065
   2  -1  13    4.12    1.26   1-0.38686-0.27045 0.81592 0.12399 0.42965 0.95471
  -2   1 -13    4.70    0.87   1-0.66512-0.78252-0.10924 0.58410 0.73869 0.21558
  -2   1 -13    4.95    0.84   1-0.31916-0.43570-0.87891-0.18726-0.35446-0.88039
   2  -1  13    5.54    0.84   1-0.66449-0.54845-0.11752-0.80894-0.73799-0.21167
   2   0 -13    1.88    1.14   1-0.60662-0.58011 0.42201 0.80725 0.67372-0.10868
   2   0 -13    1.83    1.03   1-0.00108 0.02895-0.99999-0.62084 0.00120-0.78340
  -2   0  13    2.52    0.57   1-0.62010-0.64590-0.37571-0.75739-0.68869 0.09572
  -2   0  13    1.62    0.98   1-0.00062-0.03073 1.00000 0.62046-0.00069 0.78363
   2   0 -12    9.75    1.14   1-0.58501-0.55215 0.48540 0.82973 0.64972-0.08165
   2   0 -12    8.38    1.00   1 0.01374 0.04981-0.99978-0.66118-0.01526-0.74857
  -2   0  12    9.87    0.90   1-0.60494-0.63707-0.42738-0.76836-0.67185 0.06132
  -2   0  12    6.27    1.05   1 0.01549-0.02061 0.99973 0.66079 0.01720 0.75028
   2   0 -11    9.80    1.01   1-0.55839-0.51929 0.55099 0.85237 0.62016-0.06146
   2   0 -11    8.37    0.96   1 0.02499 0.06708-0.99930-0.70124-0.02775-0.70975
  -2   0  11    9.80    0.80   1-0.58731-0.62577-0.47915-0.77943-0.65227 0.02967
  -2   0  11    6.37    1.04   1 0.02831-0.01380 0.99910 0.70075 0.03144 0.71327
   2   0 -10   47.69    2.31   1-0.52811-0.48270 0.61405 0.87468 0.58653-0.04392
   2   0 -10   41.23    2.43   1 0.03206 0.08018-0.99885-0.74133-0.03561-0.66632
  -2   0  10   47.36    2.13   1-0.56697-0.61154-0.53105-0.79120-0.62969 0.00100
   2   0  -9   30.63    2.06   1-0.49230-0.44057 0.67726 0.89712 0.54675-0.03253
   2   0  -9   26.58    2.03   1 0.03414 0.08828-0.99869-0.78173-0.03792-0.61733
  -2   0   9   28.60    2.00   1-0.54269-0.59362-0.58498-0.80440-0.60272-0.02323
  -2   0   9   21.21    1.79   1 0.04058-0.01353 0.99815 0.78099 0.04507 0.62439
   2   0  -8   11.25    0.87   1-0.44961-0.39157 0.74060 0.91969 0.49935-0.02877
   2   0  -8   10.14    0.87   1 0.03002 0.09019-0.99899-0.82257-0.03334-0.56145
  -2   0   8   10.26    0.81   1-0.51332-0.57062-0.64145-0.82014-0.57010-0.04183
  -2   0   8    8.45    0.91   1 0.03700-0.02310 0.99846 0.82189 0.04110 0.56917
   2   0  -7   38.15    1.74   1-0.39818-0.33382 0.80366 0.94199 0.44223-0.03472
   2   0  -7   34.35    1.66   1 0.01799 0.08419-0.99963-0.86377-0.01998-0.49680
  -2   0   7   32.71    1.67   1-0.47658-0.54023-0.70193-0.83988-0.52930-0.05224
  -2   0   7   31.47    1.91   1 0.02328-0.04282 0.99939 0.86340 0.02586 0.50268
   2   0  -6   51.31    1.77   1-0.33543-0.26475 0.86527 0.96284 0.37253-0.05325
   2   0  -6   49.24    1.89   1-0.00434 0.06788-0.99997-0.90465 0.00482-0.42069
  -2   0   6   44.17    1.95   1-0.42824-0.49826-0.76836-0.86559-0.47561-0.04977
  -2   0   6   43.81    2.26   1-0.00577-0.07789 0.99996 0.90456-0.00641 0.41915
   2   0  -5   48.10    1.91   1-0.25790-0.18091 0.92273 0.97953 0.28643-0.08818
   2   0  -5   48.67    1.84   1-0.04031 0.03793-0.99818-0.94341 0.04477-0.32944
  -2   0   5   44.49    1.74   1-0.36004-0.43642-0.84289-0.89938-0.39987-0.02524
  -2   0   5   47.70    2.52   1-0.05930-0.13742 0.99606 0.94125-0.06586 0.30846
   2   0  -4    2.11    0.37   1-0.09417-0.00989-0.99004-0.97582 0.10458-0.21833
  -2   0   4    2.17    0.39   1 0.15757 0.07319-0.97187-0.98627-0.17500 0.14801
  -2   0   4    1.92    0.34   1-0.25473-0.33747-0.92470-0.94046-0.28291 0.04050
  -2   0   4    1.88    0.36   1-0.15285-0.23697 0.97355 0.95934-0.16976 0.15331
   2   0  -3    1.04    0.37   1-0.17034-0.08004-0.96705-0.99337 0.18918-0.08243
  -2   0   3    1.16    0.31   1 0.03835-0.05195-0.99835-0.97203-0.04259 0.22903
  -2   0   3    0.89    0.26   1-0.30602-0.39614 0.88928 0.91566-0.33987-0.06805
   2   0  -2    1.12    0.28   1-0.27066-0.17433-0.91453-0.98140 0.30060 0.08027
  -2   0   2    1.33    0.30   1-0.10244-0.19877-0.98821-0.92133 0.11377 0.33410
  -2   0   2    1.12    0.32   1-0.50536-0.60139 0.65542 0.72256-0.56126-0.34091
   2   0  -2    0.98    0.26   1-0.21622-0.12010 0.94635 0.87938-0.24014-0.46071
   2   0  -1    1.84    0.37   1-0.38863-0.28628-0.81403-0.92145 0.43162 0.26260
  -2   0   1    1.88    0.32   1-0.25514-0.35749-0.92445-0.81703 0.28336 0.45239
  -2   0   1    1.68    0.34   1-0.64304-0.74514 0.27647 0.38413-0.71417-0.54516
   2   0  -1    1.74    0.41   1-0.51268-0.41058 0.64261 0.53495-0.56939-0.73840
   2   0   0    2.04    0.32   1-0.50446-0.39592-0.65697-0.80470 0.56026 0.44237
  -2   0   0    2.07    0.33   1-0.39805-0.50643-0.80381-0.65584 0.44208 0.55981
  -2   0   0    2.16    0.30   1-0.66811-0.77623-0.05503 0.09238-0.74201-0.62364
   2   0   0    2.04    0.38   1-0.64637-0.53821 0.25857 0.11040-0.71787-0.83554
   2   0   1  113.68    2.80   1-0.59561-0.48100-0.45570-0.64402 0.66149 0.59486
  -2   0  -1  114.27    2.99   1-0.50845-0.62306-0.65006-0.46174 0.56470 0.63133
  -2   0  -1  112.89    2.77   1-0.64292-0.75736-0.27714-0.08901-0.71403-0.64689
   2   0   1  111.43    2.78   1-0.66913-0.55468-0.00098-0.18910-0.74314-0.81028
   2   0   2    4.90    0.53   1-0.64895-0.52827-0.24373-0.47265 0.72073 0.70535
  -2   0  -2    4.93    0.53   1-0.58088-0.70156-0.49634-0.26742 0.64514 0.66052
  -2   0  -2    5.05    0.48   1-0.60712-0.72790-0.42041-0.19159-0.67427-0.65836
   2   0   2    4.87    0.41   1-0.66143-0.54065-0.15121-0.38003-0.73459-0.75050
   2   0   3   29.05    1.13   1-0.66805-0.53992-0.05657-0.32579 0.74195 0.77610
  -2   0  -3   30.26    1.15   1-0.62228-0.74902-0.36759-0.09807 0.69111 0.65524
  -2   0  -3   30.67    1.10   1-0.57161-0.69872-0.51984-0.25031-0.63484-0.67016
   2   0   3   29.77    1.06   1-0.65048-0.52337-0.23441-0.50394-0.72243-0.68711
   2   0   4   45.95    1.77   1-0.66504-0.53055 0.11040-0.19971 0.73860 0.82378
  -2   0  -4   46.47    1.91   1-0.64416-0.77697-0.27061 0.03950 0.71541 0.62829
  -2   0  -4   46.07    1.65   1-0.53820-0.67185-0.59417-0.28408-0.59773-0.68404
   2   0   4   43.50    1.59   1-0.64245-0.50900-0.27955-0.58977-0.71351-0.62695
   2   0   5   71.24    2.65   1-0.64797-0.50713 0.24948-0.10153 0.71964 0.85586
  -2   0  -5   70.32    2.37   1-0.65410-0.79493-0.21071 0.14030 0.72645 0.59024
  -2   0  -5   65.93    2.24   1-0.50670-0.64671-0.65311-0.30228-0.56275-0.70027
   2   0   5   67.25    2.16   1-0.63790-0.49812-0.30192-0.65284-0.70846-0.57067
   2   0   6   75.68    2.16   1-0.62298-0.47579 0.36494-0.02698 0.69188 0.87914
  -2   0  -6   74.77    2.20   1-0.65984-0.80703-0.16600 0.22592 0.73283 0.54558
  -2   0  -6   71.48    1.88   1-0.47659-0.62296-0.70191-0.31035-0.52931-0.71804
   2   0   6   67.36    1.65   1-0.63622-0.49011-0.30973-0.70136-0.70659-0.51757
   2   0   7   18.76    1.21   1-0.59357-0.44003 0.46161 0.02878 0.65922 0.89751
  -2   0  -7   18.85    1.10   1-0.66262-0.81615-0.13914 0.29369 0.73591 0.49762
  -2   0  -7   18.96    1.02   1-0.44740-0.60013-0.74359-0.31130-0.49688-0.73683
   2   0   7   18.57    0.99   1-0.63667-0.48423-0.30766-0.73998-0.70709-0.46683
   2   0   8   22.34    1.46   1-0.56046-0.40136 0.54627 0.07314 0.62246 0.91299
  -2   0  -8   21.13    1.19   1-0.66379-0.82368-0.12598 0.34774 0.73722 0.44790
  -2   0  -8   23.30    1.17   1-0.41874-0.57783-0.77998-0.30696-0.46506-0.75622
   2   0   8   23.78    1.19   1-0.63863-0.47985-0.29846-0.77149-0.70927-0.41777
   2   0   9   18.02    1.34   1-0.52678-0.36136 0.61661 0.10271 0.58505 0.92674
  -2   0  -9   16.80    1.10   1-0.66400-0.83024-0.12348 0.39115 0.73745 0.39710
  -2   0  -9   19.33    1.21   1-0.39033-0.55579-0.81221-0.29846-0.43351-0.77589
   2   0   9   20.37    1.14   1-0.64160-0.47649-0.28387-0.79759-0.71257-0.36984
   2   0  10   17.42    1.48   1-0.49201-0.32027 0.67774 0.12308 0.54643 0.93929
  -2   0 -10   15.44    1.21   1-0.66350-0.83609-0.12942 0.42611 0.73689 0.34550
  -2   0 -10   18.27    1.27   1-0.36195-0.53377-0.84106-0.28658-0.40199-0.79558
   2   0  10   18.80    1.38   1-0.64520-0.47376-0.26500-0.81942-0.71657-0.32261
   2   0  11    0.13    0.74   1-0.45632-0.27827 0.73138 0.13595 0.50680 0.95082
  -2   0 -11    0.41    0.60   1-0.66232-0.84127-0.14221 0.45422 0.73559 0.29316
  -2   0 -11    0.76    0.80   1-0.33341-0.51159-0.86701-0.27180-0.37029-0.81510
   2   0  11    0.36    0.68   1-0.64914-0.47137-0.24259-0.83771-0.72094-0.27574
   2   0  12   13.55    1.66   1-0.41976-0.23539 0.77876 0.14257 0.46619 0.96138
  -2   0 -12   13.30    1.67   1-0.66042-0.84572-0.16074 0.47659 0.73348 0.24001
  -2   0 -12   14.21    1.59   1-0.30456-0.48911-0.89040-0.25445-0.33825-0.83427
   2   0  12   14.13    1.55   1-0.65316-0.46906-0.21714-0.85296-0.72541-0.22898
   2   0  13    0.11    1.14   1-0.38224-0.19156 0.82077 0.14382 0.42452 0.97088
  -2   0 -13    0.41    0.98   1-0.65767-0.84932-0.18420 0.49404 0.73042 0.18593
  -2   0 -13    1.05    0.95   1-0.27527-0.46618-0.91145-0.23477-0.30572-0.85296
   2   0  13    0.73    0.84   1-0.65707-0.46663-0.18897-0.86550-0.72975-0.18208
   2   1 -13    7.92    1.12   1-0.59265-0.49190 0.46423 0.86455 0.65821-0.10281
   2   1 -13    7.75    1.11   1 0.02057 0.12489-0.99952-0.60546-0.02285-0.78601
  -2  -1  13    8.12    1.05   1-0.64442-0.74461-0.26923-0.66580-0.71570 0.04736
  -2  -1  13    5.72    1.06   1 0.02674-0.07765 0.99920 0.60497 0.02969 0.79244
   2   1 -12    2.64    0.79   1-0.56900-0.46195 0.52620 0.88333 0.63194-0.07954
   2   1 -12    3.18    0.78   1 0.03451 0.14485-0.99866-0.64515-0.03833-0.75019
  -2  -1  12    3.14    0.59   1-0.63508-0.74160-0.31492-0.67080-0.70533 0.00650
  -2  -1  12    1.78    0.68   1 0.04570-0.06468 0.99766 0.64402 0.05076 0.76226
   2   1 -11    8.57    1.17   1-0.54271-0.42935 0.58493 0.90130 0.60274-0.05756
   2   1 -11    8.73    0.92   1 0.04510 0.16146-0.99772-0.68476-0.05009-0.71065
  -2  -1  11    9.22    0.83   1-0.62434-0.73720-0.35970-0.67487-0.69340-0.03279
   2   1 -10    2.37    0.92   1-0.51235-0.39266 0.64320 0.91880 0.56902-0.04013
   2   1 -10    2.16    0.86   1 0.05181 0.17420-0.99699-0.72457-0.05754-0.66680
  -2  -1  10    2.93    0.52   1-0.61211-0.73130-0.40392-0.67840-0.67982-0.07045
   2   1  -9    0.45    0.79   1-0.47715-0.35116 0.70105 0.93589 0.52993-0.02804
   2   1  -9    0.23    0.74   1 0.05390 0.18232-0.99675-0.76488-0.05986-0.61783
  -2  -1   9    0.05    0.41   1-0.59819-0.72371-0.44810-0.68187-0.66435-0.10622
   2   1  -8    0.91    0.75   1-0.43613-0.30382 0.75839 0.95246 0.48438-0.02244
   2   1  -8    0.70    0.70   1 0.05032 0.18476-0.99716-0.80584-0.05588-0.56255
  -2  -1   8    0.99    0.57   1-0.58217-0.71403-0.49296-0.68604-0.64657-0.13966
   2   1  -7    1.98    0.71   1-0.38791-0.24929 0.81480 0.96811 0.43082-0.02482
   2   1  -7    1.42    0.48   1 0.03960 0.18007-0.99824-0.84747-0.04398-0.49936
  -2  -1   7    1.80    0.43   1-0.56362-0.70164-0.53896-0.69189-0.62597-0.17021
   2   1  -6   10.54    0.89   1-0.33068-0.18573 0.86935 0.98189 0.36725-0.03722
   2   1  -6   10.22    0.73   1 0.01971 0.16620-0.99956-0.88934-0.02189-0.42596
  -2  -1   6   10.34    0.75   1-0.54027-0.68466-0.58995-0.70214-0.60004-0.19550
  -2  -1   6    8.86    0.95   1 0.03813-0.10826 0.99837 0.88828 0.04235 0.44635
   2   1  -5   29.36    1.43   1-0.26207-0.11080 0.92010 0.99188 0.29106-0.06226
   2   1  -5   31.01    1.37   1-0.01215 0.14036-0.99983-0.93015 0.01350-0.33927
  -2  -1   5   29.44    1.54   1-0.50822-0.65897-0.65046-0.72192-0.56444-0.21112
  -2  -1   5   27.89    1.50   1-0.02843-0.18083 0.99909 0.92959-0.03158 0.32116
   2   1  -4   55.37    2.02   1-0.05963 0.09891-0.99602-0.96689 0.06623-0.23524
  -2  -1   4   49.21    2.23   1 0.17578 0.01717-0.96487-0.99418-0.19522 0.10628
  -2  -1   4   51.37    2.05   1-0.45409-0.61120-0.73447-0.76519-0.50432-0.20222
  -2  -1   4   49.49    2.47   1-0.17278-0.33118 0.96608 0.93717-0.19189 0.10960
   2   1  -3   77.71    2.28   1-0.12683 0.03774-0.98187-0.99329 0.14086-0.10931
  -2  -1   3   77.48    2.30   1 0.07584-0.08872-0.99355-0.98213-0.08423 0.16594
  -2  -1   3   79.90    2.49   1-0.31295-0.47643-0.88388-0.87388-0.34757-0.09668
  -2  -1   3   86.70    2.94   1-0.46932-0.63361 0.71277 0.72461-0.52123-0.27105
   2   1  -2   19.28    0.85   1-0.21672-0.04612-0.94609-0.99805 0.24070 0.04181
  -2  -1   2   20.40    0.91   1-0.04134-0.21195-0.99808-0.94612 0.04592 0.24480
  -2  -1   2   14.05    1.24   1-0.66899-0.83884-0.02021 0.03091-0.74299-0.54349
   2   1  -2   19.86    1.23   1-0.25186-0.08146 0.92645 0.87418-0.27972-0.47872
   2   1  -1  162.38    3.72   1-0.32730-0.15067-0.87220-0.96471 0.36350 0.21592
  -2  -1   1  155.81    3.59   1-0.17216-0.34879-0.96633-0.87381 0.19121 0.33879
  -2  -1   1  174.78    4.15   1-0.60996-0.78614-0.41111-0.31929-0.67743-0.52917
   2   1  -1  161.50    4.43   1-0.64905-0.47263 0.24308 0.15022-0.72085-0.86836
   2   1   0  232.71    4.77   1-0.44568-0.26288-0.74589-0.87866 0.49498 0.39855
  -2  -1   0  239.78    4.96   1-0.30484-0.48750-0.89019-0.75713 0.33856 0.43485
  -2  -1   0  229.90    5.07   1-0.56125-0.74382-0.54445-0.41225-0.62334-0.52609
   2   1   0  237.71    4.82   1-0.66196-0.47945-0.14591-0.27844-0.73519-0.83222
   2   1   1   15.41    0.86   1-0.55187-0.36300-0.56548-0.73884 0.61291 0.56774
  -2  -1  -1   16.00    0.92   1-0.42151-0.61038-0.77663-0.60327 0.46814 0.51331
  -2  -1  -1   15.22    0.86   1-0.52717-0.71609-0.61586-0.44293-0.58548-0.53945
   2   1   1   14.99    0.73   1-0.63595-0.44711-0.31096-0.48419-0.70630-0.75209
   2   1   2   68.23    2.14   1-0.62569-0.43075-0.35443-0.56839 0.69489 0.70098
  -2  -1  -2   71.06    2.12   1-0.51111-0.70604-0.64539-0.43143 0.56765 0.56156
  -2  -1  -2   67.55    2.14   1-0.49921-0.69450-0.66586-0.45220-0.55443-0.55961
   2   1   2   66.76    1.92   1-0.61759-0.42242-0.38483-0.59876-0.68591-0.68047
   2   1   3   36.40    1.40   1-0.66131-0.45894-0.15242-0.40654 0.73446 0.78999
  -2  -1  -3   38.49    1.42   1-0.57107-0.77207-0.52116-0.26660 0.63424 0.57690
  -2  -1  -3   37.09    1.63   1-0.47401-0.67566-0.70580-0.45141-0.52644-0.58284
   2   1   3   38.91    1.54   1-0.60787-0.40636-0.41796-0.67259-0.67511-0.61844
   2   1   4   27.54    1.15   1-0.66870-0.45997 0.03577-0.25925 0.74266 0.84923
  -2  -1  -4   28.39    1.24   1-0.60779-0.81486-0.41824-0.12309 0.67502 0.56643
  -2  -1  -4   28.68    1.19   1-0.45007-0.65809-0.73997-0.44485-0.49986-0.60747
   2   1   4   25.94    1.17   1-0.60416-0.39631-0.42983-0.72516-0.67098-0.56308
   2   1   5   69.48    2.03   1-0.65620-0.44113 0.19557-0.14035 0.72879 0.88639
  -2  -1  -5   70.92    2.01   1-0.62919-0.84232-0.34031-0.00456 0.69878 0.53894
  -2  -1  -5   71.69    2.02   1-0.42667-0.64104-0.77032-0.43447-0.47386-0.63269
   2   1   5   67.08    1.91   1-0.60438-0.39020-0.42914-0.76517-0.67123-0.51209
   2   1   6   33.35    1.86   1-0.63199-0.41057 0.32848-0.04834 0.70190 0.91054
  -2  -1  -6   31.04    1.50   1-0.64133-0.86053-0.28524 0.09110 0.71227 0.50117
  -2  -1  -6   32.57    1.44   1-0.40337-0.62411-0.79786-0.42127-0.44799-0.65803
   2   1   6   30.28    1.43   1-0.60715-0.38665-0.42029-0.79702-0.67431-0.46394
   2   1   7    4.32    0.67   1-0.60123-0.37345 0.43892 0.02118 0.66773 0.92740
  -2  -1  -7    3.55    0.71   1-0.64803-0.87330-0.24913 0.16781 0.71971 0.45736
  -2  -1  -7    3.86    0.73   1-0.37994-0.60704-0.82315-0.40583-0.42197-0.68322
   2   1   7    3.77    0.54   1-0.61158-0.38474-0.40570-0.82313-0.67923-0.41762
   2   1   8    1.79    0.62   1-0.56569-0.33232 0.53410 0.07595 0.62826 0.94010
  -2  -1  -8    2.01    0.54   1-0.65147-0.88281-0.22820 0.22933 0.72353 0.40993
  -2  -1  -8    2.15    0.54   1-0.35620-0.58967-0.84652-0.38847-0.39560-0.70807
   2   1   8    1.89    0.50   1-0.61704-0.38387-0.38680-0.84493-0.68529-0.37245
   2   1   9    0.83    0.63   1-0.52897-0.28929 0.61240 0.11348 0.58749 0.95049
  -2  -1  -9    0.66    0.52   1-0.65145-0.89193-0.22831 0.27123 0.72351 0.36177
  -2  -1  -9    1.22    0.75   1-0.33205-0.57187-0.86818-0.36939-0.36877-0.73246
   2   1   9    0.79    0.50   1-0.62310-0.38359-0.36447-0.86330-0.69202-0.32795
   2   1  10    0.48    0.66   1-0.49093-0.24493 0.67947 0.13979 0.54524 0.95940
  -2  -1 -10    0.92    0.57   1-0.65131-0.89814-0.22921 0.31123 0.72336 0.31058
  -2  -1 -10    0.72    0.57   1-0.30737-0.55356-0.88824-0.34873-0.34137-0.75627
   2   1  10    1.12    0.72   1-0.62943-0.38360-0.33929-0.87882-0.69906-0.28375
   2   1  11    9.73    1.20   1-0.45189-0.19957 0.73749 0.15705 0.50188 0.96721
  -2  -1 -11    9.03    1.05   1-0.65136-0.90090-0.22890 0.35043 0.72341 0.25604
  -2  -1 -11   10.66    1.28   1-0.28211-0.53466-0.90677-0.32652-0.31331-0.77943
   2   1  11   11.92    1.17   1-0.63581-0.38364-0.31162-0.89185-0.70613-0.23959
   2   1  12    0.48    0.76   1-0.41193-0.15329 0.78804 0.16683 0.45749 0.97399
  -2  -1 -12    1.32    1.06   1-0.64886-0.90447-0.24426 0.37566 0.72063 0.20201
  -2  -1 -12    1.31    0.66   1-0.25618-0.51510-0.92380-0.30282-0.28452-0.80185
   2   1  12    1.59    0.57   1-0.64202-0.38352-0.28171-0.90265-0.71304-0.19526
   2   1  13   18.38    1.20   1-0.37097-0.10602 0.83223 0.17026 0.41201 0.97967
  -2  -1 -13   16.89    1.25   1-0.64514-0.90682-0.26534 0.39518 0.71650 0.14663
   2   1  13   17.53    1.11   1-0.64793-0.38309-0.24971-0.91135-0.71960-0.15058
   2   2 -13    5.47    1.19   1-0.58208-0.40709 0.49320 0.90862 0.64647-0.09316
   2   2 -13    4.61    0.86   1 0.03372 0.21231-0.99872-0.58976-0.03745-0.77916
  -2  -2  13    4.48    0.64   1-0.66302-0.83762-0.13476-0.54622-0.73636 0.00536
   2   2 -12   20.26    1.24   1-0.55817-0.37685 0.55149 0.92360 0.61991-0.07026
   2   2 -12   18.66    1.46   1 0.04654 0.23115-0.99757-0.62915-0.05169-0.74210
  -2  -2  12   20.22    1.15   1-0.65943-0.84035-0.16964-0.54041-0.73237-0.04188
   2   2 -11    4.51    0.80   1-0.53216-0.34452 0.60620 0.93754 0.59102-0.04798
   2   2 -11    4.57    0.98   1 0.05614 0.24678-0.99647-0.66860-0.06235-0.70147
  -2  -2  11    4.46    0.59   1-0.65549-0.84274-0.20087-0.53094-0.72799-0.08873
   2   2 -10   21.00    1.34   1-0.50261-0.30866 0.66013 0.95070 0.55821-0.02963
   2   2 -10   19.46    1.52   1 0.06203 0.25870-0.99569-0.70836-0.06890-0.65672
  -2  -2  10   18.17    1.08   1-0.65155-0.84514-0.22768-0.51705-0.72362-0.13560
   2   2  -9   17.36    1.48   1-0.46898-0.26871 0.71327 0.96309 0.52085-0.01582
   2   2  -9   15.98    1.43   1 0.06354 0.26623-0.99548-0.74870-0.07056-0.60709
  -2  -2   9   12.94    1.10   1-0.64811-0.84803-0.24867-0.49733-0.71980-0.18301
   2   2  -6   18.48    1.16   1-0.33494-0.11573 0.86569 0.99321 0.37199-0.01119
   2   2  -6   17.17    0.90   1 0.03035 0.25112-0.99897-0.87383-0.03371-0.41634
  -2  -2   6   12.94    0.79   1-0.65115-0.87007-0.23024-0.35681-0.72317-0.34009
   2   2  -5   91.01    3.16   1-0.27496-0.04943 0.91166 0.99842 0.30538-0.02663
   2   2  -5  100.29    2.98   1 0.00066 0.22746-1.00000-0.91541-0.00074-0.33207
  -2  -2   5   96.43    2.82   1-0.66363-0.88888-0.12794-0.21380-0.73703-0.40518
  -2  -2   5   87.13    4.50   1 0.00083-0.22584 0.99999 0.91580 0.00093 0.33209
   2   2  -4   36.79    1.50   1-0.04291 0.18990-0.99794-0.95390 0.04766-0.23237
  -2  -2   4   35.92    1.50   1 0.20128-0.03155-0.95368-0.99790-0.22354 0.05644
   2   2  -3   47.50    1.58   1-0.10397 0.13487-0.98785-0.98436 0.11547-0.11326
  -2  -2   3   48.37    1.87   1 0.11827-0.12055-0.98425-0.98791-0.13136 0.09736
   2   2  -2   13.24    0.71   1-0.18558 0.05929-0.96076-0.99782 0.20611 0.02867
  -2  -2   2   13.25    0.79   1 0.02120-0.22367-0.99949-0.96243-0.02354 0.15389
   2   2  -1    4.58    0.48   1-0.28774-0.03684-0.90281-0.98042 0.31957 0.19343
  -2  -2   1    4.87    0.47   1-0.08820-0.33910-0.99127-0.91366 0.09796 0.22410
  -2  -2   1    4.83    0.50   1-0.25781-0.50838-0.92278-0.84628-0.28633-0.15917
   2   2  -1    4.62    0.48   1-0.62829-0.37771-0.34400-0.42094-0.69778-0.82470
   2   2   0   17.99    0.83   1-0.40314-0.14621-0.79812-0.91627 0.44773 0.37289
  -2  -2   0   19.69    0.92   1-0.20494-0.46186-0.95194-0.83378 0.22760 0.30245
  -2  -2   0   19.11    1.16   1-0.33829-0.59521-0.86278-0.74555-0.37570-0.29976
   2   2   0   17.74    0.94   1-0.58247-0.32555-0.49218-0.60982-0.64690-0.72258
   2   2   1    3.19    0.44   1-0.51414-0.25101-0.64000-0.79840 0.57101 0.54729
  -2  -2  -1    3.73    0.42   1-0.31861-0.58157-0.87935-0.72065 0.35385 0.37740
  -2  -2  -1    3.38    0.50   1-0.36209-0.62538-0.84092-0.68296-0.40214-0.37742
   2   2   1    3.49    0.42   1-0.56306-0.29977-0.54027-0.69824-0.62534-0.65007
   2   2   2    5.78    0.55   1-0.60158-0.33239-0.43783-0.63683 0.66812 0.69567
  -2  -2  -2    5.54    0.48   1-0.41641-0.68560-0.78276-0.58376 0.46247 0.43493
  -2  -2  -2    5.06    0.59   1-0.36686-0.63652-0.83629-0.63760-0.40744-0.43393
   2   2   2    5.21    0.51   1-0.55695-0.28730-0.55423-0.75292-0.61856-0.59207
   2   2   3   37.14    1.47   1-0.65134-0.37473-0.22902-0.46805 0.72339 0.80031
  -2  -2  -3   39.40    1.53   1-0.49256-0.76782-0.67684-0.43724 0.54705 0.46825
  -2  -2  -3   37.86    1.66   1-0.36272-0.63874-0.84032-0.60089-0.40285-0.48055
   2   2   3   37.13    1.53   1-0.55771-0.28169-0.55254-0.79196-0.61940-0.54169
   2   2   4    7.16    0.59   1-0.66893-0.38596-0.02436-0.30430 0.74292 0.87087
  -2  -2  -4    6.95    0.64   1-0.54592-0.82725-0.57822-0.29803 0.60631 0.47626
  -2  -2  -4    6.76    0.68   1-0.35352-0.63589-0.84904-0.56888-0.39262-0.52154
   2   2   4    6.47    0.59   1-0.56229-0.27991-0.54206-0.82222-0.62449-0.49557
   2   2   5   17.85    0.97   1-0.66112-0.37180 0.15424-0.16659 0.73425 0.91324
  -2  -2  -5   17.63    1.02   1-0.58095-0.86834-0.49617-0.17538 0.64521 0.46391
  -2  -2  -5   18.75    1.11   1-0.34102-0.62976-0.86037-0.53948-0.37874-0.55887
   2   2   5   16.93    0.92   1-0.56909-0.28035-0.52597-0.84686-0.63204-0.45191
   2   2   6   20.78    1.24   1-0.63746-0.34179 0.30399-0.05774 0.70797 0.93799
  -2  -2  -6   20.41    1.23   1-0.60303-0.89649-0.43337-0.07198 0.66973 0.43717
  -2  -2  -6   22.44    1.29   1-0.32617-0.62127-0.87314-0.51152-0.36225-0.59359
   2   2   6   21.26    1.20   1-0.57725-0.28234-0.50573-0.86757-0.64110-0.40938
   2   2   7   36.48    2.07   1-0.60477-0.30275 0.42789 0.02525 0.67167 0.95273
  -2  -2  -7   33.91    1.58   1-0.61650-0.91603-0.38873 0.01325 0.68469 0.40088
  -2  -2  -7   40.16    1.75   1-0.30948-0.61095-0.88660-0.48425-0.34372-0.62628
   2   2   7   35.76    1.57   1-0.58603-0.28480-0.48263-0.88517-0.65086-0.36790
   2   2   8   29.21    1.70   1-0.56607-0.25843 0.53321 0.09003 0.62868 0.96182
  -2  -2  -8   27.12    1.51   1-0.62432-0.92992-0.35977 0.08280 0.69338 0.35831
  -2  -2  -8   32.36    1.68   1-0.29129-0.59912-0.90026-0.45718-0.32351-0.65729
   2   2   8   30.40    1.47   1-0.59515-0.28758-0.45703-0.90027-0.66098-0.32679
   2   2   9    7.95    0.93   1-0.52555-0.21159 0.61896 0.13501 0.58368 0.96798
  -2  -2  -9    7.06    0.92   1-0.62831-0.93998-0.34389 0.13928 0.69781 0.31150
  -2  -2  -9    8.57    0.89   1-0.27178-0.58597-0.91379-0.42997-0.30184-0.68683
   2   2   9    8.62    0.96   1-0.60433-0.29043-0.42929-0.91323-0.67118-0.28576
   2   2  10    9.97    1.02   1-0.48347-0.16320 0.69133 0.16662 0.53694 0.97241
  -2  -2 -10    8.95    1.01   1-0.62955-0.94728-0.33881 0.18495 0.69918 0.26161
  -2  -2 -10    9.50    0.90   1-0.25108-0.57164-0.92692-0.40237-0.27885-0.71506
   2   2  10   10.46    0.84   1-0.61338-0.29314-0.39961-0.92425-0.68122-0.24457
   2   2  11    7.68    1.09   1-0.44031-0.11372 0.75298 0.18751 0.48901 0.97565
  -2  -2 -11    6.43    0.99   1-0.62860-0.95240-0.34273 0.22163 0.69813 0.20930
   2   2  11    7.47    0.79   1-0.62213-0.29556-0.36815-0.93349-0.69094-0.20306
   2   2  12    7.05    1.04   1-0.39619-0.06329 0.80585 0.19962 0.44002 0.97782
  -2  -2 -12    5.88    1.05   1-0.62573-0.95559-0.35427 0.25069 0.69494 0.15486
   2   2  12    7.18    1.05   1-0.63047-0.29757-0.33497-0.94101-0.70021-0.16108
   2   3 -13   12.07    1.56   1-0.57493-0.32570 0.51159 0.94210 0.63852-0.07972
   2   3 -13   12.92    1.45   1 0.03982 0.29268-0.99822-0.57435-0.04422-0.76449
  -2  -3  13    9.86    1.11   1-0.66882-0.91782 0.02999-0.39635-0.74281-0.02242
   2   3 -12   10.51    1.24   1-0.55140-0.29582 0.56649 0.95357 0.61240-0.05647
   2   3 -12    9.08    1.18   1 0.05135 0.31024-0.99704-0.61372-0.05703-0.72601
  -2  -3  12    6.37    0.86   1-0.66908-0.92441 0.01149-0.37416-0.74309-0.07394
   2   3 -11   10.18    1.03   1-0.52630-0.26440 0.61752 0.96384 0.58452-0.03318
   2   3 -11   10.69    1.18   1 0.05974 0.32465-0.99600-0.65323-0.06635-0.68402
  -2  -3  11    5.45    0.76   1-0.66913-0.93078 0.00151-0.34344-0.74314-0.12523
   2   3 -10    5.96    0.82   1-0.49821-0.22999 0.66755 0.97310 0.55331-0.01322
   2   3 -10    5.67    0.97   1 0.06450 0.33544-0.99534-0.69311-0.07164-0.63801
  -2  -3  10    2.69    0.63   1-0.66912-0.93711 0.00313-0.30112-0.74314-0.17646
   2   3  -9   19.31    1.39   1-0.46673-0.19219 0.71656 0.98135 0.51836 0.00298
   2   3  -9   17.02    1.24   1 0.06501 0.34197-0.99526-0.73358-0.07220-0.58728
  -2  -3   9   12.24    0.99   1-0.66897-0.94329 0.02182-0.24172-0.74296-0.22752
   2   3  -8    2.08    0.83   1-0.43135-0.15050 0.76447 0.98849 0.47907 0.01485
   2   3  -8    2.36    0.76   1 0.06038 0.34337-0.99592-0.77478-0.06706-0.53084
  -2  -3   8    1.74    0.44   1-0.66758-0.94823 0.06794-0.15490-0.74142-0.27721
   2   3  -7    1.73    0.77   1-0.39142-0.10425 0.81105 0.99431 0.43471 0.02167
   2   3  -7    1.43    0.69   1 0.04945 0.33847-0.99726-0.81668-0.05492-0.46740
  -2  -3   7    1.19    0.40   1-0.66016-0.94715 0.16312-0.01903-0.73319-0.32021
   2   3  -6    2.35    0.57   1-0.34607-0.05258 0.85586 0.99836 0.38435 0.02246
   2   3  -6    2.37    0.50   1 0.03064 0.32568-0.99895-0.85891-0.03402-0.39521
   2   3  -5    5.54    0.64   1-0.29424 0.00555 0.89812 0.99985 0.32679 0.01607
   2   3  -5    5.18    0.67   1 0.00186 0.30293-0.99999-0.90050-0.00206-0.31195
   2   3  -4    8.12    0.61   1-0.03952 0.26757-0.99825-0.93931 0.04389-0.21469
   2   3  -3   26.84    1.04   1-0.09658 0.21654-0.98952-0.97113 0.10726-0.10003
  -2  -3   3   28.81    1.34   1 0.16322-0.14983-0.96979-0.98837-0.18127 0.02593
   2   3  -2   33.49    1.48   1-0.17211 0.14703-0.96635-0.98850 0.19115 0.03515
  -2  -3   2   37.68    1.55   1 0.08399-0.23514-0.99208-0.96993-0.09329 0.06270
   2   3  -2   35.84    1.56   1-0.52783-0.20926-0.61459-0.63540-0.58622-0.74328
   2   3  -2   35.56    1.67   1-0.29260 0.02637 0.89932 0.87643-0.32497-0.48080
   2   3  -1   57.27    1.94   1-0.26688 0.05829-0.91701-0.97972 0.29640 0.19170
  -2  -3   1   59.66    2.33   1-0.00540-0.33057-0.99996-0.93726 0.00599 0.11069
   2   3  -1   51.70    1.90   1-0.49187-0.16694-0.67796-0.73949-0.54628-0.65213
   2   3  -1   64.50    2.26   1 0.01520 0.34017 0.99974 0.93626 0.01688-0.08770
   2   3   0   10.45    0.69   1-0.37636-0.04515-0.82682-0.93007 0.41799 0.36459
  -2  -3   0   11.48    0.71   1-0.10346-0.43466-0.98797-0.88472 0.11491 0.16831
   2   3   0    9.53    0.69   1-0.48686-0.15556-0.68599-0.78826-0.54071-0.59534
   2   3   1  121.30    3.29   1-0.48708-0.14971-0.68563-0.82907 0.54096 0.53871
  -2  -3  -1  121.20    3.36   1-0.20517-0.54240-0.95183-0.80803 0.22786 0.22996
   2   3   1  109.47    3.20   1-0.49181-0.15415-0.67806-0.82106-0.54621-0.54963
   2   3   2  118.79    3.40   1-0.58162-0.23818-0.49440-0.67844 0.64596 0.69496
  -2  -3  -2  121.20    3.39   1-0.30252-0.64578-0.89195-0.70761 0.33599 0.28679
   2   3   2  113.07    3.28   1-0.50105-0.15702-0.66278-0.84651-0.55647-0.50867
   2   3   3   11.28    0.78   1-0.64325-0.29373-0.27540-0.50004 0.71440 0.81466
  -2  -3  -3   10.84    0.77   1-0.38730-0.73659-0.81545-0.59055 0.43015 0.32965
  -2  -3  -3   10.46    0.82   1-0.25275-0.60313-0.92591-0.70145-0.28070-0.37971
   2   3   3   10.83    0.81   1-0.51234-0.16195-0.64321-0.86767-0.56901-0.47000
   2   3   4   30.16    1.19   1-0.66763-0.31042-0.06694-0.33178 0.74147 0.89081
  -2  -3  -4   29.42    1.12   1-0.45387-0.80945-0.73478-0.46954 0.50407 0.35256
  -2  -3  -4   26.63    1.32   1-0.25730-0.61404-0.92311-0.65792-0.28576-0.43598
   2   3   4   28.84    1.21   1-0.52462-0.16787-0.62070-0.88590-0.58265-0.43243
   2   3   5   20.17    1.14   1-0.66357-0.30001 0.12862-0.17712 0.73697 0.93734
  -2  -3  -5   18.63    1.02   1-0.50350-0.86515-0.65861-0.35278 0.55919 0.35643
  -2  -3  -5   18.51    1.15   1-0.25524-0.61835-0.92438-0.61846-0.28347-0.48491
   2   3   5   18.16    1.05   1-0.53732-0.17421-0.59594-0.90186-0.59676-0.39532
   2   3   6   15.36    1.03   1-0.63944-0.26953 0.29456-0.05208 0.71017 0.96158
  -2  -3  -6   13.69    0.86   1-0.53806-0.90578-0.59445-0.24802 0.59758 0.34356
  -2  -3  -6   13.92    1.03   1-0.24857-0.61804-0.92843-0.58178-0.27606-0.52872
   2   3   6   14.51    1.03   1-0.55010-0.18063-0.56930-0.91596-0.61095-0.35830
   2   3   7   26.26    1.97   1-0.60360-0.22734 0.43157 0.04401 0.67037 0.97281
  -2  -3  -7   23.30    1.56   1-0.56111-0.93490-0.54478-0.15775 0.62318 0.31791
   2   3   7   24.80    1.67   1-0.56274-0.18690-0.54102-0.92841-0.62498-0.32112
   2   3   8    8.83    0.87   1-0.56038-0.17847 0.54646 0.11826 0.62236 0.97681
  -2  -3  -8    7.62    0.78   1-0.57578-0.95563-0.50945-0.08183 0.63947 0.28294
   2   3   8    8.79    0.91   1-0.57515-0.19318-0.51104-0.93939-0.63877-0.28323
   2   3   9    1.94    0.90   1-0.51475-0.12652 0.63890 0.16994 0.57168 0.97729
  -2  -3  -9    1.42    0.66   1-0.58436-0.97028-0.48715-0.01892 0.64900 0.24122
   2   3   9    2.28    0.55   1-0.58707-0.19877-0.47981-0.94886-0.65201-0.24524
   2   3  10    1.21    0.91   1-0.46738-0.07284 0.71560 0.20587 0.51908 0.97586
  -2  -3 -10    1.04    0.51   1-0.58838-0.98037-0.47621 0.03260 0.65346 0.19443
   2   3  10    1.47    0.56   1-0.59849-0.20386-0.44718-0.95692-0.66469-0.20669
   2   3  11    0.67    0.70   1-0.41891-0.01805 0.77977 0.22928 0.46525 0.97319
  -2  -3 -11    0.28    0.54   1-0.58878-0.98684-0.47511 0.07429 0.65390 0.14362
   2   3  11    0.24    0.78   1-0.60935-0.20838-0.41314-0.96359-0.67675-0.16751
   2   3  12    0.57    0.77   1-0.36944 0.03772 0.83376 0.24250 0.41031 0.96941
  -2  -3 -12    0.01    0.73   1-0.58606-0.99018-0.48256 0.10744 0.65088 0.08934
   2   3  12    0.13    0.56   1-0.61956-0.21227-0.37769-0.96884-0.68810-0.12762
   2   4 -13   -0.29    0.77   1-0.57104-0.24756 0.52124 0.96684 0.63420-0.06266
   2   4 -13    0.31    0.76   1 0.03992 0.36705-0.99821-0.55944-0.04433-0.74316
   2   4 -12    0.06    1.07   1-0.54838-0.21853 0.57301 0.97506 0.60904-0.03853
   2   4 -12    0.29    0.99   1 0.05005 0.38321-0.99719-0.59896-0.05559-0.70312
  -2  -4  12   -0.03    0.51   1-0.65188-0.98161 0.22553-0.17501-0.72399-0.07619
   2   4 -11    6.52    0.99   1-0.52463-0.18846 0.62069 0.98198 0.58266-0.01374
   2   4 -11    6.12    1.12   1 0.05706 0.39624-0.99635-0.63867-0.06337-0.65960
   2   4 -10   26.79    2.08   1-0.49841-0.15593 0.66720 0.98773 0.55355 0.00830
   2   4 -10   25.35    2.02   1 0.06048 0.40569-0.99590-0.67877-0.06717-0.61211
   2   4  -9    7.84    1.09   1-0.46947-0.12067 0.71255 0.99231 0.52140 0.02732
   2   4  -9    7.00    0.92   1 0.05971 0.41095-0.99601-0.71942-0.06631-0.55995
   2   4  -8   31.99    2.26   1-0.43746-0.08235 0.75667 0.99567 0.48585 0.04295
   2   4  -8   29.97    2.03   1 0.05393 0.41119-0.99674-0.76070-0.05989-0.50223
   2   4  -7   28.69    1.56   1-0.40197-0.04054 0.79944 0.99768 0.44643 0.05469
   2   4  -7   25.65    1.31   1 0.04206 0.40535-0.99802-0.80253-0.04671-0.43775
   2   4  -7   28.73    1.38   1-0.26740 0.09371-0.91667-0.71884-0.29698-0.68882
   2   4  -6   51.70    2.02   1-0.36244 0.00530 0.84059 0.99806 0.40253 0.06196
   2   4  -6   50.09    1.72   1 0.02268 0.39200-0.99942-0.84448-0.02519-0.36494
   2   4  -6   57.54    1.97   1-0.29452 0.07296-0.89791-0.74082-0.32710-0.66772
   2   4  -5   48.79    2.14   1-0.31821 0.05584 0.87967 0.99638 0.35341 0.06400
   2   4  -5   46.11    2.07   1-0.00602 0.36931-0.99995-0.88556 0.00669-0.28174
   2   4  -5   47.70    2.53   1-0.32982 0.04405-0.87007-0.75370-0.36630-0.65573
   2   4  -4   28.20    1.33   1-0.26849 0.11189 0.91596 0.99191 0.29818 0.05994
   2   4  -4   29.01    1.14   1-0.04637 0.33499-0.99759-0.92374 0.05150-0.18564
   2   4  -4   30.08    1.72   1-0.32137 0.05885-0.87711-0.80147-0.35692-0.59512
   2   4  -4   29.53    1.52   1-0.59427-0.21388-0.45958-0.38463-0.66001-0.89794
   2   4  -3  108.53    2.15   1-0.10095 0.28644-0.98855-0.95525 0.11211-0.07373
  -2  -4   3  107.92    2.41   1 0.20992-0.17735-0.94951-0.98300-0.23314-0.04744
   2   4  -3  111.14    2.42   1-0.35302 0.03355-0.84950-0.81460-0.39207-0.57904
   2   4  -2   16.63    0.88   1-0.17218 0.22123-0.96632-0.97357 0.19123 0.05668
  -2  -4   2   18.37    0.99   1 0.14652-0.24675-0.97573-0.96866-0.16273-0.02829
   2   4  -2   17.36    1.09   1-0.37682 0.01611-0.82635-0.83218-0.41850-0.55426
   2   4  -2   17.56    1.06   1-0.32439 0.06886 0.87462 0.86642-0.36028-0.49453
   2   4  -1   25.41    1.02   1-0.26101 0.13843-0.92077-0.96857 0.28988 0.20663
  -2  -4   1   26.83    1.21   1 0.07499-0.32445-0.99369-0.94590-0.08329-0.00003
   2   4  -1   25.18    1.15   1-0.39872 0.00057-0.80306-0.84963-0.44283-0.52737
   2   4  -1   28.39    1.45   1-0.11828 0.28098 0.98425 0.93546-0.13136-0.21436
   2   4   0   17.69    0.86   1-0.36444 0.04102-0.83865-0.92700 0.40475 0.37279
  -2  -4   0   18.33    1.14   1-0.00391-0.40938-0.99998-0.91163 0.00434 0.03630
   2   4   0   18.54    0.96   1-0.41952-0.01385-0.77904-0.86634-0.46592-0.49925
   2   4   0   18.52    1.04   1 0.00744 0.41270 0.99993 0.91056 0.00826-0.02348
   2   4   1    6.77    0.57   1-0.47201-0.06037-0.70879-0.83727 0.52422 0.54343
  -2  -4  -1    6.57    0.57   1-0.08869-0.50020-0.99117-0.86228 0.09850 0.07917
   2   4   1    6.38    0.59   1-0.43943-0.02740-0.75412-0.88215-0.48804-0.47015
   2   4   2   18.86    0.85   1-0.56878-0.15108-0.52671-0.69579 0.63170 0.70216
  -2  -4  -2   19.22    1.05   1-0.17546-0.59299-0.96500-0.79556 0.19487 0.12423
   2   4   2   17.47    0.94   1-0.45856-0.04017-0.72824-0.89700-0.50928-0.44018
   2   4   3    1.74    0.36   1-0.63663-0.21286-0.30783-0.51751 0.70705 0.82877
  -2  -4  -3    1.94    0.39   1-0.25855-0.68210-0.92233-0.71234 0.28715 0.16521
   2   4   3    2.17    0.61   1-0.47695-0.05220-0.70136-0.91086-0.52971-0.40939
   2   4   4    5.16    0.61   1-0.66644-0.23500-0.08943-0.33919 0.74016 0.91089
  -2  -4  -4    5.32    0.59   1-0.33225-0.76184-0.86800-0.61747 0.36901 0.19577
   2   4   4    4.82    0.58   1-0.49462-0.06350-0.67347-0.92370-0.54933-0.37780
   2   4   5    8.22    0.71   1-0.66412-0.22632 0.12205-0.16859 0.73758 0.95934
  -2  -4  -5    7.17    0.66   1-0.39289-0.82850-0.80946-0.51838 0.43635 0.21182
   2   4   5    7.96    0.81   1-0.51158-0.07410-0.64455-0.93551-0.56817-0.34542
   2   4   6    5.49    0.64   1-0.63744-0.19329 0.30405-0.02750 0.70795 0.98075
  -2  -4  -6    4.93    0.58   1-0.43880-0.88078-0.75494-0.42347 0.48734 0.21186
   2   4   6    4.63    0.59   1-0.52784-0.08400-0.61458-0.94627-0.58623-0.31227
   2   4   7    7.63    0.74   1-0.59618-0.14568 0.45402 0.08156 0.66213 0.98596
  -2  -4  -7    6.43    0.67   1-0.47287-0.92092-0.70750-0.33544 0.52518 0.19845
   2   4   7    8.13    0.90   1-0.54339-0.09318-0.58353-0.95595-0.60349-0.27832
   2   4   8    5.34    0.89   1-0.54609-0.08991 0.57787 0.16464 0.60649 0.98224
  -2  -4  -8    4.33    0.54   1-0.49638-0.95049-0.67058-0.25791 0.55129 0.17330
   2   4   8    5.51    0.64   1-0.55822-0.10165-0.55138-0.96453-0.61996-0.24357
   2   4   9   14.37    1.41   1-0.49311-0.03062 0.67594 0.22195 0.54766 0.97457
  -2  -4  -9    9.80    1.07   1-0.51144-0.97162-0.64481-0.19155 0.56801 0.13877
   2   4   9   13.98    1.28   1-0.57240-0.10970-0.51788-0.97204-0.63572-0.20760
   2   4  10    8.05    1.20   1-0.43835 0.03045 0.75553 0.26078 0.48683 0.96491
  -2  -4 -10    5.96    0.72   1-0.51973-0.98597-0.62983-0.13597 0.57722 0.09672
   2   4  10    8.06    1.02   1-0.58573-0.11670-0.48344-0.97830-0.65052-0.17117
   2   4  11    0.72    0.70   1-0.38367 0.09048 0.81927 0.28483 0.42611 0.95429
   2   4  11    2.50    0.61   1-0.59829-0.12293-0.44778-0.98334-0.66447-0.13389
   2   5 -13   14.38    1.12   1-0.56892-0.17111 0.52639 0.98419 0.63185-0.04558
   2   5 -13   13.45    1.04   1 0.03481 0.43622-0.99864-0.54496-0.03866-0.71605
   2   5 -12   14.38    1.70   1-0.54870-0.14458 0.57231 0.98934 0.60940-0.01686
   2   5 -12   14.51    1.45   1 0.04346 0.45089-0.99788-0.58475-0.04827-0.67435
   2   5 -11   15.14    1.54   1-0.52662-0.11619 0.61690 0.99317 0.58487 0.00977
   2   5 -11   14.90    1.61   1 0.04897 0.46243-0.99731-0.62472-0.05439-0.62918
   2   5 -10   19.55    1.40   1-0.50256-0.08581 0.66021 0.99572 0.55815 0.03421
   2   5 -10   18.48    1.40   1 0.05090 0.47038-0.99710-0.66506-0.05653-0.58002
   2   5  -9    8.70    1.20   1-0.47637-0.05330 0.70225 0.99699 0.52906 0.05629
   2   5  -9    8.26    1.05   1 0.04865 0.47417-0.99735-0.70586-0.05404-0.52623
   2   5  -9   10.63    0.92   1-0.25992 0.16284-0.92146-0.62721-0.28867-0.76163
   2   5  -8    8.34    1.11   1-0.44786-0.01847 0.74297 0.99695 0.49739 0.07579
   2   5  -8    7.87    0.99   1 0.04147 0.47301-0.99807-0.74713-0.04606-0.46695
   2   5  -8    9.93    0.77   1-0.30727 0.12185-0.88832-0.63479-0.34126-0.76301
   2   5  -7   26.32    1.87   1-0.41678 0.01892 0.78232 0.99553 0.46288 0.09244
   2   5  -7   25.45    1.74   1 0.02834 0.46591-0.99910-0.78870-0.03148-0.40108
   2   5  -7   29.67    2.00   1-0.37032 0.06517-0.83288-0.62009-0.41128-0.78181
  -2  -5   7   25.71    1.86   1-0.26032-0.69786 0.92121 0.71176-0.28911 0.07981
   2   5  -6    0.63    0.77   1-0.38282 0.05919 0.82016 0.99261 0.42517 0.10589
   2   5  -6    0.53    0.64   1 0.00798 0.45157-0.99992-0.83007-0.00887-0.32717
   2   5  -6    0.48    0.36   1-0.47037-0.02851-0.71122-0.53916-0.52240-0.84171
  -2  -5   6    0.35    0.39   1-0.05692-0.50046 0.99637 0.82751-0.06321 0.25446
   2   5  -5   11.92    0.89   1-0.34562 0.10270 0.85627 0.98795 0.38385 0.11574
   2   5  -5   11.25    0.74   1-0.02123 0.42837-0.99949-0.87019 0.02358-0.24341
   2   5  -5   12.87    0.80   1-0.61289-0.16444-0.40128-0.27074-0.68068-0.94850
   2   5  -4    4.87    0.64   1-0.30472 0.14992 0.89028 0.98120 0.33843 0.12148
   2   5  -4    4.93    0.66   1-0.06131 0.39432-0.99579-0.90703 0.06810-0.14760
   2   5  -4    5.28    0.47   1-0.66380-0.20902 0.12593 0.21577-0.73722-0.95380
   2   5  -3    7.34    0.69   1-0.25961 0.20135 0.92166 0.97182 0.28832 0.12255
   2   5  -3    8.69    0.85   1-0.11447 0.34719-0.98525-0.93705 0.12713-0.03727
   2   5  -3    7.88    0.76   1-0.27327 0.18767-0.91280-0.86293-0.30350-0.46916
   2   5  -3    8.80    0.65   1-0.53538-0.07374 0.59984 0.64716-0.59460-0.75877
   2   5  -2    4.00    0.57   1-0.18275 0.28494-0.96197-0.95432 0.20296 0.08985
  -2  -5   2    3.85    0.57   1 0.20769-0.25980-0.95060-0.95845-0.23066-0.11774
   2   5  -2    4.12    0.49   1-0.31668 0.15062-0.88091-0.87178-0.35171-0.46616
   2   5  -2    4.11    0.47   1-0.35494 0.11275 0.84771 0.85451-0.39420-0.50704
   2   5  -1   16.24    0.80   1-0.26700 0.20671-0.91693-0.94982 0.29653 0.23472
  -2  -5   1   17.35    1.09   1 0.15256-0.32093-0.97365-0.94094-0.16944-0.10778
   2   5  -1   15.99    0.93   1-0.35094 0.12272-0.85142-0.88302-0.38976-0.45299
   2   5  -1   17.34    1.03   1-0.20254 0.27100 0.95308 0.91899-0.22494-0.28636
   2   5   0   17.71    0.93   1-0.36502 0.11473-0.83810-0.91154 0.40539 0.39488
  -2  -5   0   17.63    1.12   1 0.09174-0.38800-0.99055-0.91711-0.10189-0.09137
   2   5   0   17.39    1.23   1-0.38018 0.09984-0.82290-0.89523-0.42223-0.43425
   2   5   0   18.28    1.03   1-0.09369 0.38584 0.99014 0.91546-0.10406-0.11423
   2   5   1   26.57    1.36   1-0.46832 0.01757-0.71424-0.82776 0.52012 0.56079
  -2  -5  -1   27.24    1.39   1 0.02591-0.45985-0.99924-0.88526-0.02878-0.06956
   2   5   1   25.96    1.31   1-0.40626 0.08013-0.79458-0.90765-0.45120-0.41200
   2   5   1   25.14    1.20   1-0.01908 0.46646 0.99959 0.88431-0.02119 0.01988
   2   5   2    5.20    0.49   1-0.56421-0.07225-0.53759-0.69171 0.62662 0.71854
  -2  -5  -2    5.11    0.55   1-0.04386-0.53566-0.99784-0.84331 0.04871-0.04336
   2   5   2    5.05    0.68   1-0.43011 0.06264-0.76603-0.91983-0.47769-0.38728
   2   5   2    4.24    0.49   1 0.03110 0.52265 0.99891 0.84305 0.03454 0.12687
   2   5   3   60.59    1.87   1-0.63445-0.13642-0.31772-0.51243 0.70463 0.84781
  -2  -5  -3   57.69    2.25   1-0.11504-0.61287-0.98510-0.79002 0.12777-0.01560
   2   5   3   56.39    1.92   1-0.45226 0.04685-0.73698-0.93151-0.50229-0.36067
   2   5   4   41.79    2.15   1-0.66645-0.16076-0.08938-0.32404 0.74017 0.93228
  -2  -5  -4   43.74    2.15   1-0.18393-0.68778-0.96147-0.72584 0.20427 0.00960
   2   5   4   39.52    1.82   1-0.47303 0.03245-0.70728-0.94253-0.52535-0.33251
   2   5   5    6.61    0.63   1-0.66264-0.15060 0.13884-0.13672 0.73594 0.97909
  -2  -5  -5    6.50    0.61   1-0.24657-0.75645-0.92962-0.65344 0.27384 0.02787
   2   5   5    6.20    0.65   1-0.49259 0.01925-0.67679-0.95278-0.54707-0.30302
   2   5   6    9.87    0.93   1-0.62971-0.11131 0.33815 0.02168 0.69936 0.99354
  -2  -5  -6    9.81    0.82   1-0.29990-0.81581-0.89393-0.57720 0.33307 0.03580
   2   5   6    9.23    0.94   1-0.51108 0.00712-0.64545-0.96217-0.56761-0.27234
   2   5   7    7.83    1.02   1-0.57880-0.05405 0.50175 0.14438 0.64282 0.98804
  -2  -5  -7    7.33    0.90   1-0.34243-0.86436-0.85912-0.50185 0.38031 0.03174
   2   5   7    6.42    0.77   1-0.52858-0.00400-0.61317-0.97062-0.58704-0.24056
   2   5   8    5.80    0.99   1-0.51742 0.01301 0.63406 0.23581 0.57466 0.97171
  -2  -5  -8    4.92    0.77   1-0.37413-0.90209-0.82908-0.43125 0.41551 0.01564
   2   5   8    5.46    0.93   1-0.54513-0.01419-0.57989-0.97808-0.60543-0.20773
   2   5   9    5.92    0.84   1-0.45279 0.08396 0.73626 0.29724 0.50288 0.95110
  -2  -5  -9    4.91    0.77   1-0.39578-0.92977-0.80630-0.36793 0.43956-0.01159
   2   5   9    6.83    0.78   1-0.56077-0.02347-0.54556-0.98448-0.62280-0.17389
   2   5  10    1.23    0.81   1-0.57562-0.03219-0.50986-0.98982-0.63929-0.13859
   2   6 -12    1.92    1.17   1-0.55198-0.07359 0.56524 0.99725 0.61303 0.00807
   2   6 -12    1.50    0.74   1 0.03218 0.51389-0.99884-0.57080-0.03574-0.64039
   2   6 -11    0.44    0.76   1-0.53177-0.04706 0.60696 0.99821 0.59059 0.03679
   2   6 -11   -0.03    0.66   1 0.03612 0.52385-0.99854-0.61104-0.04011-0.59346
   2   6 -10    0.96    1.06   1-0.51003-0.01901 0.64730 0.99778 0.56645 0.06381
   2   6 -10    0.41    0.63   1 0.03644 0.53020-0.99851-0.65156-0.04048-0.54252
   2   6 -10    0.73    0.50   1-0.24849 0.24228-0.92848-0.57852-0.27597-0.77884
   2   6  -9    4.62    0.84   1-0.48670 0.01063 0.68625 0.99596 0.54053 0.08906
   2   6  -9    4.71    0.72   1 0.03260 0.53238-0.99881-0.69241-0.03620-0.48695
   2   6  -9    6.04    0.68   1-0.30702 0.19011-0.88851-0.57929-0.34098-0.79263
   2   6  -8   25.96    1.76   1-0.46169 0.04195 0.72381 0.99277 0.51276 0.11246
   2   6  -8   24.45    1.65   1 0.02384 0.52965-0.99936-0.73351-0.02648-0.42593
   2   6  -8   31.02    2.18   1-0.38160 0.12190-0.82143-0.55294-0.42381-0.82425
  -2  -6   8   17.52    2.24   1-0.18679-0.69262 0.96024 0.69550-0.20746 0.19114
   2   6  -7    8.37    1.25   1-0.43491 0.07505 0.75996 0.98815 0.48302 0.13388
   2   6  -7    7.57    1.06   1 0.00924 0.52108-0.99990-0.77460-0.01026-0.35842
   2   6  -7    8.91    1.26   1-0.48154 0.02832-0.69433-0.46656-0.53480-0.88403
  -2  -6   7    3.83    1.58   1-0.05513-0.56696 0.99659 0.77245-0.06123 0.28612
   2   6  -6   25.69    1.83   1-0.40623 0.11005 0.79462 0.98204 0.45116 0.15319
   2   6  -6   25.25    1.69   1-0.01238 0.50547-0.99982-0.81507 0.01375-0.28310
   2   6  -6   29.92    1.90   1-0.59701-0.08049-0.45159-0.26545-0.66305-0.96075
   2   6  -5   29.62    1.76   1-0.37549 0.14710 0.82770 0.97436 0.41702 0.17022
   2   6  -5   31.15    1.54   1-0.04250 0.48138-0.99798-0.85377 0.04721-0.19834
   2   6  -5   32.63    1.52   1-0.66705-0.14420-0.07879 0.06663-0.74083-0.98730
   2   6  -4   15.65    1.14   1-0.34252 0.18639 0.85904 0.96494 0.38041 0.18477
   2   6  -4   16.65    0.97   1-0.08286 0.44705-0.99230-0.88864 0.09202-0.10223
   2   6  -4   17.74    1.08   1-0.63129-0.10139 0.33149 0.43412-0.70112-0.89513
   2   6  -3   32.27    1.49   1-0.30712 0.22811 0.88844 0.95357 0.34109 0.19662
   2   6  -3   35.14    1.52   1-0.13533 0.40060-0.97933-0.91622 0.15030 0.00734
   2   6  -3   33.09    1.47   1-0.25571 0.27959-0.92409-0.85926-0.28400-0.42836
   2   6  -3   34.30    1.54   1-0.51697 0.01899 0.63487 0.69698-0.57416-0.71683
   2   6  -2   33.03    1.41   1-0.26907 0.27247 0.91558 0.93995 0.29883 0.20552
   2   6  -2   37.66    1.47   1-0.20163 0.34033-0.95351-0.93095 0.22393 0.13227
   2   6  -2   36.11    1.52   1-0.29601 0.24566-0.89682-0.87272-0.32875-0.42189
   2   6  -2   34.64    1.69   1-0.38356 0.15847 0.81939 0.84099-0.42598-0.51731
   2   6  -1   62.68    2.07   1-0.28242 0.26557-0.90655-0.92454 0.31366 0.27329
   2   6  -1   56.26    2.25   1-0.33033 0.21770-0.86964-0.88627-0.36687-0.40880
   2   6  -1   64.40    2.07   1-0.26454 0.28328 0.91852 0.89912-0.29380-0.33364
   2   6   0   10.56    0.84   1-0.37585 0.17816-0.82733-0.88587 0.41742 0.42835
  -2  -6   0   10.74    0.93   1 0.18274-0.37097-0.96198-0.90363-0.20295-0.21407
   2   6   0   10.14    0.75   1-0.36068 0.19371-0.84228-0.89964-0.40058-0.39129
   2   6   0   10.65    0.84   1-0.17165 0.38217 0.96653 0.90654-0.19064-0.17923
   2   6   1    8.90    0.73   1-0.47468 0.08546-0.70480-0.80336 0.52718 0.58932
  -2  -6  -1    9.49    0.83   1 0.13586-0.42386-0.97917-0.88026-0.15088-0.21326
   2   6   1    8.65    0.79   1-0.38819 0.17256-0.81451-0.91260-0.43113-0.37063
   2   6   1    8.23    0.64   1-0.10219 0.45763 0.98826 0.88768-0.11350-0.05084
   2   6   2   10.95    0.75   1-0.56785-0.00163-0.52895-0.66811 0.63066 0.74405
  -2  -6  -2   10.69    0.88   1 0.08624-0.47982-0.99165-0.85202-0.09578-0.20931
   2   6   2    9.74    0.77   1-0.41353 0.15359-0.78616-0.92499-0.45927-0.34755
   2   6   2    8.79    0.74   1-0.05168 0.51414 0.99701 0.85583-0.05740 0.05650
   2   6   3    2.52    0.42   1-0.63735-0.06506-0.30452-0.48428 0.70784 0.87248
  -2  -6  -3    2.50    0.53   1 0.03478-0.53732-0.99864-0.81847-0.03863-0.20345
   2   6   3    2.40    0.68   1-0.43712 0.13636-0.75712-0.93667-0.48547-0.32254
   2   6   3    2.02    0.46   1-0.01581 0.55602 0.99972 0.81795-0.01755 0.14759
   2   6   4    9.25    1.13   1-0.66779-0.08785-0.06319-0.28276 0.74165 0.95515
  -2  -6  -4   10.20    0.88   1-0.01721-0.59534-0.99966-0.77894 0.01912-0.19699
   2   6   4    9.35    0.73   1-0.45925 0.12060-0.72728-0.94757-0.51004-0.29590
   2   6   4    7.86    1.02   1 0.00886 0.58669 0.99991 0.77755 0.00984 0.22625
   2   6   5    1.01    0.56   1-0.65743-0.07115 0.18612-0.07434 0.73015 0.99469
  -2  -6  -5    1.12    0.67   1-0.06765-0.65180-0.99487-0.73360 0.07513-0.19228
   2   6   5    0.32    0.73   1-0.48008 0.10612-0.69657-0.95760-0.53319-0.26783
   2   6   5    0.84    0.49   1 0.02490 0.60873 0.99930 0.73636 0.02765 0.29531
   2   6   6    2.52    0.62   1-0.61101-0.01837 0.40762 0.10625 0.67860 0.99416
  -2  -6  -6    2.67    0.77   1-0.11394-0.70413-0.98539-0.68357 0.12655-0.19216
   2   6   6    2.22    0.58   1-0.49976 0.09281-0.66495-0.96670-0.55504-0.23847
   2   6   6    1.60    0.56   1 0.03418 0.62401 0.99869 0.69515 0.03796 0.35687
   2   6   7    1.17    0.63   1-0.54013 0.05826 0.59024 0.24773 0.59988 0.96707
  -2  -6  -7    1.23    0.63   1-0.15350-0.74972-0.97332-0.63095 0.17048-0.19952
   2   6   7    0.78    0.79   1-0.51837 0.08056-0.63233-0.97482-0.57571-0.20792
   2   6   7    0.95    0.58   1 0.03807 0.63391 0.99838 0.65425 0.04228 0.41244
   2   6   8    1.91    0.59   1-0.53596 0.06933-0.59868-0.98190-0.59524-0.17624
   2   6   8    1.76    0.66   1 0.03758 0.63942 0.99842 0.61370 0.04173 0.46314
   2   6   9    2.76    0.86   1-0.55258 0.05908-0.56393-0.98788-0.61370-0.14348
   2   6   9    2.40    0.72   1 0.03345 0.64129 0.99874 0.57344 0.03715 0.50981
   2   7 -12    9.76    1.12   1-0.55779-0.00513 0.55236 0.99934 0.61949 0.03582
   2   7 -12    9.75    0.93   1 0.01669 0.57267-0.99968-0.55674-0.01853-0.60173
   2   7 -11   16.91    1.71   1-0.53959 0.01938 0.59135 0.99757 0.59927 0.06678
   2   7 -11   14.76    1.47   1 0.01898 0.58099-0.99959-0.59719-0.02108-0.55299
   2   7 -10   18.17    2.04   1-0.52026 0.04502 0.62885 0.99431 0.57780 0.09647
   2   7 -10   17.10    1.86   1 0.01764 0.58567-0.99965-0.63779-0.01959-0.50019
   2   7  -9   13.71    1.46   1-0.49981 0.07179 0.66487 0.98956 0.55509 0.12493
   2   7  -9   13.46    1.35   1 0.01209 0.58615-0.99983-0.67853-0.01343-0.44273
   2   7  -8   22.63    1.64   1-0.47825 0.09966 0.69938 0.98331 0.53115 0.15215
   2   7  -8   23.46    1.71   1 0.00164 0.58173-0.99999-0.71924-0.00183-0.37983
   2   7  -8   27.50    2.04   1-0.45572 0.12215-0.73222-0.44875-0.50613-0.88526
   2   7  -7    4.61    0.78   1-0.45559 0.12863 0.73239 0.97555 0.50599 0.17816
   2   7  -7    5.09    0.67   1-0.01457 0.57153-0.99976-0.75955 0.01618-0.31052
   2   7  -7    6.10    0.57   1-0.56638 0.01820-0.53246-0.29073-0.62903-0.95663
   2   7  -6    6.71    1.02   1-0.43186 0.15869 0.76384 0.96624 0.47962 0.20296
   2   7  -6    7.52    0.71   1-0.03767 0.55446-0.99841-0.79875 0.04183-0.23357
   2   7  -6    8.89    0.70   1-0.64929-0.05837-0.24171-0.04068-0.72110-0.99746
   2   7  -5   20.05    1.25   1-0.40705 0.18981 0.79368 0.95531 0.45208 0.22657
   2   7  -5   21.18    1.44   1-0.06895 0.52921-0.99467-0.83556 0.07657-0.14753
   2   7  -5   24.12    1.34   1-0.66627-0.06902 0.09232 0.25265-0.73997-0.96509
   2   7  -4    0.08    0.75   1-0.38121 0.22196 0.82183 0.94271 0.42338 0.24905
   2   7  -4    0.15    0.62   1-0.10994 0.49424-0.98640-0.86784 0.12210-0.05070
   2   7  -4    0.12    0.38   1-0.61107-0.00683 0.40743 0.52484-0.67866-0.85116
   2   7  -3   21.21    1.51   1-0.35440 0.25509 0.84821 0.92832 0.39360 0.27043
   2   7  -3   23.49    1.66   1-0.16227 0.44794-0.97014-0.89213 0.18022 0.05869
   2   7  -3   22.30    1.58   1-0.26023 0.34945-0.92127-0.84147-0.28901-0.41206
   2   7  -3   25.81    1.83   1-0.51601 0.09428 0.63662 0.71352-0.57309-0.69425
   2   7  -2    4.95    0.79   1-0.32670 0.28911 0.87270 0.91204 0.36284 0.29084
   2   7  -2    6.23    0.72   1-0.22730 0.38893-0.94053-0.90306 0.25245 0.18222
   2   7  -2    5.86    0.59   1-0.29467 0.32136-0.89780-0.85873-0.32727-0.39910
   2   7  -2    7.32    0.67   1-0.41153 0.20483 0.78850 0.82488-0.45705-0.52688
   2   7  -1    5.68    0.63   1-0.29827 0.32385 0.89514 0.89372 0.33127 0.31043
   2   7  -1    7.36    0.62   1-0.30551 0.31675-0.88968-0.89275 0.33930 0.32038
   2   7  -1    7.04    0.73   1-0.32587 0.29653-0.87339-0.87506-0.36192-0.38254
   2   7  -1    7.58    0.70   1-0.31493 0.30718 0.88231 0.87760-0.34976-0.36803
   2   7   0    0.93    0.43   1-0.26936 0.35908 0.91539 0.87320 0.29916 0.32948
   2   7   0    1.09    0.41   1-0.39514 0.23315-0.80701-0.85064 0.43885 0.47122
   2   7   0    0.90    0.45   1-0.35458 0.27418-0.84805-0.89044-0.39380-0.36320
   2   7   0    1.21    0.64   1-0.23531 0.39279 0.93612 0.89082-0.26134-0.22836
   2   7   1    7.33    0.87   1-0.48968 0.14472-0.68149-0.76508 0.54385 0.62744
   2   7   1    5.87    0.91   1-0.38128 0.25384-0.82176-0.90489-0.42346-0.34165
   2   7   1    5.91    0.88   1-0.17217 0.46193 0.96632 0.88043-0.19122-0.10698
   2   7   2    7.77    0.77   1-0.57905 0.06142-0.50111-0.62531 0.64310 0.77795
  -2  -7  -2    6.44    0.78   1 0.21123-0.42871-0.94886-0.82431-0.23459-0.36975
   2   7   2    6.21    0.65   1-0.40632 0.23516-0.79451-0.91837-0.45127-0.31824
   2   7   2    5.75    0.73   1-0.12364 0.51647 0.98278 0.85629-0.13731-0.00182
   2   7   3   10.03    0.89   1-0.64504 0.00150-0.26590-0.43069 0.71639 0.90249
  -2  -7  -3    9.66    1.15   1 0.18434-0.46160-0.96130-0.79619-0.20473-0.39114
   2   7   3    8.61    0.95   1-0.42992 0.21793-0.76627-0.93086-0.47747-0.29324
   2   7   3    7.55    0.73   1-0.08726 0.55885 0.99145 0.82438-0.09691 0.08982
   2   7   4    1.31    0.56   1-0.66912-0.01494-0.00347-0.20795 0.74313 0.97802
  -2  -7  -4    1.36    0.71   1 0.16043-0.49151-0.97083-0.76516-0.17818-0.41585
   2   7   4    0.96    0.53   1-0.45224 0.20197-0.73702-0.94234-0.50226-0.26681
   2   7   4    0.98    0.67   1-0.06078 0.59133 0.99586 0.78820-0.06751 0.17047
   2   7   5   21.98    1.52   1-0.64225 0.01828 0.28058 0.03520 0.71329 0.99921
  -2  -7  -5   20.09    1.90   1 0.14211-0.51583-0.97718-0.73096-0.15783-0.44677
   2   7   5   19.64    1.33   1-0.47340 0.18718-0.70672-0.95278-0.52576-0.23909
   2   7   5   18.60    1.17   1-0.04232 0.61579 0.99799 0.74974-0.04700 0.24223
   2   7   6   10.50    1.09   1-0.49347 0.17347-0.67536-0.96214-0.54805-0.21017
   2   7   6    8.59    0.98   1-0.03038 0.63374 0.99896 0.71012-0.03374 0.30674
   2   7   7    1.74    0.85   1-0.51252 0.16078-0.64289-0.97041-0.56921-0.18011
   2   7   7    1.22    0.62   1-0.02379 0.64632 0.99936 0.66993-0.02642 0.36531
   2   7   8    2.49    0.64   1-0.53058 0.14908-0.60928-0.97753-0.58927-0.14896
   2   7   8    2.22    0.70   1-0.02167 0.65444 0.99947 0.62944-0.02407 0.41891
   2   8 -11    3.74    1.25   1-0.54962 0.08361 0.57034 0.99154 0.61042 0.09922
   2   8 -11    3.78    1.05   1-0.00205 0.63422-0.99999-0.58268 0.00228-0.50817
   2   8 -10    1.37    0.82   1-0.53273 0.10682 0.60509 0.98552 0.59165 0.13163
   2   8 -10    0.58    0.97   1-0.00513 0.63716-0.99997-0.62321 0.00570-0.45345
   2   8  -9   -0.25    1.08   1-0.51513 0.13073 0.63821 0.97788 0.57211 0.16325
   2   8  -9   -0.23    0.63   1-0.01244 0.63588-0.99982-0.66361 0.01382-0.39403
   2   8  -8    0.93    0.73   1-0.49692 0.15526 0.66969 0.96859 0.55188 0.19419
   2   8  -8    1.01    0.63   1-0.02466 0.62969-0.99931-0.70365 0.02739-0.32917
   2   8  -7    1.82    1.00   1-0.47818 0.18031 0.69949 0.95763 0.53108 0.22455
   2   8  -7    2.14    0.64   1-0.04261 0.61776-0.99796-0.74285 0.04733-0.25793
   2   8  -7    2.60    0.46   1-0.61545 0.04353-0.39242-0.13580-0.68353-0.98977
   2   8  -6   15.26    1.17   1-0.45905 0.20576 0.72756 0.94493 0.50982 0.25446
   2   8  -6   17.23    1.38   1-0.06731 0.59909-0.99492-0.78036 0.07475-0.17921
   2   8  -6   19.62    1.26   1-0.66535-0.00003-0.10614 0.10977-0.73894-0.99395
   2   8  -5    6.35    0.88   1-0.43967 0.23146 0.75382 0.93043 0.48830 0.28410
   2   8  -5    6.72    0.81   1-0.09994 0.57249-0.98878-0.81476 0.11099-0.09167
   2   8  -5    8.34    0.84   1-0.65824 0.01339 0.17961 0.35483-0.73105-0.93483
   2   8  -4   12.19    1.08   1-0.42024 0.25720 0.77817 0.91402 0.46673 0.31369
   2   8  -4   13.54    1.16   1-0.14184 0.53661-0.97727-0.84380 0.15753 0.00615
   2   8  -4   12.63    1.03   1-0.24501 0.43267-0.93054-0.79505-0.27211-0.42507
   2   8  -4   14.73    1.21   1-0.60258 0.07598 0.43474 0.56694-0.66924-0.82024
   2   8  -3   20.11    1.43   1-0.40104 0.28272 0.80048 0.89557 0.44540 0.34353
   2   8  -3   24.80    1.64   1-0.19440 0.49008-0.95686-0.86394 0.21590 0.11582
   2   8  -3   23.35    1.76   1-0.27538 0.40866-0.91138-0.81661-0.30585-0.40759
   2   8  -3   26.75    1.71   1-0.52373 0.16090 0.62238 0.71407-0.58166-0.68132
   2   8  -2    0.79    0.73   1-0.38243 0.30765 0.82057 0.87489 0.42473 0.37403
   2   8  -2    1.56    0.50   1-0.25872 0.43179-0.92222-0.86985 0.28733 0.23855
   2   8  -2    1.30    0.49   1-0.30418 0.38622-0.89069-0.83666-0.33783-0.38836
   2   8  -2    1.12    0.62   1-0.43896 0.25174 0.75474 0.80591-0.48751-0.53584
   2   8  -1   14.56    1.19   1-0.36492 0.33148 0.83819 0.85175 0.40528 0.40575
   2   8  -1   21.64    1.57   1-0.33502 0.36151-0.86562-0.85380 0.37208 0.37459
   2   8  -1   18.47    1.48   1-0.33157 0.36520-0.86859-0.85529-0.36824-0.36756
   2   8  -1   20.81    1.53   1-0.35964 0.33713 0.84328 0.85393-0.39942-0.39640
   2   8   0   23.02    1.64   1-0.34925 0.35346 0.85297 0.82576 0.38789 0.43952
   2   8   0   34.68    2.18   1-0.42073 0.28186-0.77758-0.80562 0.46727 0.52107
   2   8   0   28.57    1.86   1-0.35766 0.34546-0.84515-0.87258-0.39723-0.34533
   2   8   0   31.89    2.18   1-0.28970 0.41269 0.90141 0.87080-0.32175-0.26718
   2   8   1   14.21    1.42   1-0.33656 0.37246 0.86429 0.79632 0.37379 0.47659
   2   8   1   22.70    1.82   1-0.51210 0.19656-0.64364-0.71228 0.56874 0.67380
   2   8   1   17.70    1.59   1-0.38258 0.32691-0.82042-0.88858-0.42490-0.32178
   2   8   1   17.74    1.49   1-0.23283 0.47557 0.93751 0.86631-0.25858-0.15276
   2   8   2    4.05    0.75   1-0.32867 0.38668 0.87105 0.76231 0.36502 0.51898
   2   8   2    5.77    0.62   1-0.59686 0.11787-0.45203-0.56126 0.66288 0.81919
   2   8   2    4.96    0.64   1-0.40639 0.30947-0.79443-0.90333-0.45134-0.29701
   2   8   2    4.14    0.58   1-0.18726 0.52714 0.96004 0.84825-0.20797-0.05090
   2   8   3    1.46    0.68   1-0.32889 0.39277 0.87086 0.72136 0.36527 0.57040
   2   8   3    1.32    0.47   1-0.65465 0.06741-0.20684-0.35532 0.72707 0.93230
   2   8   3    2.02    0.79   1-0.42916 0.29306-0.76722-0.91685-0.47663-0.27108
   2   8   3    1.74    0.52   1-0.15170 0.56870 0.97395 0.82157-0.16848 0.03983
   2   8   4    2.72    0.62   1-0.45093 0.27764-0.73880-0.92916-0.50081-0.24405
   2   8   4    2.72    0.75   1-0.12471 0.60168 0.98247 0.78950-0.13851 0.12105
   2   8   5    0.20    0.82   1-0.47176 0.26318-0.70916-0.94025-0.52394-0.21597
   2   8   5    0.64    0.65   1-0.10497 0.62743 0.98761 0.75405-0.11658 0.19423
   2   8   6    2.64    0.64   1-0.49165 0.24965-0.67831-0.95013-0.54604-0.18685
   2   8   6    2.13    0.62   1-0.09132 0.64707 0.99064 0.71648-0.10143 0.26063
   2   8   7    0.01    0.85   1-0.51064 0.23703-0.64622-0.95877-0.56712-0.15672
   2   8   7   -0.25    0.62   1-0.08284 0.66156 0.99230 0.67756-0.09200 0.32131
   2   9  -9   10.15    1.24   1-0.53215 0.18798 0.60622 0.96086 0.59101 0.20346
   2   9  -9    9.19    1.09   1-0.04073 0.68187-0.99814-0.64702 0.04524-0.34118
   2   9  -8   14.27    1.67   1-0.51714 0.20931 0.63457 0.94845 0.57434 0.23795
   2   9  -8   15.93    1.76   1-0.05478 0.67384-0.99664-0.68607 0.06084-0.27428
   2   9  -7    6.71    0.88   1-0.50210 0.23066 0.66100 0.93412 0.55764 0.27241
   2   9  -7    7.54    1.03   1-0.07453 0.66012-0.99377-0.72375 0.08278-0.20104
   2   9  -5    1.82    0.94   1-0.47280 0.27260 0.70762 0.89921 0.52509 0.34220
   2   9  -5    2.38    0.62   1-0.13504 0.61166-0.97942-0.79049 0.14998-0.03124
   2   9  -5    2.62    0.58   1-0.25006 0.49562-0.92754-0.73634-0.27772-0.46059
   2   9  -5    2.88    0.52   1-0.65279 0.09325 0.21962 0.40972-0.72500-0.90742
   2   9  -4    4.02    0.79   1-0.45913 0.29258 0.72744 0.87827 0.50991 0.37819
   2   9  -4    5.15    0.93   1-0.17806 0.57467-0.96394-0.81556 0.19775 0.06782
   2   9  -4    4.84    0.80   1-0.27302 0.47902-0.91296-0.76250-0.30322-0.43488
   2   9  -4    6.10    0.88   1-0.60211 0.15079 0.43620 0.58319-0.66871-0.79821
   2   9  -3    8.57    1.03   1-0.44667 0.31136 0.74457 0.85463 0.49608 0.41552
   2   9  -3   11.71    1.30   1-0.23115 0.52761-0.93843-0.83060 0.25672 0.17808
   2   9  -3   11.34    1.12   1-0.29667 0.46174-0.89634-0.78660-0.32948-0.40992
   2   9  -3   12.72    1.25   1-0.53622 0.22274 0.59816 0.70463-0.59553-0.67369
   2   9  -2    0.29    0.84   1-0.43602 0.32832 0.75853 0.82782 0.48425 0.45486
   2   9  -2    0.06    0.53   1-0.29517 0.46961-0.89744-0.83016 0.32782 0.30048
   2   9  -2    0.19    0.50   1-0.32045 0.44432-0.87786-0.80886-0.35590-0.38512
   2   9  -2    0.46    0.84   1-0.46586 0.29917 0.71782 0.78378-0.51739-0.54421
   2   9  -1   17.31    1.81   1-0.42805 0.34261 0.76860 0.79714 0.47540 0.49717
   2   9  -1   29.28    2.41   1-0.37013 0.40068-0.83307-0.80634 0.41107 0.43503
   2   9  -1   23.59    2.07   1-0.34406 0.42707-0.85767-0.82940-0.38212-0.36013
   2   9  -1   28.84    2.42   1-0.39877 0.37232 0.80301 0.82845-0.44288-0.41837
   2   9   0    3.56    0.91   1-0.42404 0.35294 0.77355 0.76132 0.47094 0.54388
   2   9   0    6.29    0.85   1-0.45335 0.32350-0.73550-0.74858 0.50349 0.57876
   2   9   0    5.01    0.74   1-0.36728 0.41021-0.83588-0.84834-0.40791-0.33471
   2   9   0    5.61    1.04   1-0.33776 0.43891 0.86324 0.84732-0.37513-0.29898
   2   9   1    2.83    0.84   1-0.42608 0.35722 0.77105 0.71805 0.47321 0.59731
   2   9   1    5.43    0.89   1-0.54096 0.24196-0.58854-0.64222 0.60080 0.72732
   2   9   1    3.77    0.84   1-0.39000 0.39386-0.81257-0.86577-0.43314-0.30872
   2   9   1    4.30    0.88   1-0.28669 0.49599 0.90356 0.84705-0.31840-0.19100
   2   9   2    0.24    0.55   1-0.41212 0.37810-0.78781-0.88174-0.45771-0.28207
   2   9   3    1.33    0.85   1-0.43359 0.36299-0.76164-0.89630-0.48155-0.25470
   2   9   3    1.36    0.55   1-0.21044 0.58424 0.94925 0.81156-0.23372-0.00382
   2   9   4    1.25    0.63   1-0.45437 0.34858-0.73409-0.90948-0.50463-0.22656
   2   9   4    1.29    0.63   1-0.18378 0.61690 0.96153 0.78326-0.20411 0.07703
   2   9   5    2.22    0.93   1-0.47443 0.33488-0.70517-0.92129-0.52691-0.19763
   2   9   5    2.05    0.82   1-0.16357 0.64311 0.96965 0.75078-0.18167 0.15072
   2  10  -8    0.35    0.77   1-0.53842 0.26230 0.59373 0.92258 0.59798 0.28289
   2  10  -8    0.64    0.80   1-0.08849 0.71441-0.99121-0.66574 0.09827-0.21540
   2  10  -7   -0.18    0.73   1-0.52683 0.28020 0.61651 0.90461 0.58510 0.32118
   2  10  -7    0.25    0.90   1-0.11011 0.69882-0.98636-0.70144 0.12228-0.14009
   2  10  -6    0.18    1.01   1-0.51589 0.29746 0.63684 0.88417 0.57295 0.36020
   2  10  -6    0.89    0.65   1-0.13828 0.67667-0.97841-0.73403 0.15358-0.05750
   2  10  -5   -0.08    0.98   1-0.50594 0.31373 0.65443 0.86099 0.56190 0.40031
   2  10  -5    1.14    0.86   1-0.17399 0.64698-0.96559-0.76176 0.19324 0.03345
   2  10  -4    4.85    0.81   1-0.49742 0.32856 0.66886 0.83466 0.55244 0.44202
   2  10  -4    8.07    1.07   1-0.21830 0.60870-0.94528-0.78200 0.24245 0.13395
   2  10  -4    7.37    0.93   1-0.30384 0.52257-0.89095-0.72552-0.33745-0.44780
   2  10  -4    9.56    1.19   1-0.60686 0.22038 0.42125 0.58304-0.67398-0.78197
   2  10  -3    3.10    0.77   1-0.49091 0.34138 0.67951 0.80454 0.54522 0.48596
   2  10  -3    5.64    0.76   1-0.27217 0.56086-0.91353-0.79079 0.30228 0.24509
   2  10  -3    5.43    0.73   1-0.32195 0.51083-0.87663-0.75194-0.35756-0.41669
   2  10  -3    6.21    1.01   1-0.55146 0.28184 0.56637 0.68763-0.61246-0.66911
   2  10  -2    2.87    0.74   1-0.48723 0.35138 0.68540 0.76967 0.54113 0.53304
   2  10  -2    6.15    0.97   1-0.33627 0.50279-0.86454-0.78236 0.37346 0.36757
   2  10  -2    5.18    0.92   1-0.34132 0.49782-0.86011-0.77614-0.37907-0.38699
   2  10  -2    6.16    0.86   1-0.49221 0.34715 0.67740 0.75815-0.54666-0.55198
   2  10  -1    6.80    0.87   1-0.48755 0.35738 0.68488 0.72839 0.54149 0.58456
   2  10  -1   13.26    1.54   1-0.40954 0.43550-0.79082-0.74834 0.45484 0.50031
   2  10  -1   10.12    1.23   1-0.36138 0.48413-0.84161-0.79838-0.40135-0.35805
   2  10   0    0.34    0.69   1-0.49373 0.35752 0.67494 0.67768 0.54834 0.64258
   2  10   0    0.87    0.67   1-0.49160 0.35950-0.67839-0.67651 0.54598 0.64271
   2  10   0    0.71    0.86   1-0.38173 0.47014-0.82130-0.81880-0.42395-0.32944
   2  10   1    6.65    0.90   1-0.40211 0.45612-0.79928-0.83751-0.44659-0.30086
   2  10   1    7.48    1.19   1-0.33546 0.52150 0.86524 0.82343-0.37257-0.22359
   2  10   2   13.81    1.46   1-0.42232 0.44226-0.77565-0.85461-0.46904-0.27210
   2  10   2   14.08    1.32   1-0.29661 0.56635 0.89637 0.81397-0.32942-0.12920
   2  10   3    2.84    0.69   1-0.44224 0.42871-0.75045-0.87014-0.49116-0.24300
   2  10   3    2.97    0.63   1-0.26454 0.60443 0.91852 0.79553-0.29380-0.04232
   2  11  -4    5.24    0.86   1-0.53465 0.36560 0.60129 0.78207 0.59379 0.50467
   2  11  -4    8.38    0.86   1-0.26244 0.63883-0.91987-0.74168 0.29147 0.20443
   2  11  -3    0.93    0.77   1-0.53335 0.37321 0.60386 0.74387 0.59235 0.55439
   2  11  -3    1.80    0.74   1-0.31736 0.58995-0.88036-0.74272 0.35246 0.31671
   2  11  -3    0.82    0.69   1-0.35013 0.55702-0.85217-0.71250-0.38885-0.42668
   2  11  -3    1.47    0.80   1-0.56828 0.33936 0.52793 0.66399-0.63113-0.66629
   2  11  -2    1.35    0.79   1-0.53569 0.37719 0.59922 0.69847 0.59494 0.60816
   2  11  -2    2.28    1.02   1-0.38189 0.53144-0.82113-0.72404 0.42413 0.43968
   2  11  -2    2.75    0.75   1-0.36555 0.54796-0.83758-0.73864-0.40598-0.39259
  -3  11   3    1.12    1.03   1-0.46835 0.20528 0.71419 0.97757-0.52016 0.04689
  -3  11   2    0.47    0.73   1-0.49068 0.17689 0.67989 0.98379-0.54495-0.02923
  -3  11   1    0.30    1.04   1-0.51474 0.14676 0.63891 0.98333-0.57168-0.10730
   3 -11  -1    0.82    0.71   1 0.03654-0.62440 0.99850 0.65526 0.04058-0.42515
  -3  11   0   -0.05    0.67   1-0.53992 0.11551 0.59068 0.97562-0.59964-0.18659
   3 -11   0    0.23    0.99   1-0.00875-0.66369 0.99991 0.61608-0.00972-0.42420
  -3  11  -1    5.32    0.77   1-0.56540 0.08396 0.53478 0.96024-0.62794-0.26623
   3 -11   1    5.18    1.06   1-0.05364-0.70258 0.99678 0.57235-0.05958-0.42281
   3 -11   2   35.65    1.60   1-0.24295-0.88441 0.93175 0.46496 0.26983-0.04037
  -3  11  -2   31.14    2.70   1-0.61758 0.02430-0.38488 0.08246 0.68589 0.99629
  -3  11  -2   37.17    1.56   1-0.59023 0.05307 0.47107 0.93704-0.65552-0.34515
   3 -11   2   36.10    1.66   1-0.09759-0.74054 0.98930 0.52429-0.10839-0.42038
   3 -11   3   10.01    1.42   1-0.27948-0.91462 0.90859 0.40103 0.31039 0.05135
  -3  11  -3    8.90    1.09   1-0.64283-0.00701-0.27760 0.23034 0.71393 0.97308
  -3  11  -3    9.60    1.12   1-0.61335 0.02389 0.39971 0.90620-0.68119-0.42215
   3 -11   3    9.82    1.14   1-0.14004-0.77698 0.97785 0.47224-0.15553-0.41626
   3 -11   4    0.98    0.74   1-0.30135-0.93017 0.89284 0.34452 0.33468 0.12681
  -3  11  -4    1.10    0.58   1-0.65532-0.02768-0.20210 0.34729 0.72781 0.93734
  -3  11  -4    1.46    0.56   1-0.63365-0.00247 0.32128 0.86829-0.70374-0.49604
   3 -11   4    0.82    0.94   1-0.18042-0.81136 0.96296 0.41676-0.20038-0.40987
   3 -11   5    4.59    0.95   1-0.31381-0.93632 0.88320 0.29411 0.34853 0.19182
  -3  11  -5    5.25    0.84   1-0.66216-0.04087-0.14392 0.44637 0.73540 0.89391
  -3  11  -5    5.61    0.75   1-0.65011-0.02500 0.23673 0.82426-0.72201-0.56565
   3 -11   5    5.00    0.98   1-0.21824-0.84318 0.94531 0.35852-0.24238-0.40062
   3 -11   6    1.78    0.85   1-0.31971-0.93590 0.87846 0.24861 0.35508 0.24954
  -3  11  -6    1.44    0.84   1-0.66566-0.05072-0.10165 0.52954 0.73929 0.84676
  -3  11  -6    2.16    0.55   1-0.66195-0.04373 0.14605 0.77520-0.73517-0.63019
   3 -11   6    1.99    0.73   1-0.25307-0.87201 0.92571 0.29833-0.28107-0.38805
   3 -11   7    5.84    1.00   1-0.32073-0.93061 0.87763 0.20702 0.35621 0.30184
  -3  11  -7    6.75    1.12   1-0.66740-0.05881-0.07186 0.60023 0.74122 0.79765
  -3  11  -7    8.71    0.71   1-0.66817-0.05629 0.05335 0.72319-0.74208-0.68834
   3 -11   7    7.89    1.15   1-0.28459-0.89752 0.90504 0.23707-0.31607-0.37180
  -3  10   5    0.21    0.71   1-0.40844 0.20299 0.79208 0.95964-0.45362 0.19460
  -3  10   4    3.00    1.01   1-0.42809 0.17727 0.76855 0.97663-0.47544 0.12144
  -3  10   3    5.28    0.81   1-0.45060 0.14869 0.73925 0.98785-0.50045 0.04510
  -3  10   2    2.18    0.98   1-0.47563 0.11760 0.70336 0.99247-0.52824-0.03403
  -3  10   1    8.97    0.88   1-0.50264 0.08453 0.66008 0.98971-0.55824-0.11536
   3 -10  -1    9.81    1.11   1-0.00356-0.59022 0.99998 0.67143-0.00396-0.44811
  -3  10   0    7.33    0.97   1-0.51133 0.06842-0.64499-0.27380 0.56789 0.95934
  -3  10   0    7.68    0.98   1-0.53085 0.05024 0.60875 0.97890-0.58957-0.19803
   3 -10   0    7.69    1.17   1-0.05316-0.63382 0.99683 0.62769-0.05904-0.45195
   3 -10   1   27.30    1.35   1-0.30379-0.87729 0.89099 0.47994 0.33739-0.00267
  -3  10  -1   24.30    2.11   1-0.59269-0.01899-0.46412-0.05233 0.65825 0.99844
  -3  10  -1   26.14    2.37   1-0.55930 0.01573 0.54892 0.95958-0.62117-0.28096
   3 -10   1   27.02    1.36   1-0.10219-0.67685 0.98826 0.57853-0.11350-0.45515
   3 -10   2    0.35    0.91   1-0.34114-0.90833 0.86027 0.40845 0.37888 0.08998
  -3  10  -2    0.37    0.66   1-0.63162-0.06399-0.33010 0.12229 0.70148 0.99042
  -3  10  -2    0.19    0.53   1-0.58682-0.01785 0.48048 0.93166-0.65174-0.36287
   3 -10   2    0.76    0.62   1-0.14993-0.71859 0.97457 0.52424-0.16652-0.45693
   3 -10   3   12.12    1.34   1-0.36193-0.92280 0.84108 0.34850 0.40197 0.16423
  -3  10  -3   12.27    1.33   1-0.65109-0.08953-0.23060 0.26238 0.72311 0.96080
  -3  10  -3   12.45    1.23   1-0.61215-0.04924 0.40379 0.89549-0.67986-0.44233
   3 -10   3   13.69    1.34   1-0.19567-0.75832 0.95628 0.46537-0.21731-0.45647
   3 -10   4    4.02    0.83   1-0.37281-0.92736 0.83040 0.29706 0.41405 0.22748
  -3  10  -4    4.26    0.87   1-0.66038-0.10698-0.16115 0.37314 0.73343 0.92158
  -3  10  -4    4.34    0.58   1-0.63401-0.07717 0.31970 0.85192-0.70414-0.51794
   3 -10   4    4.23    0.92   1-0.23871-0.79536 0.93419 0.40269-0.26511-0.45302
   3 -10   5    0.08    1.05   1-0.37707-0.92530 0.82609 0.25198 0.41878 0.28337
  -3  10  -5    0.40    0.58   1-0.66525-0.11820-0.10751 0.46768 0.73883 0.87595
  -3  10  -5    0.40    0.48   1-0.65143-0.10127 0.22848 0.80203-0.72348-0.58862
   3 -10   5    0.47    0.86   1-0.27847-0.82912 0.90928 0.33719-0.30927-0.44592
   3 -10   6    4.28    1.23   1-0.37656-0.91848 0.82661 0.21174 0.41822 0.33398
  -3  10  -6    4.95    0.92   1-0.66753-0.12683-0.06908 0.54702 0.74136 0.82745
  -3  10  -6    4.75    0.62   1-0.66311-0.11929 0.13379 0.74804-0.73646-0.65283
   3 -10   6    4.66    0.79   1-0.31450-0.85915 0.88265 0.26996-0.34929-0.43469
   3 -10   7    0.59    0.86   1-0.37242-0.90802 0.83079 0.17516 0.41361 0.38054
  -3  10  -7    1.12    0.70   1-0.66852-0.13417-0.04263 0.61438 0.74246 0.77751
  -3  10  -7    1.06    0.49   1-0.66868-0.13119 0.03666 0.69161-0.74264-0.71025
   3 -10   7    1.71    0.72   1-0.34653-0.88518 0.85544 0.20217-0.38486-0.41901
   3 -10   8    0.62    0.90   1-0.36534-0.89462 0.83778 0.14138 0.40575 0.42384
  -3  10  -8    1.01    0.72   1-0.66890-0.14091-0.02579 0.67211 0.74289 0.72691
  -3  10  -8    1.17    0.49   1-0.66788-0.13672-0.06099 0.63466-0.74176-0.76059
   3 -10   8    0.89    0.90   1-0.37520-0.90778 0.82799 0.13370-0.41670-0.39755
   3 -10   9    2.68    1.00   1-0.35581-0.87878 0.84689 0.10973 0.39517 0.46443
  -3  10  -9    2.52    1.02   1-0.66903-0.14739-0.01682 0.72199 0.74304 0.67601
  -3  10  -9    3.17    0.63   1-0.66078-0.13596-0.15741 0.57894-0.73387-0.80395
   3 -10   9    3.61    0.86   1-0.39897-0.92549 0.80278 0.06798-0.44311-0.37262
  -3   9   7    3.46    0.79   1-0.26090 0.29065-0.92084-0.85052-0.28976 0.43833
  -3   9   7    1.59    0.72   1-0.35336 0.19587 0.84918 0.92092-0.39245 0.33694
  -3   9   6    5.20    0.88   1-0.36831 0.17485 0.83487 0.94713-0.40905 0.26900
  -3   9   5    1.93    0.98   1-0.38678 0.15031 0.81600 0.96877-0.42956 0.19715
  -3   9   4   16.01    1.38   1-0.40874 0.12229 0.79174 0.98503-0.45395 0.12143
  -3   9   3    0.77    0.91   1-0.43397 0.09099 0.76115 0.99496-0.48198 0.04206
  -3   9   2    0.04    0.60   1-0.46210 0.05680 0.72323 0.99756-0.51321-0.04050
   3  -9  -2    0.44    0.74   1 0.01025-0.50811 0.99988 0.72661 0.01139-0.46243
   3  -9  -1    0.06    0.56   1-0.29556-0.80743 0.89715 0.58260 0.32826-0.09283
  -3   9   1    0.03    0.36   1-0.40440 0.10751-0.79669-0.48113 0.44914 0.87002
  -3   9   1   -0.22    0.58   1-0.49244 0.02039 0.67703 0.99187-0.54691-0.12554
   3  -9  -1    0.12    0.58   1-0.04417-0.55655 0.99781 0.68395-0.04906-0.47164
   3  -9   0    0.22    0.63   1-0.37371-0.87926 0.82949 0.47418 0.41505 0.04512
  -3   9   0    0.17    0.43   1-0.54279-0.03728-0.58478-0.22854 0.60283 0.97281
  -3   9   0   -0.06    0.55   1-0.52407-0.01729 0.62175 0.97711-0.58203-0.21199
   3  -9   0    0.21    0.57   1-0.09862-0.60499 0.98907 0.63462-0.10953-0.48085
   3  -9   1    0.05    0.56   1-0.40936-0.90859 0.79101 0.39494 0.45464 0.13588
  -3   9  -1   -0.05    0.54   1-0.60790-0.10846-0.41789-0.02106 0.67514 0.99387
  -3   9  -1    0.00    0.49   1-0.55574-0.05504 0.55693 0.95281-0.61722-0.29851
   3  -9   1   -0.15    0.54   1-0.15218-0.65255 0.97379 0.57875-0.16901-0.48909
   3  -9   2    0.40    0.87   1-0.42707-0.91999 0.76982 0.33298 0.47431 0.20671
  -3   9  -2    0.44    0.47   1-0.64007-0.14670-0.29148 0.14594 0.71087 0.97835
  -3   9  -2    0.57    0.47   1-0.58604-0.09140 0.48260 0.91900-0.65087-0.38350
   3  -9   2    0.33    0.54   1-0.20391-0.69828 0.95243 0.51680-0.22646-0.49529
   3  -9   3    4.44    1.02   1-0.43492-0.92152 0.75994 0.28234 0.48303 0.26660
  -3   9  -3    4.79    0.63   1-0.65543-0.16992-0.20132 0.27698 0.72792 0.94572
  -3   9  -3    4.47    0.56   1-0.61344-0.12486 0.39940 0.87631-0.68129-0.46526
   3  -9   3    4.88    0.67   1-0.25286-0.74123 0.92584 0.44962-0.28083-0.49840
   3  -9   4   51.16    3.99   1-0.43651-0.91679 0.75790 0.23954 0.48479 0.31953
  -3   9  -4   60.51    1.92   1-0.66327-0.18412-0.13197 0.38723 0.73664 0.90341
  -3   9  -4   55.74    3.81   1-0.63647-0.15396 0.30860 0.82603-0.70687-0.54217
   3  -9   4   57.70    1.91   1-0.29820-0.78057 0.89520 0.37838-0.33119-0.49751
   3  -9   5   13.25    1.43   1-0.43373-0.90770 0.76146 0.20233 0.48171 0.36761
  -3   9  -5   15.14    1.31   1-0.66689-0.19408-0.08165 0.47845 0.74066 0.85639
  -3   9  -5   14.39    1.01   1-0.65404-0.17829 0.21114 0.76980-0.72639-0.61287
   3  -9   5   13.74    1.40   1-0.33929-0.81566 0.86190 0.30450-0.37682-0.49190
   3  -9   6    3.25    1.17   1-0.42766-0.89531 0.76909 0.16919 0.47497 0.41204
  -3   9  -6    3.46    0.72   1-0.66841-0.20196-0.04614 0.55487 0.74235 0.80704
  -3   9  -6    3.58    0.59   1-0.66500-0.19558 0.11084 0.71020-0.73856-0.67628
   3  -9   6    3.60    0.95   1-0.37657-0.84694 0.82660 0.22814-0.41822-0.48024
   3  -9   7   16.14    1.69   1-0.41898-0.88031 0.77969 0.13903 0.46532 0.45355
  -3   9  -7   16.65    1.59   1-0.66896-0.20886-0.02232 0.61959 0.74295 0.75662
  -3   9  -7   17.56    1.71   1-0.66910-0.20601 0.00927 0.64933-0.74311-0.73206
   3  -9   7   16.72    1.59   1-0.40814-0.87245 0.79242 0.15344-0.45329-0.46397
   3  -9   8    1.73    0.89   1-0.40809-0.86311 0.79248 0.11105 0.45324 0.49263
  -3   9  -8    1.79    1.05   1-0.66911-0.21535-0.00788 0.67493 0.74312 0.70574
  -3   9  -8    2.14    0.66   1-0.66632-0.20957-0.09140 0.58935-0.74003-0.78021
   3  -9   8    2.13    1.02   1-0.43495-0.89319 0.75990 0.08040-0.48306-0.44241
   3  -9   9   10.34    1.36   1-0.39531-0.84401 0.80683 0.08464 0.43903 0.52960
  -3   9  -9   10.97    1.49   1-0.66913-0.22172-0.00112 0.72260 0.74314 0.65473
  -3   9  -9   10.59    1.10   1-0.65701-0.20659-0.18939 0.53206-0.72969-0.82111
   3  -9  10    7.59    1.51   1-0.38080-0.82319 0.82226 0.05931 0.42292 0.56465
  -3   9 -10    8.07    1.40   1-0.66913-0.22808-0.00074 0.76388 0.74314 0.60370
  -3   9 -10    8.26    0.87   1-0.64171-0.19762-0.28329 0.47886-0.71270-0.85535
  -3   8   8    0.54    0.66   1-0.29513 0.18841-0.89747-0.88283-0.32778 0.43022
  -3   8   8    0.17    0.68   1-0.31515 0.16494 0.88213 0.89716-0.35001 0.40973
  -3   8   7   -0.08    0.64   1-0.24859 0.22859-0.92842-0.87306-0.27609 0.43069
  -3   8   7   -0.59    0.94   1-0.32784 0.14624 0.87174 0.92736-0.36411 0.34438
  -3   8   6    0.30    0.80   1-0.34444 0.12365 0.85733 0.95354-0.38254 0.27470
  -3   8   5   -0.24    0.61   1-0.36589 0.09687 0.83724 0.97522-0.40637 0.19885
  -3   8   4    5.71    0.96   1-0.39050 0.06619 0.81203 0.99054-0.43370 0.12018
  -3   8   3    0.51    0.59   1-0.41891 0.03172 0.77978 0.99879-0.46524 0.03730
   3  -8  -3    1.22    0.59   1 0.03378-0.41630 0.99872 0.78073 0.03752-0.46597
   3  -8  -2   12.23    1.08   1-0.38447-0.82839 0.81843 0.55962 0.42700-0.02395
  -3   8   2   10.54    1.36   1-0.21626 0.22741-0.94633-0.68622 0.24018 0.69092
  -3   8   2   10.82    0.97   1-0.45062-0.00605 0.73923 0.99876-0.50047-0.04926
   3  -8  -2   12.08    0.93   1-0.02545-0.46954 0.99927 0.74070-0.02826-0.48051
   3  -8  -1   18.00    1.24   1-0.45993-0.89753 0.72631 0.42674 0.51081 0.11101
  -3   8   1   18.49    1.10   1-0.44704-0.00972-0.74407-0.44339 0.49649 0.89627
  -3   8   1   17.47    1.24   1-0.48482-0.04631 0.68921 0.98926-0.53845-0.13857
   3  -8  -1   19.05    1.15   1-0.08557-0.52366 0.99178 0.69262-0.09503-0.49603
   3  -8   0    8.35    1.06   1-0.48740-0.91868 0.68513 0.34480 0.54131 0.19269
  -3   8   0    8.56    0.96   1-0.55942-0.12817-0.54866-0.20739 0.62129 0.96982
  -3   8   0    9.65    0.76   1-0.52028-0.08784 0.62881 0.96938-0.57783-0.22930
   3  -8   0    9.58    0.77   1-0.14551-0.57760 0.97606 0.63631-0.16160-0.51135
   3  -8   1   17.17    1.19   1-0.49836-0.92333 0.66728 0.28619 0.55349 0.25603
  -3   8  -1   19.56    1.17   1-0.61614-0.19096-0.39001-0.00814 0.68429 0.98156
  -3   8  -1   19.11    1.24   1-0.55545-0.12908 0.55760 0.93868-0.61689-0.31969
   3  -8   1   20.49    1.24   1-0.20403-0.63012 0.95237 0.57202-0.22660-0.52509
   3  -8   2   18.07    1.25   1-0.50099-0.91964 0.66288 0.24102 0.55640 0.31011
  -3   8  -2   20.47    1.44   1-0.64462-0.22551-0.26816 0.15430 0.71592 0.96194
  -3   8  -2   19.15    1.19   1-0.58851-0.16820 0.47586 0.89746-0.65361-0.40774
   3  -8   2   20.91    1.22   1-0.25984-0.67992 0.92152 0.50058-0.28858-0.53582
   3  -8   3   47.22    2.37   1-0.49853-0.91086 0.66701 0.20439 0.55367 0.35854
  -3   8  -3   54.56    2.49   1-0.65802-0.24675-0.18147 0.28173 0.73080 0.92721
  -3   8  -3   47.57    2.15   1-0.61763-0.20339 0.38471 0.84683-0.68594-0.49142
   3  -8   3   48.89    2.25   1-0.31173-0.72581 0.88485 0.42332-0.34621-0.54220
   3  -8   4    0.27    0.66   1-0.49256-0.89857 0.67685 0.17346 0.54704 0.40308
  -3   8  -4    0.33    0.52   1-0.66472-0.25980-0.11462 0.38949 0.73824 0.88362
  -3   8  -4    0.36    0.41   1-0.64116-0.23299 0.28607 0.78871-0.71208-0.56889
   3  -8   4    0.61    0.52   1-0.35964-0.76781 0.84327 0.34063-0.39942-0.54261
   3  -8   5   23.88    1.56   1-0.48394-0.88363 0.69059 0.14644 0.53746 0.44467
  -3   8  -5   25.63    1.44   1-0.66764-0.26908-0.06652 0.47849 0.74149 0.83584
  -3   8  -5   23.15    1.58   1-0.65799-0.25663 0.18171 0.72548-0.73077-0.63860
   3  -8   5   24.30    1.40   1-0.40108-0.80318 0.80044 0.25728-0.44544-0.53729
   3  -8   6    7.66    1.28   1-0.47318-0.86656 0.70705 0.12213 0.52552 0.48389
  -3   8  -6    7.26    0.87   1-0.66876-0.27655-0.03307 0.55285 0.74273 0.78604
  -3   8  -6    7.60    0.81   1-0.66721-0.27218 0.07568 0.66015-0.74101-0.70007
   3  -8   6    6.50    0.96   1-0.43674-0.83278 0.75761 0.17394-0.48505-0.52556
   3  -8   7    2.20    0.83   1-0.46059-0.84766 0.72537 0.09969 0.51154 0.52108
  -3   8  -7    1.94    0.95   1-0.66908-0.28322-0.01119 0.61563 0.74309 0.73537
  -3   8  -7    2.45    0.48   1-0.66883-0.28014-0.02990 0.59526-0.74281-0.75311
   3  -8   7    1.58    0.90   1-0.46670-0.85667 0.71660 0.09241-0.51832-0.50750
   3  -8   8    6.94    1.12   1-0.44639-0.82714 0.74494 0.07849 0.49577 0.55647
  -3   8  -8    6.29    1.16   1-0.66913-0.28962 0.00140 0.66913 0.74314 0.68438
  -3   8  -8    6.69    0.74   1-0.66320-0.28084-0.13279 0.53307-0.73656-0.79809
   3  -8   8    6.39    0.94   1-0.49132-0.87522 0.67886 0.01415-0.54566-0.48350
   3  -8   9    2.32    1.21   1-0.43071-0.80514 0.76528 0.05807 0.47835 0.59022
  -3   8  -9    2.18    1.08   1-0.66911-0.29595 0.00641 0.71504 0.74312 0.63333
  -3   8  -9    3.12    0.53   1-0.65098-0.27496-0.23128 0.47528-0.72299-0.83576
   3  -8  10    2.03    0.90   1-0.41363-0.78175 0.78604 0.03807 0.45938 0.62242
  -3   8 -10    1.67    1.11   1-0.66912-0.30231 0.00513 0.75466 0.74313 0.58230
  -3   8 -10    1.82    0.61   1-0.63298-0.26329-0.32420 0.42306-0.70300-0.86700
   3  -8  11    2.49    0.95   1-0.39522-0.75702 0.80693 0.01819 0.43893 0.65313
  -3   8 -11    2.75    1.18   1-0.66913-0.30867-0.00147 0.78896 0.74314 0.53128
  -3   8 -11    2.31    0.77   1-0.61002-0.24666-0.41091 0.37705-0.67750-0.89274
  -3   7   9    0.39    0.87   1-0.33559 0.07995-0.86513-0.90620-0.37271 0.41520
  -3   7   9   -0.92    0.95   1-0.27987 0.13193 0.90832 0.86807-0.31083 0.47858
  -3   7   8    2.99    0.90   1-0.28954 0.11963-0.90152-0.90186-0.32157 0.41512
  -3   7   8    3.05    0.98   1-0.28972 0.11609 0.90140 0.90174-0.32177 0.41639
  -3   7   7    9.31    1.15   1-0.30373 0.09607 0.89103 0.93196-0.33733 0.34958
  -3   7   6    5.37    0.74   1-0.32219 0.07161 0.87643 0.95795-0.35783 0.27783
  -3   7   5   10.32    1.02   1-0.34529 0.04251 0.85657 0.97868-0.38348 0.20093
  -3   7   4   10.22    1.20   1-0.37385 0.00851 0.82936 0.99307-0.41520 0.11717
   3  -7  -3    6.61    0.93   1-0.53347-0.90944 0.60362 0.40055 0.59248 0.11165
  -3   7   3    8.05    1.51   1 0.01451 0.38993-0.99976-0.79511-0.01611 0.46448
  -3   7   3    6.82    0.96   1-0.40601-0.02970 0.79487 0.99910-0.45092 0.03012
   3  -7  -3    8.40    1.12   1 0.00451-0.37129 0.99997 0.79668 0.00501-0.47690
   3  -7  -2   57.97    3.48   1-0.56900-0.93778 0.52619 0.28258 0.63194 0.20173
  -3   7   2   78.72    4.54   1-0.28786 0.08153-0.90272-0.65753 0.31970 0.74900
  -3   7   2   67.77    4.07   1-0.44198-0.07174 0.75079 0.99554-0.49087-0.06116
   3  -7  -2   73.70    4.30   1-0.06131-0.43112 0.99579 0.75190-0.06809-0.49876
   3  -7  -1   -0.13    0.59   1-0.57683-0.93926 0.50679 0.22228 0.64064 0.26147
  -3   7   1    0.18    0.40   1-0.46630-0.10324-0.71719-0.43147 0.51788 0.89619
  -3   7   1   -0.14    0.60   1-0.48067-0.11650 0.69568 0.98094-0.53383-0.15546
   3  -7  -1    0.21    0.59   1-0.12811-0.49191 0.98150 0.69702-0.14228-0.52170
   3  -7   0    0.11    0.64   1-0.57629-0.93237 0.50817 0.18276 0.64003 0.31190
  -3   7   0    0.35    0.32   1-0.56608-0.20909-0.53318-0.20686 0.62870 0.95576
  -3   7   0    0.01    0.43   1-0.52046-0.16235 0.62849 0.95427-0.57802-0.25099
   3  -7   0    0.32    0.46   1-0.19433-0.55213 0.95689 0.63183-0.21582-0.54399
   3  -7   1    1.44    0.56   1-0.57139-0.92111 0.52038 0.15407 0.63459 0.35749
  -3   7  -1    1.97    0.45   1-0.61902-0.26810-0.37968-0.01276 0.68749 0.96330
  -3   7  -1    1.80    0.47   1-0.55929-0.20725 0.54896 0.91526-0.62115-0.34545
   3  -7   1    1.71    0.49   1-0.25821-0.61002 0.92254 0.55688-0.28678-0.56369
   3  -7   2   -0.04    0.52   1-0.56232-0.90670 0.54199 0.13510 0.62452 0.39953
  -3   7  -2    0.04    0.59   1-0.64608-0.30122-0.26019 0.14731 0.71754 0.94210
  -3   7  -2   -0.01    0.39   1-0.59486-0.24890 0.45787 0.86468-0.66066-0.43630
   3  -7   2    0.20    0.44   1-0.31800-0.66380 0.87985 0.47360-0.35317-0.57884
   3  -7   3    0.70    0.83   1-0.55246-0.89052 0.56419 0.11654 0.61357 0.43974
  -3   7  -3    0.66    0.66   1-0.65877-0.32174-0.17529 0.27282 0.73163 0.90666
  -3   7  -3    0.71    0.54   1-0.62500-0.28510 0.35712 0.80445-0.69413-0.52111
   3  -7   3    0.80    0.49   1-0.37313-0.71304 0.83007 0.38274-0.41441-0.58743
   3  -7   4    2.52    0.70   1-0.54084-0.87259 0.58878 0.10037 0.60067 0.47801
  -3   7  -4    2.65    0.58   1-0.66509-0.33442-0.10959 0.37943 0.73866 0.86266
  -3   7  -4    2.55    0.60   1-0.64795-0.31411 0.24957 0.73742-0.71962-0.59794
   3  -7   4    2.73    0.57   1-0.42064-0.75447 0.77769 0.28984-0.46717-0.58885
   3  -7   5    1.16    0.70   1-0.52771-0.85314 0.61483 0.08565 0.58608 0.51459
  -3   7  -5    1.38    0.58   1-0.66781-0.34349-0.06263 0.46729 0.74168 0.81464
  -3   7  -5    1.21    0.42   1-0.66272-0.33577 0.13802 0.66689-0.73603-0.66520
   3  -7   5    1.26    0.55   1-0.46105-0.78882 0.72472 0.19635-0.51205-0.58240
   3  -7   6   56.13    2.80   1-0.51319-0.83231 0.64168 0.07174 0.56996 0.54964
  -3   7  -6   56.80    2.44   1-0.66882-0.35085-0.03037 0.54045 0.74280 0.76472
  -3   7  -6   59.77    2.49   1-0.66889-0.34826 0.02671 0.59628-0.74287-0.72329
   3  -7   6   54.69    2.48   1-0.49448-0.81619 0.67370 0.10482-0.54918-0.56819
   3  -7   7   18.43    1.35   1-0.49739-0.81019 0.66889 0.05819 0.55241 0.58325
  -3   7  -7   17.76    1.36   1-0.66909-0.35747-0.00972 0.60200 0.74311 0.71399
  -3   7  -7   18.37    1.19   1-0.66688-0.35259-0.08184 0.52842-0.74065-0.77229
   3  -7   7   16.96    1.17   1-0.52144-0.83708 0.62666 0.01726-0.57912-0.54680
   3  -7   8    7.41    1.29   1-0.48037-0.78685 0.69613 0.04466 0.53351 0.61551
  -3   7  -8    7.46    1.18   1-0.66913-0.36386 0.00160 0.65424 0.74314 0.66299
  -3   7  -8    7.65    0.85   1-0.65751-0.34955-0.18552 0.46544-0.73024-0.81312
   3  -7   8    6.73    1.08   1-0.54269-0.85226 0.58498-0.06493-0.60272-0.51906
   3  -7   9   27.42    2.35   1-0.46215-0.76232 0.72315 0.03091 0.51328 0.64645
  -3   7  -9   25.53    2.30   1-0.66912-0.37020 0.00535 0.69889 0.74313 0.61195
  -3   7  -9   28.50    2.27   1-0.64178-0.34016-0.28294 0.40873-0.71277-0.84689
   3  -7   9   27.84    2.34   1-0.55906-0.86256 0.54947-0.14095-0.62090-0.48590
   3  -7  10    1.75    0.85   1-0.44277-0.73662 0.74975 0.01675 0.49175 0.67609
  -3   7 -10    1.89    1.09   1-0.66912-0.37656 0.00282 0.73726 0.74314 0.56092
  -3   7 -10    2.03    0.51   1-0.62074-0.32544-0.37336 0.35901-0.68940-0.87475
   3  -7  11    7.73    1.30   1-0.42222-0.70976 0.77577 0.00201 0.46893 0.70443
  -3   7 -11    9.88    1.47   1-0.66912-0.38290-0.00502 0.77032 0.74313 0.50988
  -3   7 -11    7.88    0.87   1-0.59532-0.30635-0.45655 0.31652-0.66117-0.89775
   3  -7  12   10.29    1.11   1-0.40051-0.68172 0.80108-0.01344 0.44481 0.73148
  -3   7 -12   11.52    1.24   1-0.66902-0.38916-0.01743 0.79881 0.74303 0.45874
  -3   7 -12   11.31    0.78   1-0.56624-0.28431-0.53280 0.28149-0.62887-0.91647
  -3   6  10    4.39    0.96   1-0.38142-0.03387-0.82162-0.91839-0.42361 0.39421
  -3   6  10    3.46    0.75   1-0.24757 0.09595 0.92903 0.83349-0.27496 0.54412
  -3   6   9    4.19    0.86   1-0.33710 0.00408-0.86382-0.91986-0.37438 0.39221
  -3   6   9    3.73    0.74   1-0.25408 0.08344 0.92510 0.87015-0.28218 0.48565
  -3   6   8    1.20    0.79   1-0.28854 0.04627-0.90224-0.91754-0.32046 0.39492
  -3   6   8    1.12    0.64   1-0.26488 0.06664 0.91830 0.90395-0.29418 0.42240
   3  -6  -7    1.48    0.73   1-0.65435-0.98075 0.20896 0.18496 0.72673 0.06254
  -3   6   7    0.63    0.85   1-0.28041 0.04511 0.90795 0.93419-0.31143 0.35390
   3  -6  -6    2.66    0.60   1-0.57754-0.89750 0.50498 0.44007 0.64142 0.02843
   3  -6  -6    0.01    0.47   1-0.66912-0.98908-0.00413-0.06904 0.74313 0.13014
  -3   6   6    2.08    0.63   1-0.30105 0.01847 0.89306 0.95989-0.33435 0.27973
   3  -6  -5    0.72    0.49   1-0.41945-0.73378 0.77912 0.67256 0.46585-0.09600
   3  -6  -5    0.30    0.31   1-0.66834-0.98193 0.04859-0.05721 0.74226 0.18033
  -3   6   5    0.75    0.76   1-0.32709-0.01357 0.87237 0.97979-0.36328 0.19955
   3  -6  -4    2.58    0.52   1-0.66546-0.97270 0.10457-0.04213 0.73907 0.22817
  -3   6   4    3.66    0.99   1 0.17155 0.47831-0.96657-0.81758-0.19052 0.32057
  -3   6   4    3.23    0.61   1-0.35942-0.05138 0.84348 0.99241-0.39917 0.11170
   3  -6  -3    1.06    0.50   1-0.66051-0.96140 0.15993-0.02767 0.73357 0.27372
  -3   6   3    1.41    0.37   1-0.09190 0.20923-0.99052-0.80077 0.10207 0.56122
  -3   6   3    1.32    0.53   1-0.39614-0.09417 0.80592 0.99536-0.43995 0.01958
   3  -6  -3    1.01    0.48   1-0.02372-0.32524 0.99937 0.81076-0.02634-0.48668
   3  -6  -2   10.77    0.84   1-0.65370-0.94824 0.21349-0.01501 0.72601 0.31719
  -3   6   2   12.30    0.83   1-0.31564-0.02052-0.88174-0.65145 0.35055 0.75840
  -3   6   2   11.55    1.06   1-0.43724-0.14134 0.75697 0.98693-0.48560-0.07740
   3  -6  -2   12.50    0.80   1-0.09753-0.39305 0.98931 0.76012-0.10832-0.51740
   3  -6  -1    3.73    0.68   1-0.64521-0.93340 0.26496-0.00445 0.71658 0.35879
  -3   6   1    3.62    0.50   1-0.47029-0.18149-0.71134-0.44058 0.52231 0.87917
  -3   6   1    3.91    0.64   1-0.48121-0.19137 0.69484 0.96531-0.53444-0.17757
   3  -6  -1    3.69    0.68   1-0.17229-0.46182 0.96627 0.69649-0.19135-0.54919
   3  -6   0   20.16    1.20   1-0.63521-0.91705 0.31430 0.00398 0.70548 0.39873
  -3   6   0   20.93    1.11   1-0.56455-0.28182-0.53678-0.22543 0.62700 0.93260
  -3   6   0   18.84    1.12   1-0.52581-0.24204 0.61845 0.92945-0.58397-0.27844
   3  -6   0   21.09    1.15   1-0.24571-0.52923 0.93013 0.61976-0.27289-0.57948
   3  -6   1   37.93    1.79   1-0.62384-0.89933 0.36161 0.01039 0.69285 0.43713
  -3   6  -1   40.73    1.73   1-0.61704-0.34037-0.38682-0.03487 0.68529 0.93964
  -3   6  -1   35.86    1.64   1-0.56826-0.29056 0.52797 0.87948-0.63112-0.37692
   3  -6   1   37.21    1.66   1-0.31523-0.59275 0.88207 0.53110-0.35010-0.60544
   3  -6   2   22.07    1.38   1-0.61119-0.88033 0.40701 0.01489 0.67880 0.47412
  -3   6  -2   23.48    1.38   1-0.64463-0.37403-0.26811 0.12443 0.71593 0.91903
  -3   6  -2   21.28    1.34   1-0.60565-0.33401 0.42511 0.81714-0.67264-0.46979
   3  -6   2   22.17    1.37   1-0.37948-0.65111 0.82363 0.43160-0.42145-0.62431
   3  -6   3   32.63    1.56   1-0.59734-0.86012 0.45061 0.01758 0.66341 0.50977
  -3   6  -3   36.51    1.61   1-0.65776-0.39498-0.18354 0.24948 0.73052 0.88416
  -3   6  -3   33.00    1.42   1-0.63549-0.36992 0.31307 0.74561-0.70578-0.55426
   3  -6   3   33.87    1.64   1-0.43465-0.70021 0.76029 0.32775-0.48272-0.63424
   3  -6   4   36.43    1.89   1-0.58234-0.83877 0.49251 0.01857 0.64676 0.54415
  -3   6  -4   37.72    1.54   1-0.66447-0.40804-0.11769 0.35623 0.73798 0.84058
  -3   6  -4   36.48    1.38   1-0.65617-0.39728 0.19583 0.66912-0.72875-0.62804
   3  -6   4   35.40    1.63   1-0.48094-0.74044 0.69525 0.22219-0.53414-0.63432
   3  -6   5   67.74    2.82   1-0.56504-0.81620 0.53563 0.02143 0.62754 0.57735
  -3   6  -5   71.60    2.76   1-0.66745-0.41737-0.07078 0.44405 0.74128 0.79285
  -3   6  -5   70.04    2.72   1-0.66710-0.41455 0.07769 0.59167-0.74089-0.69142
   3  -6   5   66.03    2.79   1-0.51842-0.77186 0.63223 0.11865-0.57577-0.62461
   3  -6   6    0.20    0.88   1-0.54780-0.79264 0.57425 0.01928 0.60839 0.60937
  -3   6  -6    0.43    0.55   1-0.66862-0.42489-0.03879 0.51694 0.74258 0.74312
  -3   6  -6    0.30    0.37   1-0.66865-0.42243-0.03752 0.51715-0.74262-0.74437
   3  -6   6    0.36    0.69   1-0.54786-0.79523 0.57412 0.02002-0.60846-0.60597
   3  -6   7   30.06    1.67   1-0.52950-0.76803 0.61138 0.01565 0.58807 0.64021
  -3   6  -7   30.11    1.56   1-0.66901-0.43163-0.01862 0.57801 0.74301 0.69252
  -3   6  -7   32.91    1.53   1-0.66184-0.42195-0.14713 0.44825-0.73505-0.78804
   3  -6   7   32.23    1.61   1-0.57039-0.81169 0.52283-0.07178-0.63348-0.57965
   3  -6   8    9.66    1.22   1-0.51016-0.74237 0.64707 0.01058 0.56659 0.66990
  -3   6  -8    8.52    1.12   1-0.66911-0.43808-0.00790 0.62963 0.74312 0.64159
  -3   6  -8    8.81    0.80   1-0.64797-0.41441-0.24945 0.38663-0.71965-0.82387
   3  -6   8    9.05    0.86   1-0.58724-0.82248 0.47934-0.15578-0.65220-0.54703
   3  -6   9    4.47    0.85   1-0.48977-0.71567 0.68135 0.00409 0.54394 0.69842
  -3   6  -9    4.84    1.06   1-0.66912-0.44444-0.00488 0.67356 0.74313 0.59057
  -3   6  -9    4.03    0.67   1-0.62836-0.40113-0.34372 0.33306-0.69786-0.85332
   3  -6   9    4.79    0.76   1-0.59957-0.82874 0.44394-0.23170-0.66589-0.50939
   3  -6  10    5.54    1.22   1-0.46833-0.68791 0.71422-0.00379 0.52013 0.72577
  -3   6 -10    5.01    1.15   1-0.66910-0.45078-0.00821 0.71113 0.74312 0.53952
  -3   6 -10    5.71    0.85   1-0.60417-0.38327-0.42981 0.28767-0.67099-0.87769
   3  -6  11    2.07    0.85   1-0.44582-0.65909 0.74570-0.01308 0.49513 0.75194
  -3   6 -11    2.50    0.98   1-0.66903-0.45706-0.01691 0.74334 0.74303 0.48840
  -3   6 -11    1.67    0.75   1-0.57636-0.36180-0.50797 0.25020-0.64012-0.89805
   3  -6  12    1.56    1.06   1-0.42222-0.62917 0.77578-0.02377 0.46892 0.77689
  -3   6 -12    1.85    0.83   1-0.66882-0.46320-0.03021 0.77094 0.74280 0.43713
  -3   6 -12    2.03    0.84   1-0.54565-0.33808-0.57880 0.22052-0.60601-0.91491
  -3   5  11   -0.41    0.85   1-0.43126-0.15172-0.76459-0.91705-0.47896 0.36876
  -3   5  11    0.17    0.98   1-0.21919 0.05605 0.94482 0.79400-0.24344 0.60531
  -3   5  10    0.96    0.81   1-0.39002-0.11684-0.81256-0.92429-0.43316 0.36335
  -3   5  10    0.53    0.95   1-0.22195 0.04729 0.94338 0.83315-0.24650 0.55100
   3  -5  -9    4.77    0.74   1-0.61241-0.87717 0.40292 0.47582 0.68015-0.06453
   3  -5  -9    3.71    0.87   1-0.47057-0.73365-0.71093-0.64195 0.52262-0.22280
  -3   5   9    3.93    0.74   1-0.34419-0.07738-0.85755-0.92855-0.38226 0.36303
  -3   5   9    4.37    0.98   1-0.22901 0.03423 0.93960 0.86997-0.25434 0.49191
   3  -5  -8   13.45    1.28   1-0.56866-0.82766 0.52702 0.55772 0.63156-0.06248
   3  -5  -8   11.25    1.18   1-0.49686-0.75388-0.66978-0.64140 0.55182-0.14235
  -3   5   8   10.44    0.93   1-0.29327-0.03282-0.89882-0.92910-0.32571 0.36836
  -3   5   8   10.10    1.02   1-0.24091 0.01633 0.93293 0.90389-0.26756 0.42744
   3  -5  -7    1.19    0.63   1-0.50290-0.75559 0.65964 0.64958 0.55853-0.08434
   3  -5  -7    0.85    0.45   1-0.53052-0.78147-0.60940-0.62162 0.58920-0.05371
  -3   5   7    0.74    0.57   1-0.25821-0.00697 0.92254 0.93408-0.28678 0.35697
   3  -5  -6   12.84    0.98   1-0.40465-0.65102 0.79641 0.74559 0.44941-0.14229
   3  -5  -6    9.09    1.07   1-0.56833-0.81322-0.52780-0.58061 0.63120 0.03953
  -3   5   6    9.32    1.21   1-0.28148-0.03624 0.90721 0.95934-0.31262 0.27988
   3  -5  -5   48.14    2.91   1-0.26344-0.50350 0.91923 0.82764 0.29258-0.24796
   3  -5  -5   40.08    2.73   1-0.60526-0.84407-0.42636-0.51976 0.67221 0.13180
  -3   5   5   42.90    2.81   1-0.31116-0.07191 0.88529 0.97802-0.34557 0.19568
   3  -5  -4   19.43    1.00   1-0.63584-0.86859-0.31147-0.44547 0.70617 0.21702
  -3   5   4   24.53    1.31   1 0.07150 0.30440-0.99427-0.85998-0.07941 0.40959
  -3   5   4   19.94    1.20   1-0.34739-0.11415 0.85466 0.98798-0.38582 0.10418
   3  -5  -4   22.54    1.09   1 0.02952-0.20371 0.99902 0.86570 0.03278-0.45721
   3  -5  -3   22.90    1.33   1-0.65595-0.88260-0.19745-0.36997 0.72851 0.29004
  -3   5   3   29.36    1.32   1-0.13318 0.09369-0.97999-0.80515 0.14791 0.58561
  -3   5   3   26.44    1.79   1-0.39056-0.16293 0.81197 0.98662-0.43376 0.00427
   3  -5  -3   28.62    1.47   1-0.05068-0.27792 0.99712 0.82321-0.05628-0.49504
   3  -5  -2   19.31    1.35   1-0.66676-0.88706-0.08397-0.29739 0.74052 0.35308
  -3   5   2   21.16    1.12   1-0.32068-0.09984-0.87767-0.66228 0.35616 0.74256
  -3   5   2   21.37    1.49   1-0.43797-0.21640 0.75602 0.97119-0.48641-0.09971
   3  -5  -2   21.92    1.16   1-0.13438-0.35562 0.97962 0.76512-0.14925-0.53676
   3  -5  -1   17.10    1.04   1-0.66900-0.88294 0.01964-0.23468 0.74300 0.40660
  -3   5   1   16.23    0.86   1-0.46217-0.24762-0.72313-0.46733 0.51329 0.84868
  -3   5   1   17.11    1.11   1-0.48815-0.27265 0.68393 0.93962-0.54215-0.20678
   3  -5  -1   16.39    1.06   1-0.21884-0.43407 0.94500 0.68991-0.24304-0.57930
   3  -5   0  168.41    4.13   1-0.66489-0.87249 0.11228-0.18294 0.73844 0.45308
  -3   5   0  168.65    4.11   1-0.55513-0.34666-0.55829-0.26190 0.61654 0.90068
  -3   5   0  164.23    3.09   1-0.53788-0.32845 0.59482 0.89102-0.59738-0.31335
   3  -5   0  165.70    2.96   1-0.30046-0.50970 0.89351 0.59783-0.33370-0.61870
   3  -5   1    1.37    0.46   1-0.65631-0.85755 0.19477-0.14135 0.72891 0.49458
  -3   5  -1    1.04    0.50   1-0.60984-0.40743-0.41152-0.07453 0.67729 0.91018
  -3   5  -1    0.83    0.51   1-0.58334-0.37998 0.48985 0.82658-0.64787-0.41518
   3  -5   1    1.11    0.57   1-0.37656-0.57993 0.82661 0.48989-0.41821-0.65090
   3  -5   2    0.30    0.62   1-0.64453-0.83943 0.26861-0.10842 0.71583 0.53254
  -3   5  -2    0.11    0.37   1-0.63983-0.44349-0.29264 0.08493 0.71060 0.89224
  -3   5  -2    0.18    0.34   1-0.62097-0.42366 0.37251 0.74975-0.68965-0.50830
   3  -5   2    0.18    0.39   1-0.44191-0.63921 0.75088 0.37364-0.49079-0.67215
   3  -5   3   11.99    1.03   1-0.63040-0.81894 0.33525-0.08268 0.70013 0.56787
  -3   5  -3   11.83    0.81   1-0.65461-0.46607-0.20718 0.21075 0.72702 0.85927
  -3   5  -3   11.28    0.84   1-0.64823-0.45700 0.24792 0.66568-0.71994-0.58992
   3  -5   3   11.50    0.82   1-0.49593-0.68717 0.67132 0.25356-0.55079-0.68080
   3  -5   4    0.08    0.49   1-0.61444-0.79663 0.39595-0.06288 0.68240 0.60118
  -3   5  -4    0.12    0.43   1-0.66254-0.48035-0.13996 0.31887 0.73583 0.81705
  -3   5  -4    0.16    0.34   1-0.66414-0.47965 0.12181 0.58020-0.73760-0.65824
   3  -5   4    0.20    0.40   1-0.53850-0.72367 0.59356 0.13529-0.59807-0.67675
   3  -5   5    3.37    0.65   1-0.59697-0.77281 0.45171-0.04802 0.66300 0.63281
  -3   5  -5    3.24    0.77   1-0.66629-0.49045-0.09197 0.40776 0.73999 0.77018
  -3   5  -5    3.49    0.55   1-0.66913-0.49097-0.00139 0.49769-0.74314-0.71501
   3  -5   5    3.65    0.55   1-0.57073-0.74984 0.52198 0.02319-0.63387-0.66121
   3  -5   6    5.01    0.93   1-0.57819-0.74768 0.50331-0.03733 0.64215 0.66300
  -3   5  -6    5.57    0.71   1-0.66795-0.49846-0.05929 0.48135 0.74183 0.72099
  -3   5  -6    5.32    0.50   1-0.66447-0.49264-0.11781 0.42198-0.73796-0.76107
   3  -5   6    5.77    0.62   1-0.59438-0.76741 0.45928-0.08002-0.66012-0.63613
   3  -5   7    0.34    0.61   1-0.55704-0.72130 0.55404-0.02670 0.61865 0.69210
  -3   5  -7    0.19    0.56   1-0.66862-0.50549-0.03874 0.54279 0.74258 0.67070
  -3   5  -7    0.34    0.36   1-0.65190-0.48640-0.22546 0.35503-0.72400-0.79834
   3  -5   7    0.49    0.61   1-0.61129-0.77826 0.40667-0.17315-0.67891-0.60358
   3  -5   8   24.13    1.47   1-0.53588-0.69383 0.59883-0.02268 0.59516 0.71977
  -3   5  -8   24.87    1.41   1-0.66886-0.51208-0.02793 0.59451 0.74285 0.61993
  -3   5  -8   25.17    1.30   1-0.63312-0.47396-0.32360 0.29759-0.70315-0.82873
   3  -5   8   24.83    1.38   1-0.62315-0.78405 0.36428-0.25605-0.69208-0.56541
   3  -5   9   14.81    1.46   1-0.51367-0.66530 0.64084-0.02143 0.57048 0.74626
  -3   5  -9   15.98    1.28   1-0.66892-0.51848-0.02503 0.63832 0.74291 0.56896
  -3   5  -9   16.88    1.33   1-0.60961-0.45677-0.41229 0.24959-0.67704-0.85384
   3  -5   9   14.74    1.43   1-0.63127-0.78610 0.33160-0.32925-0.70109-0.52309
   3  -5  10    9.35    1.05   1-0.49039-0.63571 0.68034-0.02270 0.54464 0.77158
  -3   5 -10    9.46    0.99   1-0.66885-0.52477-0.02865 0.67560 0.74283 0.51785
  -3   5 -10    9.11    0.92   1-0.58250-0.43600-0.49209 0.21049-0.64693-0.87497
   3  -5  11   23.87    1.66   1-0.46607-0.60507 0.71752-0.02628 0.51762 0.79573
  -3   5 -11   25.19    1.35   1-0.66865-0.53092-0.03776 0.70739 0.74261 0.46659
  -3   5 -11   27.06    1.48   1-0.55264-0.41308-0.56380 0.17982-0.61376-0.89276
   3  -5  12    1.25    0.87   1-0.44066-0.57334 0.75252-0.03204 0.48940 0.81868
  -3   5 -12    2.71    0.81   1-0.66824-0.53686-0.05157 0.73448 0.74215 0.41510
  -3   5 -12    1.75    0.61   1-0.52070-0.38751-0.62803 0.15633-0.57830-0.90851
   3  -5  13    3.98    0.99   1-0.41414-0.54050 0.78545-0.03988 0.45995 0.84039
  -3   5 -13    4.07    1.05   1-0.66751-0.54248-0.06950 0.75746 0.74134 0.36325
  -3   5 -13    3.67    0.71   1-0.48707-0.36024-0.68565 0.13944-0.54095-0.92237
   3  -4 -11    4.25    0.88   1-0.61790-0.82112 0.38374 0.55353 0.68624-0.13911
   3  -4 -11    3.08    0.95   1-0.32240-0.52322-0.87626-0.71181 0.35806-0.46857
  -3   4  11    2.96    0.65   1-0.44637-0.24120-0.74496-0.91240-0.49575 0.33067
  -3   4  11    2.60    0.75   1-0.19437 0.00658 0.95687 0.79136-0.21587 0.61130
   3  -4 -10    8.96    0.96   1-0.58710-0.78397 0.47973 0.60863 0.65204-0.12228
   3  -4 -10    7.09    1.38   1-0.32920-0.52399-0.87059-0.74669 0.36562-0.40972
  -3   4  10    7.61    0.81   1-0.40493-0.20612-0.79610-0.92280-0.44972 0.32548
  -3   4  10    6.66    0.88   1-0.19728-0.00232 0.95554 0.83062-0.21910 0.55682
   3  -4  -9   12.00    1.32   1-0.54514-0.73620 0.57986 0.66631 0.60544-0.11845
   3  -4  -9    8.69    1.37   1-0.34441-0.53317-0.85735-0.77399 0.38251-0.34153
  -3   4   9    9.40    0.83   1-0.35815-0.16571-0.84468-0.93065-0.39777 0.32621
  -3   4   9    8.67    0.89   1-0.20498-0.01602 0.95191 0.86759-0.22766 0.49701
   3  -4  -8   13.81    1.20   1-0.48987-0.67461 0.68118 0.72686 0.54406-0.12867
   3  -4  -8   10.67    1.23   1-0.36885-0.55158-0.83434-0.79153 0.40965-0.26309
  -3   4   8   10.14    0.88   1-0.30527-0.11919-0.88986-0.93510-0.33904 0.33373
  -3   4   8   10.04    1.23   1-0.21818-0.03522 0.94534 0.90161-0.24231 0.43111
   3  -4  -7   29.20    1.63   1-0.41601-0.59443 0.78324 0.78816 0.46202-0.15954
   3  -4  -7   22.62    1.58   1-0.40295-0.57966-0.79833-0.79607 0.44752-0.17392
  -3   4   7   23.07    1.35   1-0.24541-0.06569-0.93031-0.93481-0.27256 0.34899
  -3   4   7   22.54    1.87   1-0.23765-0.06069 0.93480 0.93165-0.26394 0.35823
   3  -4  -6    0.83    0.44   1-0.31770-0.48980 0.88009 0.84424 0.35284-0.21756
   3  -4  -6    0.85    0.39   1-0.44543-0.61606-0.74622-0.78407 0.49470-0.07549
  -3   4   6    0.96    0.52   1-0.26420-0.09324 0.91874 0.95618-0.29343 0.27749
   3  -4  -5    5.46    0.60   1-0.49539-0.65995-0.67220-0.75065 0.55019 0.03124
  -3   4   5    5.97    0.82   1 0.18392 0.34823-0.96148-0.88287-0.20426 0.31506
  -3   4   5    5.35    0.64   1-0.29850-0.13354 0.89498 0.97301-0.33151 0.18816
   3  -4  -4    9.33    0.85   1-0.54723-0.70572-0.57545-0.69450 0.60776 0.14007
  -3   4   4   10.54    0.77   1 0.02696 0.18559-0.99918-0.87980-0.02995 0.43760
  -3   4   4    9.90    0.95   1-0.34079-0.18184 0.86058 0.97920-0.37849 0.08993
   3  -4  -4   11.37    0.74   1 0.01588-0.14307 0.99971 0.88109 0.01764-0.45078
   3  -4  -3    0.30    0.28   1-0.59448-0.74690-0.45897-0.61861 0.66024 0.24380
  -3   4   3    0.23    0.27   1-0.14542 0.00717-0.97609-0.81616 0.16151 0.57777
  -3   4   3    0.29    0.56   1-0.39124-0.23794 0.81124 0.97111-0.43451-0.01798
   3  -4  -3    0.27    0.35   1-0.07593-0.22888 0.99353 0.83432-0.08433-0.50151
   3  -4  -2    3.10    0.51   1-0.63144-0.77780-0.33085-0.53109 0.70129 0.33610
  -3   4   2    3.01    0.39   1-0.31003-0.16345-0.88618-0.68570 0.34432 0.70929
  -3   4   2    2.58    0.47   1-0.44650-0.29927 0.74479 0.94517-0.49589-0.13070
   3  -4  -2    3.39    0.58   1-0.17232-0.31927 0.96626 0.76646-0.19138-0.55731
   3  -4  -1    4.27    0.48   1-0.65460-0.79431-0.20722-0.44645 0.72701 0.41200
  -3   4   1    4.19    0.44   1-0.44313-0.30284-0.74928-0.50844 0.49214 0.80607
  -3   4   1    4.07    0.51   1-0.50384-0.36267 0.65803 0.89893-0.55957-0.24571
   3  -4  -1    4.25    0.50   1-0.26876-0.40971 0.91578 0.67538-0.29849-0.61317
   3  -4   0   22.31    1.12   1-0.66675-0.80010-0.08421-0.36434 0.74050 0.47652
  -3   4   0   21.92    1.00   1-0.53728-0.40307-0.59602-0.31459 0.59671 0.85939
  -3   4   0   21.92    1.09   1-0.55839-0.42329 0.55100 0.83242-0.62015-0.35763
   3  -4   0   23.56    1.06   1-0.36062-0.49572 0.84234 0.56092-0.40051-0.66303
   3  -4   1    5.14    0.56   1-0.66886-0.79586 0.02813-0.29290 0.74285 0.52990
  -3   4  -1    4.99    0.51   1-0.59638-0.46823-0.45344-0.13141 0.66235 0.87377
  -3   4  -1    4.70    0.59   1-0.60500-0.47597 0.42717 0.74911-0.67192-0.46073
   3  -4   1    4.93    0.55   1-0.44015-0.56918 0.75319 0.43125-0.48884-0.70003
   3  -4   2   32.24    1.35   1-0.66355-0.78420 0.12882-0.23311 0.73695 0.57504
  -3   4  -2   33.11    1.45   1-0.63063-0.50855-0.33428 0.02833 0.70039 0.86056
  -3   4  -2   30.84    1.23   1-0.63975-0.51678 0.29306 0.65551-0.71051-0.55066
   3  -4   2   31.60    1.32   1-0.50501-0.62798 0.65603 0.29358-0.56087-0.72072
   3  -4   3   51.57    1.67   1-0.65295-0.76725 0.21857-0.18427 0.72517 0.61430
  -3   4  -3   52.77    1.63   1-0.64941-0.53339-0.24098 0.16224 0.72124 0.83016
  -3   4  -3   52.86    1.62   1-0.66083-0.54440 0.15702 0.55982-0.73392-0.62467
   3  -4   3   50.70    1.76   1-0.55448-0.67138 0.55973 0.15677-0.61582-0.72433
   3  -4   4   31.88    1.33   1-0.63857-0.74652 0.29874-0.14500 0.70920 0.64936
  -3   4  -4   33.35    1.43   1-0.65850-0.55056-0.17746 0.26628 0.73134 0.79118
  -3   4  -4   34.40    1.13   1-0.66893-0.55884 0.02403 0.46753-0.74293-0.68491
   3  -4   4   32.35    1.22   1-0.59016-0.70099 0.47127 0.02778-0.65544-0.71262
   3  -4   5   41.50    1.82   1-0.62143-0.72302 0.37078-0.11386 0.69017 0.68136
  -3   4  -5   42.60    1.80   1-0.66368-0.56208-0.12731 0.35733 0.73709 0.74590
  -3   4  -5   42.25    1.77   1-0.66575-0.56199-0.10024 0.38396-0.73940-0.73261
   3  -4   5   40.74    1.69   1-0.61480-0.71957 0.39469-0.08930-0.68281-0.68865
   3  -4   6   35.34    1.72   1-0.60218-0.69743 0.43597-0.08957 0.66879 0.71102
  -3   4  -6   37.77    1.63   1-0.66623-0.57099-0.09290 0.43264 0.73993 0.69769
  -3   4  -6   37.50    1.29   1-0.65369-0.55627-0.21352 0.31137-0.72600-0.77045
   3  -4   6   36.10    1.60   1-0.63129-0.72999 0.33149-0.19302-0.70112-0.65562
   3  -4   7   54.30    2.50   1-0.58125-0.67014 0.49538-0.07106 0.64555 0.73881
  -3   4  -7   56.23    2.41   1-0.66743-0.57854-0.07109 0.49536 0.74126 0.64799
  -3   4  -7   56.41    2.12   1-0.63500-0.54391-0.31526 0.25033-0.70524-0.80093
   3  -4   7   54.29    2.32   1-0.64207-0.73471 0.28146-0.28357-0.71310-0.61626
   3  -4   8    1.27    0.63   1-0.55770-0.64138 0.55254-0.05399 0.61939 0.76531
  -3   4  -8    1.58    0.62   1-0.66794-0.58540-0.05940 0.54795 0.74183 0.59753
  -3   4  -8    1.61    0.53   1-0.61151-0.52675-0.40595 0.20034-0.67915-0.82607
   3  -4   8    1.19    0.74   1-0.64898-0.73555 0.24350-0.36204-0.72077-0.57260
   3  -4   9   25.19    1.56   1-0.53396-0.61133 0.60265-0.04465 0.59303 0.79011
  -3   4  -9   24.93    1.43   1-0.66808-0.59189-0.05594 0.59232 0.74198 0.54664
  -3   4  -9   27.20    1.60   1-0.58457-0.50614-0.48657 0.16042-0.64924-0.84739
   3  -4   9   26.26    1.53   1-0.65340-0.73183 0.21555-0.43144-0.72567-0.52752
   3  -4  10    6.07    1.20   1-0.50905-0.58010 0.64902-0.03904 0.56536 0.81360
  -3   4 -10    6.32    0.90   1-0.66795-0.59811-0.05926 0.62989 0.74183 0.49546
  -3   4 -10    6.64    0.76   1-0.55514-0.48359-0.55827 0.12965-0.61655-0.86563
   3  -4  10    6.21    0.90   1-0.65596-0.72805 0.19743-0.49026-0.72851-0.47913
   3  -4  11    3.98    0.89   1-0.48300-0.54773 0.69206-0.03677 0.53642 0.83584
  -3   4 -11    5.13    0.83   1-0.66756-0.60408-0.06829 0.66177 0.74141 0.44400
  -3   4 -11    4.65    0.65   1-0.52391-0.45871-0.62205 0.10660-0.58186-0.88216
   3  -4  11    3.51    1.06   1-0.65729-0.72305 0.18727-0.54113-0.72999-0.42937
   3  -4  12    1.99    0.87   1-0.45582-0.51424 0.73207-0.03751 0.50624 0.85682
  -3   4 -12    2.17    1.07   1-0.66686-0.60972-0.08219 0.68878 0.74062 0.39219
  -3   4 -12    2.27    0.64   1-0.49126-0.43243-0.67895 0.09044-0.54560-0.89711
   3  -4  12    0.83    1.08   1-0.65770-0.71714 0.18398-0.58512-0.73045-0.37860
   3  -4  13    0.59    1.24   1-0.42749-0.47959 0.76930-0.04105 0.47478 0.87652
  -3   4 -13    0.26    1.12   1-0.66575-0.61496-0.10034 0.71152 0.73939 0.33991
  -3   4 -13    0.27    0.64   1-0.45745-0.40498-0.72980 0.08032-0.50805-0.91078
   3  -4  13   -0.00    1.16   1-0.65736-0.71047 0.18666-0.62314-0.73008-0.32699
   3  -3 -12    4.83    1.30   1-0.60760-0.74293 0.41885 0.64465 0.67481-0.18019
   3  -3 -12    3.99    1.02   1-0.23712-0.36969-0.93510-0.71519 0.26335-0.59314
  -3   3  12    3.70    0.68   1-0.50349-0.36633-0.65863-0.88176-0.55919 0.29714
  -3   3  12    3.00    1.04   1-0.17240-0.03972 0.96623 0.74544-0.19147 0.66538
   3  -3 -11    0.31    1.04   1-0.57816-0.70713 0.50340 0.68829 0.64211-0.16186
   3  -3 -11    0.18    0.90   1-0.23487-0.36141-0.93637-0.75701 0.26085-0.54434
  -3   3  11    0.29    0.80   1-0.46797-0.33717-0.71474-0.89714-0.51974 0.28537
  -3   3  11    0.78    0.93   1-0.17087-0.04419 0.96684 0.78664-0.18977 0.61582
   3  -3 -10   -0.21    0.66   1-0.54015-0.66325 0.59021 0.73240 0.59989-0.15387
  -3   3  10   -0.04    0.72   1-0.42732-0.30288-0.76951-0.91117-0.47459 0.27930
  -3   3  10    0.01    0.88   1-0.17396-0.05328 0.96561 0.82600-0.19320 0.56114
   3  -3  -9   -0.08    0.62   1-0.49329-0.61007 0.67566 0.77708 0.54785-0.15474
   3  -3  -9   -0.02    0.53   1-0.25099-0.36548-0.92698-0.82871 0.27875-0.42384
  -3   3   9   -0.15    0.67   1-0.38060-0.26252-0.82247-0.92341-0.42270 0.27998
  -3   3   9    0.16    0.82   1-0.18244-0.06776 0.96211 0.86309-0.20262 0.50047
   3  -3  -8    3.62    0.85   1-0.43435-0.54482 0.76067 0.82133 0.48239-0.16903
   3  -3  -8    2.96    0.66   1-0.27142-0.37988-0.91403-0.85632 0.30144-0.34986
  -3   3   8    2.89    0.69   1-0.32661-0.21490-0.87277-0.93298-0.36274 0.28872
  -3   3   8    3.09    0.64   1-0.19724-0.08857 0.95556 0.89713-0.21906 0.43278
   3  -3  -7   11.36    1.02   1-0.36008-0.46423 0.84285 0.86275 0.39991-0.20035
   3  -3  -7    9.65    1.17   1-0.30158-0.40401-0.89267-0.87550 0.33494-0.26506
  -3   3   7    8.81    0.69   1-0.26397-0.15861-0.91889-0.93836-0.29317 0.30708
  -3   3   7    9.84    1.32   1-0.21948-0.11680 0.94467 0.92683-0.24376 0.35683
   3  -3  -6   20.81    1.12   1-0.26684-0.36467 0.91704 0.89617 0.29635-0.25274
   3  -3  -6   19.80    1.49   1-0.34221-0.43862-0.85932-0.88270 0.38006-0.16864
  -3   3   6   18.73    1.18   1-0.25032-0.15364 0.92738 0.95014-0.27801 0.27133
   3  -3  -5    0.87    0.43   1-0.39298-0.48336-0.80936-0.87329 0.43645-0.06095
  -3   3   5    1.24    0.41   1 0.14660 0.23669-0.97570-0.91200-0.16282 0.33498
  -3   3   5    0.69    0.60   1-0.29077-0.20009 0.90064 0.96399-0.32293 0.17516
   3  -3  -4   21.81    1.11   1-0.45080-0.53503-0.73899-0.84307 0.50066 0.05443
  -3   3   4   22.20    1.35   1 0.00987 0.09422-0.99989-0.89541-0.01096 0.43515
  -3   3   4   21.51    1.42   1-0.34121-0.25654 0.86021 0.96414-0.37895 0.06789
   3  -3  -4   23.57    1.18   1 0.00842-0.07624 0.99992 0.89598 0.00936-0.43748
   3  -3  -3  108.82    2.63   1-0.51215-0.59031-0.64355-0.78823 0.56880 0.17382
  -3   3   3  106.68    2.31   1-0.13967-0.06134-0.97797-0.83294 0.15512 0.54994
  -3   3   3  105.24    2.68   1-0.40130-0.32234 0.80018 0.94526-0.44569-0.05066
   3  -3  -3  104.01    2.22   1-0.09874-0.17741 0.98904 0.84452-0.10967-0.50527
   3  -3  -2   49.73    1.78   1-0.56918-0.64128-0.52575-0.71103 0.63214 0.28841
  -3   3   2   50.95    2.10   1-0.28712-0.21482-0.90325-0.71768 0.31888 0.66240
  -3   3   2   51.76    2.42   1-0.46638-0.39349 0.71706 0.90265-0.51797-0.17428
   3  -3  -2   51.00    1.89   1-0.21206-0.28473 0.94845 0.76333-0.23551-0.57986
   3  -3  -1   41.15    1.60   1-0.61528-0.68131-0.39301-0.61889 0.68334 0.39087
  -3   3   1   42.21    1.62   1-0.41371-0.34768-0.78595-0.56007 0.45947 0.75194
  -3   3   1   43.39    1.82   1-0.53125-0.46442 0.60797 0.83408-0.59002-0.29766
   3  -3  -1   40.93    1.66   1-0.32359-0.39026 0.87528 0.64958-0.35938-0.65248
   3  -3   0   39.15    1.58   1-0.64689-0.70685-0.25563-0.52210 0.71845 0.47723
  -3   3   0   38.99    1.66   1-0.51008-0.45012-0.64720-0.38073 0.56651 0.80773
  -3   3   0   38.90    1.66   1-0.58853-0.52776 0.47581 0.74243-0.65363-0.41260
   3  -3   0   41.12    1.76   1-0.42486-0.48563 0.77254 0.50592-0.47186-0.71288
   3  -3   1   28.98    1.15   1-0.66349-0.71625-0.12946-0.43541 0.73689 0.54533
  -3   3  -1   29.40    1.39   1-0.57508-0.52119-0.51121-0.20414 0.63869 0.82866
  -3   3  -1   29.55    1.51   1-0.63189-0.57719 0.32892 0.63607-0.70179-0.51210
   3  -3   1   29.16    1.38   1-0.50605-0.56075 0.65423 0.34709-0.56203-0.75171
   3  -3   2  227.52    5.86   1-0.66911-0.71552-0.00654-0.35339 0.74312 0.60260
  -3   3  -2  226.97    5.60   1-0.61534-0.56752-0.39280-0.04514 0.68341 0.82212
  -3   3  -2  228.73    5.74   1-0.65822-0.60987 0.17977 0.52698-0.73103-0.59189
   3  -3   2  233.19    3.35   1-0.56576-0.61439 0.53394 0.18628-0.62834-0.76669
   3  -3   3    1.25    0.52   1-0.66547-0.70552 0.10445-0.28330 0.73908 0.64959
  -3   3  -3    1.25    0.40   1-0.63886-0.59710-0.29733 0.09092 0.70953 0.79698
  -3   3  -3    1.28    0.32   1-0.66873-0.62670 0.03456 0.42247-0.74270-0.65479
   3  -3   3    1.15    0.48   1-0.60614-0.64871 0.42353 0.03536-0.67319-0.76020
   3  -3   4    0.32    0.41   1-0.65511-0.68881 0.20362-0.22503 0.72757 0.68912
  -3   3  -4    0.28    0.39   1-0.65208-0.61638-0.22431 0.20455 0.72420 0.76041
  -3   3  -4    0.12    0.38   1-0.66586-0.63017-0.09863 0.32997-0.73952-0.70285
   3  -3   4    0.12    0.46   1-0.63174-0.66824 0.32955-0.09913-0.70162-0.73730
   3  -3   5   22.13    1.30   1-0.63995-0.66730 0.29207-0.17748 0.71074 0.72332
  -3   3  -5   22.56    1.30   1-0.65847-0.63111-0.17778 0.29177 0.73130 0.71872
  -3   3  -5   21.60    1.02   1-0.65311-0.62375-0.21744 0.25186-0.72536-0.73992
   3  -3   5   19.42    1.28   1-0.64721-0.67764 0.25383-0.21537-0.71880-0.70314
   3  -3   6    0.02    0.48   1-0.62132-0.64232 0.37119-0.13926 0.69005 0.75366
  -3   3  -6    0.37    0.47   1-0.66247-0.64147-0.14067 0.36978 0.73575 0.67213
  -3   3  -6    0.21    0.32   1-0.63350-0.61047-0.32193 0.18807-0.70358-0.76937
   3  -3   6    0.19    0.40   1-0.65623-0.67926 0.19537-0.31463-0.72882-0.66302
   3  -3   7    3.59    0.65   1-0.60010-0.61476 0.44233-0.10902 0.66648 0.78114
  -3   3  -7    3.03    0.60   1-0.66456-0.64990-0.11666 0.43470 0.73807 0.62341
  -3   3  -7    3.46    0.59   1-0.60928-0.59258-0.41337 0.13733-0.67668-0.79371
   3  -3   7    3.52    0.55   1-0.66135-0.67805 0.15200-0.39870-0.73450-0.61747
   3  -3   8    5.96    0.97   1-0.57687-0.58517 0.50668-0.08558 0.64068 0.80637
  -3   3  -8    5.00    0.85   1-0.66555-0.65725-0.10325 0.48901 0.73917 0.57348
  -3   3  -8    5.58    0.71   1-0.58199-0.57163-0.49343 0.09797-0.64637-0.81463
   3  -3   8    6.17    0.69   1-0.66417-0.67453 0.12150-0.46990-0.73763-0.56937
   3  -3   9    2.90    0.97   1-0.55078-0.55388 0.56784-0.06448 0.61170 0.83009
  -3   3  -9    2.27    0.88   1-0.66587-0.66392-0.09850 0.53466 0.73953 0.52280
  -3   3  -9    2.83    0.71   1-0.55264-0.54909-0.56379 0.06843-0.61377-0.83295
   3  -3   9    2.97    0.84   1-0.66566-0.66969 0.10170-0.53040-0.73929-0.51979
   3  -3  10    4.36    0.83   1-0.52434-0.52112 0.62123-0.05186 0.58234 0.85190
  -3   3 -10    4.51    1.00   1-0.66571-0.67011-0.10089 0.57318 0.73935 0.47159
  -3   3 -10    4.30    0.61   1-0.52187-0.52468-0.62587 0.04709-0.57959-0.84999
   3  -3  10    4.26    0.94   1-0.66636-0.66406 0.09080-0.58200-0.74007-0.46934
   3  -3  11   11.21    1.34   1-0.49661-0.48707 0.67020-0.04365 0.55154 0.87226
  -3   3 -11   10.39    1.18   1-0.66512-0.67587-0.10927 0.60570 0.73869 0.41990
  -3   3 -11   10.71    1.12   1-0.49004-0.49921-0.68092 0.03277-0.54424-0.86585
   3  -3  11    9.38    1.30   1-0.66657-0.65794 0.08732-0.62618-0.74030-0.41833
   3  -3  12    7.61    1.49   1-0.46764-0.45179 0.71523-0.03938 0.51937 0.89125
  -3   3 -12    7.68    1.13   1-0.66406-0.68117-0.12278 0.63309 0.73752 0.36769
  -3   3 -12    7.35    1.02   1-0.45736-0.47290-0.72993 0.02449-0.50795-0.88077
   3  -3  12    7.91    1.36   1-0.66640-0.65144 0.09013-0.66407-0.74011-0.36691
   3  -3  13   13.99    1.79   1-0.43743-0.41527 0.75671-0.03866 0.48582 0.90887
  -3   3 -13   15.56    1.53   1-0.66246-0.68592-0.14076 0.65601 0.73574 0.31488
  -3   3 -13   15.84    1.61   1-0.42392-0.44583-0.77369 0.02146-0.47082-0.89486
   3  -3  13   16.29    1.75   1-0.66588-0.64459 0.09833-0.69657-0.73954-0.31510
   3  -2 -12    8.44    1.40   1-0.57792-0.63900 0.50402 0.74490 0.64184-0.19177
   3  -2 -12    5.83    1.20   1-0.17395-0.23224-0.96561-0.73080 0.19319-0.64186
  -3   2  12    8.03    0.94   1-0.52965-0.46685-0.61110-0.84920-0.58823 0.24678
  -3   2  12    5.37    0.92   1-0.15096-0.09256 0.97421 0.73873-0.16766 0.66761
   3  -2 -11    8.90    1.23   1-0.54395-0.59910 0.58236 0.78028 0.60412-0.17950
   3  -2 -11    5.97    1.18   1-0.17052-0.22279-0.96697-0.77271 0.18939-0.59436
  -3   2  11    7.40    0.81   1-0.49676-0.44033-0.66995-0.86731-0.55171 0.23209
  -3   2  11    5.55    0.85   1-0.14918-0.09679 0.97482 0.77993-0.16569 0.61833
   3  -2 -10   15.71    1.24   1-0.50379-0.55262 0.65812 0.81528 0.55952-0.17294
   3  -2 -10   11.48    1.45   1-0.17287-0.21911-0.96605-0.81233 0.19199-0.54046
  -3   2  10   12.42    0.96   1-0.45844-0.40837-0.72841-0.88504-0.50915 0.22343
  -3   2  10   11.98    1.09   1-0.15254-0.10614 0.97366 0.81936-0.16941 0.56335
   3  -2  -9   11.90    1.09   1-0.45519-0.49771 0.73294 0.84934 0.50555-0.17574
   3  -2  -9    9.36    1.27   1-0.18190-0.22211-0.96233-0.84917 0.20202-0.47913
  -3   2   9    9.55    0.88   1-0.41344-0.36973-0.78627-0.90217-0.45917 0.22220
  -3   2   9    8.68    1.02   1-0.16203-0.12164 0.97023 0.85652-0.17995 0.50156
   3  -2  -8   32.28    1.71   1-0.39629-0.43249 0.80575 0.88138 0.44012-0.19000
   3  -2  -8   28.00    1.76   1-0.19875-0.23294-0.95486-0.88224 0.22074-0.40912
  -3   2   8   27.40    1.49   1-0.36005-0.32270-0.84288-0.91805-0.39988 0.23028
  -3   2   8   26.68    1.96   1-0.17896-0.14457 0.96356 0.89044-0.19876 0.43151
   3  -2  -7   27.45    1.52   1-0.32480-0.35468 0.87428 0.90915 0.36072-0.21823
   3  -2  -7   25.28    1.79   1-0.22472-0.25288-0.94191-0.90984 0.24958-0.32898
  -3   2   7   23.62    1.28   1-0.29607-0.26509-0.89677-0.93121-0.32883 0.25012
  -3   2   7   24.54    1.53   1-0.20492-0.17653 0.95195 0.91942-0.22758 0.35143
   3  -2  -6   18.17    1.06   1-0.26105-0.28318-0.92075-0.92923 0.28992-0.23734
  -3   2   6   16.92    1.18   1-0.24167-0.21928 0.93249 0.94055-0.26841 0.25935
   3  -2  -5   78.80    2.10   1-0.30849-0.32460-0.88737-0.93640 0.34262-0.13335
  -3   2   5   81.93    2.15   1 0.13037 0.14624-0.98083-0.93205-0.14479 0.33150
  -3   2   5   74.21    3.58   1-0.29080-0.27441 0.90062 0.94927-0.32297 0.15354
   3  -2  -4    1.03    0.33   1-0.36652-0.37660-0.83663-0.92620 0.40706-0.01760
  -3   2   4    0.89    0.43   1 0.01012 0.02020-0.99988-0.91031-0.01124 0.41342
  -3   2   4    1.12    0.40   1-0.35279-0.34240 0.84971 0.93895-0.39181 0.03345
   3  -2  -4    1.10    0.43   1 0.01084 0.00045 0.99986 0.91062 0.01204-0.41322
   3  -2  -3   19.70    1.03   1-0.43151-0.43542-0.76427-0.89399 0.47924 0.10572
  -3   2   3   19.73    1.14   1-0.12124-0.11719-0.98344-0.85332 0.13466 0.50803
  -3   2   3   20.34    1.38   1-0.42605-0.42143 0.77108 0.90136-0.47318-0.09965
   3  -2  -3   17.63    0.94   1-0.11773-0.12212 0.98439 0.85456-0.13076-0.50477
   3  -2  -2   25.80    1.01   1-0.49935-0.49719-0.66564-0.83595 0.55458 0.23232
  -3   2   2   25.97    1.11   1-0.25422-0.25619-0.92501-0.75434 0.28234 0.60442
  -3   2   2   27.84    1.32   1-0.50279-0.50423 0.65982 0.83063-0.55841-0.23621
   3  -2  -2   23.77    1.04   1-0.25489-0.25327 0.92460 0.75418-0.28308-0.60585
   3  -2  -1    0.98    0.31   1-0.56161-0.55338-0.54363-0.75455 0.62373 0.35272
  -3   2   1    1.04    0.40   1-0.37529-0.38329-0.82789-0.61668 0.41681 0.68759
  -3   2   1    1.28    0.36   1-0.57312-0.58062 0.51611 0.72743-0.63651-0.36566
   3  -2  -1    1.04    0.44   1-0.38669-0.37919 0.81610 0.60478-0.42946-0.70032
   3  -2   0   -0.04    0.26   1-0.61150-0.59720-0.40598-0.65749 0.67914 0.45938
  -3   2   0    0.04    0.37   1-0.47271-0.48701-0.70775-0.45624 0.52500 0.74475
  -3   2   0    0.15    0.36   1-0.62659-0.64016 0.35087 0.60270-0.69589-0.47637
   3  -2   0    0.02    0.29   1-0.49436-0.48079 0.67390 0.42206-0.54904-0.76856
   3  -2   1    8.89    0.70   1-0.64553-0.62517-0.26320-0.55531 0.71694 0.54843
  -3   2  -1    9.07    0.71   1-0.54416-0.56453-0.58192-0.28981 0.60435 0.77285
  -3   2  -1    9.13    0.73   1-0.65776-0.67747 0.18351 0.47512-0.73052-0.56149
   3  -2   1    9.18    0.65   1-0.57089-0.55125 0.52160 0.22925-0.63404-0.80222
   3  -2   2   29.08    1.14   1-0.66329-0.63546-0.13175-0.46351 0.73666 0.61752
  -3   2  -2   28.94    1.12   1-0.59179-0.61822-0.46669-0.13399 0.65724 0.77449
  -3   2  -2   27.91    1.01   1-0.66895-0.69499 0.02286 0.35518-0.74295-0.62515
   3  -2   2   28.85    1.15   1-0.61857-0.59287 0.38132 0.04844-0.68699-0.80383
   3  -2   3    2.80    0.58   1-0.66912-0.63494-0.00306-0.37572 0.74314 0.67504
  -3   2  -3    2.42    0.43   1-0.62162-0.65412-0.37006 0.00323 0.69038 0.75638
  -3   2  -3    2.54    0.35   1-0.66430-0.69667-0.11985 0.25315-0.73778-0.67123
   3  -2   3    2.35    0.49   1-0.64527-0.61350 0.26461-0.10877-0.71665-0.78216
   3  -2   4   35.42    1.30   1-0.66480-0.62427 0.11348-0.30007 0.73834 0.72127
  -3   2  -4   36.84    1.33   1-0.63957-0.67814-0.29390 0.11999 0.71032 0.72506
  -3   2  -4   33.20    1.21   1-0.64907-0.68778-0.24297 0.17073-0.72087-0.70555
   3  -2   4   35.59    1.25   1-0.65887-0.62017 0.17441-0.23930-0.73175-0.74707
   3  -2   5   41.87    1.45   1-0.65307-0.60618 0.21775-0.23671 0.72531 0.75928
  -3   2  -5   42.28    1.45   1-0.65010-0.69474-0.23674 0.21775 0.72201 0.68550
  -3   2  -5   39.54    1.44   1-0.62728-0.67232-0.34808 0.10633-0.69667-0.73258
   3  -2   5   42.58    1.34   1-0.66532-0.62028 0.10652-0.34789-0.73891-0.70300
   3  -2   6   26.72    1.40   1-0.63601-0.58277 0.31069-0.18467 0.70636 0.79136
  -3   2  -6   27.14    1.35   1-0.65514-0.70838-0.20339 0.29197 0.72761 0.64260
  -3   2  -6   28.16    1.34   1-0.60156-0.65293-0.43789 0.05721-0.66810-0.75524
   3  -2   6   28.54    1.31   1-0.66800-0.61663 0.05800-0.43711-0.74189-0.65474
   3  -2   7   36.05    1.58   1-0.61510-0.55551 0.39364-0.14262 0.68314 0.81918
  -3   2  -7   36.83    1.68   1-0.65864-0.71823-0.17632 0.35994 0.73150 0.59546
  -3   2  -7   35.96    1.38   1-0.57351-0.63121-0.51514 0.02067-0.63695-0.77533
   3  -2   7   38.28    1.44   1-0.66892-0.61122 0.02498-0.51083-0.74291-0.60453
   3  -2   8   24.31    1.76   1-0.59133-0.52539 0.46797-0.10919 0.65674 0.84381
  -3   2  -8   24.66    1.79   1-0.66046-0.72640-0.16037 0.41679 0.73352 0.54645
  -3   2  -8   25.32    1.66   1-0.54406-0.60852-0.58213-0.00559-0.60424-0.79351
   3  -2   8   25.22    1.77   1-0.66912-0.60509 0.00426-0.57225-0.74313-0.55352
   3  -2   9   29.94    1.82   1-0.56422-0.49305 0.53755-0.07979 0.62663 0.86633
  -3   2  -9   32.08    1.66   1-0.66119-0.73348-0.15357 0.46450 0.73432 0.49622
  -3   2  -9   32.89    1.62   1-0.51371-0.58453-0.64076-0.02349-0.57054-0.81102
   3  -2   9   31.78    1.70   1-0.66911-0.59875-0.00665-0.62386-0.74312-0.50228
   3  -2  10    2.14    0.76   1-0.53631-0.45882 0.59798-0.06013 0.59563 0.88649
  -3   2 -10    2.15    0.68   1-0.66111-0.73975-0.15435 0.50462 0.73423 0.44509
  -3   2 -10    2.79    0.60   1-0.48273-0.55991-0.69248-0.03448-0.53613-0.82783
   3  -2  10    2.65    0.88   1-0.66909-0.59240-0.00964-0.66755-0.74311-0.45102
   3  -2  11   14.33    1.80   1-0.50685-0.42304 0.65286-0.04602 0.56291 0.90493
  -3   2 -11   14.34    1.58   1-0.66034-0.74534-0.16150 0.53837 0.73338 0.39321
  -3   2 -11   15.80    1.46   1-0.45123-0.53477-0.73840-0.03967-0.50114-0.84406
   3  -2  11   14.96    1.59   1-0.66911-0.58608-0.00611-0.70473-0.74313-0.39981
   3  -2  12    3.96    1.23   1-0.47598-0.38586 0.70284-0.03680 0.52863 0.92182
  -3   2 -12    3.34    1.05   1-0.65890-0.75025-0.17411 0.56667 0.73179 0.34058
  -3   2 -12    4.07    0.70   1-0.41924-0.50915-0.77937-0.03991-0.46562-0.85974
   3  -2  12    4.15    1.04   1-0.66912-0.57976 0.00287-0.73644-0.74314-0.34859
   3  -2  13    3.15    0.96   1-0.44376-0.34732 0.74845-0.03195 0.49284 0.93720
  -3   2 -13    3.27    0.80   1-0.65675-0.75444-0.19147 0.59021 0.72939 0.28714
  -3   2 -13    3.20    0.97   1-0.38675-0.48302-0.81604-0.03584-0.42952-0.87487
   3  -2  13    3.86    0.93   1-0.66903-0.57334 0.01653-0.76348-0.74304-0.29725
   3  -1 -13    1.19    1.20   1-0.58271-0.57590 0.49155 0.78843 0.64716-0.21610
   3  -1 -13    0.83    0.73   1-0.13601-0.12605-0.97912-0.68885 0.15105-0.71385
  -3   1  13    0.98    0.69   1-0.58530-0.59075-0.48462-0.77770-0.65004 0.21490
  -3   1  13    0.86    0.80   1-0.13877-0.14866 0.97825 0.68748-0.15413 0.71081
   3  -1 -12   11.16    1.52   1-0.55249-0.53969 0.56411 0.81778 0.61360-0.19988
   3  -1 -12    9.18    1.46   1-0.12738-0.11139-0.98171-0.73199 0.14147-0.67214
  -3   1  12   11.29    1.12   1-0.56140-0.57297-0.54412-0.79719-0.62349 0.19021
  -3   1  12    7.36    1.14   1-0.13202-0.14791 0.98034 0.73016-0.14662 0.66706
   3  -1 -11    1.10    1.01   1-0.51777-0.49865 0.63342 0.84632 0.57505-0.18727
   3  -1 -11    0.45    0.86   1-0.12328-0.10127-0.98288-0.77371 0.13692-0.62539
  -3   1  11    0.44    0.50   1-0.53297-0.55090-0.60461-0.81694-0.59192 0.17057
  -3   1  11    0.53    0.65   1-0.13004-0.15193 0.98093 0.77134-0.14443 0.61801
   3  -1 -10   17.55    1.65   1-0.47686-0.45143 0.70150 0.87364 0.52961-0.18154
   3  -1 -10   13.95    1.76   1-0.12437-0.09633-0.98257-0.81395 0.13812-0.57288
  -3   1  10   16.22    1.34   1-0.49923-0.52352-0.66584-0.83745-0.55445 0.15683
  -3   1  10   13.42    1.45   1-0.13384-0.16173 0.97978 0.81079-0.14865 0.56254
   3  -1  -9    2.33    0.85   1-0.42864-0.39689 0.76786 0.89924 0.47606-0.18392
   3  -1  -9    2.22    0.57   1-0.13148-0.09742-0.98050-0.85242 0.14603-0.51368
  -3   1   9    2.04    0.50   1-0.45865-0.48931-0.72812-0.85899-0.50938 0.15068
  -3   1   9    1.99    0.60   1-0.14479-0.17868 0.97630 0.84790-0.16080 0.49913
   3  -1  -8    0.13    0.49   1-0.37173-0.33366 0.83148 0.92209 0.41285-0.19597
   3  -1  -8    0.07    0.46   1-0.14570-0.10561-0.97600-0.88847 0.16182-0.44659
  -3   1   8    0.23    0.39   1-0.40902-0.44604-0.79142-0.88156-0.45426 0.15459
  -3   1   8    0.08    0.68   1-0.16473-0.20462 0.96922 0.88140-0.18295 0.42573
   3  -1  -7    0.01    0.42   1-0.30450-0.26012 0.89045 0.94030 0.33818-0.21947
   3  -1  -7    0.18    0.57   1-0.16829-0.12218-0.96785-0.92087 0.18691-0.37021
  -3   1   7    0.10    0.35   1-0.34705-0.39044-0.85497-0.90438-0.38544 0.17219
  -3   1   7    0.03    0.42   1-0.19606-0.24196 0.95610 0.90888-0.21775 0.33968
   3  -1  -6    8.00    0.66   1-0.20063-0.14849-0.95398-0.94755 0.22283-0.28299
  -3   1   6    6.99    0.68   1-0.26810-0.31785-0.91621-0.92489-0.29776 0.20866
  -3   1   6    6.65    0.73   1-0.24162-0.29352 0.93252 0.92589-0.26835 0.23783
   3  -1  -5   19.41    0.94   1-0.24395-0.18579-0.93116-0.96528 0.27094-0.18358
  -3   1   5   18.27    0.99   1 0.12858 0.07023-0.98136-0.94749-0.14281 0.31197
  -3   1   5   16.86    1.15   1-0.30397-0.36187 0.89085 0.92481-0.33760 0.11733
   3  -1  -4   25.00    1.01   1-0.29872-0.23453-0.89481-0.96947 0.33177-0.07145
  -3   1   4   23.71    1.11   1 0.02250-0.04169-0.99943-0.92476-0.02498 0.37823
  -3   1   4   25.26    1.54   1-0.38400-0.44764 0.81892 0.89390-0.42648-0.02312
   3  -1  -4   26.94    1.24   1 0.03077 0.09467 0.99894 0.92439 0.03418-0.36950
   3  -1  -3    0.47    0.29   1-0.36377-0.29355-0.83930-0.95452 0.40401 0.05208
  -3   1   3    0.47    0.29   1-0.09338-0.16360-0.99021-0.87500 0.10371 0.45564
  -3   1   3    0.57    0.43   1-0.47461-0.54432 0.70490 0.82040-0.52711-0.17508
   3  -1  -3    0.41    0.26   1-0.12991-0.06001 0.98097 0.86583-0.14428-0.49672
   3  -1  -2   35.86    1.47   1-0.43452-0.35810-0.76045-0.91581 0.48258 0.18178
  -3   1   2   37.44    1.54   1-0.21314-0.28939-0.94790-0.79214 0.23672 0.53736
  -3   1   2   37.23    1.71   1-0.56172-0.63749 0.54338 0.69940-0.62385-0.32316
   3  -1  -2   34.56    1.46   1-0.30334-0.22744 0.89134 0.73560-0.33689-0.63808
   3  -1  -1  150.25    3.62   1-0.50597-0.42348-0.65438-0.85033 0.56193 0.31239
  -3   1   1  153.80    3.85   1-0.32714-0.40942-0.87232-0.67601 0.36333 0.61267
  -3   1   1  146.61    3.99   1-0.62706-0.70889 0.34898 0.54552-0.69642-0.44706
   3  -1  -1  155.51    4.04   1-0.45837-0.37653 0.72851 0.53198-0.50907-0.75842
   3  -1   0   98.84    2.56   1-0.56938-0.48082-0.52528-0.76183 0.63236 0.43406
  -3   1   0   99.75    2.72   1-0.42486-0.51341-0.77255-0.53600 0.47185 0.67015
  -3   1   0   96.23    2.54   1-0.66106-0.74884 0.15475 0.39078-0.73419-0.53527
   3  -1   0  100.26    2.82   1-0.56622-0.47831 0.53285 0.29580-0.62885-0.82686
   3  -1   1   43.55    1.51   1-0.61843-0.52381-0.38181-0.65896 0.68684 0.53980
  -3   1  -1   42.77    1.46   1-0.50209-0.59672-0.66101-0.38386 0.55763 0.70468
  -3   1  -1   43.73    1.49   1-0.66892-0.76303-0.02478 0.25194-0.74291-0.59523
   3  -1   1   43.05    1.77   1-0.62701-0.53304 0.34916 0.07159-0.69637-0.84305
   3  -1   2   52.39    1.83   1-0.65045-0.54976-0.23462-0.55237 0.72240 0.62661
  -3   1  -2   52.17    1.81   1-0.55765-0.65833-0.55267-0.23493 0.61933 0.71512
  -3   1  -2   51.83    1.75   1-0.65875-0.75919-0.17540 0.14202-0.73162-0.63517
   3  -1   2   52.03    1.85   1-0.65519-0.55475 0.20302-0.11439-0.72766-0.82411
   3  -1   3   35.26    1.57   1-0.66576-0.55733-0.10020-0.45777 0.73940 0.69268
  -3   1  -3   34.44    1.41   1-0.59508-0.70183-0.45725-0.09891 0.66090 0.70543
  -3   1  -3   32.77    1.23   1-0.63858-0.74535-0.29868 0.05943-0.70922-0.66401
   3  -1   3   34.04    1.49   1-0.66625-0.55948 0.09260-0.26551-0.73995-0.78516
   3  -1   4  118.76    2.43   1-0.66880-0.55402 0.03119-0.36727 0.74278 0.74710
  -3   1  -4  122.05    2.36   1-0.61920-0.73203-0.37901 0.01992 0.68769 0.68097
  -3   1  -4  120.77    2.08   1-0.61334-0.72645-0.39972-0.00090-0.68119-0.68721
   3  -1   4  122.56    2.49   1-0.66905-0.55595 0.01453-0.38429-0.74306-0.73704
   3  -1   5    1.00    0.43   1-0.66155-0.54042 0.15005-0.28931 0.73473 0.79008
  -3   1  -5    1.01    0.44   1-0.63432-0.75321-0.31832 0.12120 0.70448 0.64651
  -3   1  -5    1.11    0.35   1-0.58568-0.70511-0.48360-0.04408-0.65046-0.70772
   3  -1   5    1.29    0.38   1-0.66862-0.54919-0.03871-0.47823-0.74258-0.68532
   3  -1   6    1.34    0.71   1-0.64678-0.51930 0.25628-0.22399 0.71832 0.82471
  -3   1  -6    1.37    0.65   1-0.64359-0.76854-0.27364 0.20649 0.71477 0.60555
  -3   1  -6    1.14    0.38   1-0.55689-0.68299-0.55438-0.07427-0.61849-0.72664
   3  -1   6    1.15    0.56   1-0.66732-0.54155-0.07337-0.55359-0.74114-0.63265
   3  -1   7   16.41    1.25   1-0.62659-0.49276 0.35084-0.17033 0.69590 0.85332
  -3   1  -7   16.20    1.01   1-0.64911-0.78014-0.24273 0.27799 0.72092 0.56043
  -3   1  -7   16.15    0.81   1-0.52757-0.66003-0.61509-0.09426-0.58593-0.74529
   3  -1   7   15.93    0.94   1-0.66616-0.53406-0.09408-0.61500-0.73984-0.58012
   3  -1   8    0.05    0.79   1-0.60248-0.46229 0.43507-0.12700 0.66912 0.87758
  -3   1  -8    0.05    0.52   1-0.65222-0.78931-0.22339 0.33792 0.72436 0.51262
  -3   1  -8    0.13    0.44   1-0.49798-0.63681-0.66792-0.10635-0.55307-0.76364
   3  -1   8    0.12    0.59   1-0.66549-0.52705-0.10416-0.66578-0.73910-0.52814
   3  -1   9    1.55    0.93   1-0.57543-0.42890 0.51032-0.09266 0.63909 0.89858
  -3   1  -9    1.41    0.60   1-0.65245-0.79899-0.22184 0.38113 0.72462 0.46513
  -3   1  -9    1.43    0.72   1-0.46820-0.61338-0.71442-0.11212-0.51999-0.78178
   3  -1   9    1.48    0.56   1-0.66536-0.52059-0.10596-0.70828-0.73896-0.47676
   3  -1  10    4.61    1.11   1-0.54490-0.39314 0.58038-0.06275 0.60517 0.91733
  -3   1 -10    4.40    0.72   1-0.65268-0.80556-0.22036 0.42352 0.72487 0.41434
  -3   1 -10    4.03    0.75   1-0.43820-0.58975-0.75572-0.11269-0.48667-0.79968
   3  -1  10    5.03    0.89   1-0.66569-0.51460-0.10114-0.74417-0.73933-0.42590
   3  -1  11    3.20    1.15   1-0.51356-0.35549 0.64103-0.04286 0.57037 0.93369
  -3   1 -11    2.72    0.71   1-0.65186-0.81110-0.22569 0.45909 0.72397 0.36240
  -3   1 -11    3.23    0.65   1-0.40793-0.56585-0.79266-0.10890-0.45306-0.81728
   3  -1  11    3.19    0.90   1-0.66636-0.50893-0.09090-0.77463-0.74006-0.37540
   3  -1  12   -0.08    1.15   1-0.48059-0.31621 0.69579-0.02887 0.53375 0.94825
  -3   1 -12    0.21    0.67   1-0.65143-0.81279-0.22846 0.49524 0.72349 0.30673
  -3   1 -12    0.29    0.87   1-0.37732-0.54160-0.82583-0.10134-0.41906-0.83450
   3  -1  12    0.17    0.89   1-0.66718-0.50342-0.07612-0.80054-0.74098-0.32509
   3  -1  13    4.75    0.98   1-0.44611-0.27540 0.74532-0.02011 0.49545 0.96111
  -3   1 -13    5.08    1.10   1-0.64878-0.81622-0.24469 0.51961 0.72055 0.25254
  -3   1 -13    5.60    0.79   1-0.34628-0.51692-0.85567-0.09044-0.38458-0.85124
   3  -1  13    6.61    0.82   1-0.66802-0.49793-0.05740-0.82252-0.74191-0.27478
   3   0 -13    3.74    0.87   1-0.56367-0.48291 0.53885 0.84826 0.62602-0.21733
   3   0 -13    2.61    0.79   1-0.10208-0.01785-0.98829-0.68312 0.11338-0.73008
  -3   0  13    3.07    0.60   1-0.61536-0.69521-0.39275-0.70072-0.68342 0.16018
  -3   0  13    1.89    1.09   1-0.12393-0.20810 0.98269 0.67723-0.13764 0.70572
   3   0 -12    2.95    0.80   1-0.53348-0.44641 0.60361 0.87226 0.59249-0.19969
   3   0 -12    2.53    0.73   1-0.09363-0.00338-0.99015-0.72553 0.10399-0.68817
  -3   0  12    2.97    0.56   1-0.59709-0.68327-0.45135-0.71862-0.66314 0.12923
  -3   0  12    1.86    1.00   1-0.11658-0.20675 0.98470 0.71983-0.12947 0.66263
   3   0 -11    1.40    0.72   1-0.49856-0.40517 0.66696 0.89484 0.55370-0.18731
   3   0 -11    1.16    0.65   1-0.08934 0.00693-0.99104-0.76697 0.09922-0.64164
  -3   0  11    1.17    0.67   1-0.57528-0.66780-0.51071-0.73728-0.63891 0.10222
  -3   0  11    0.59    0.93   1-0.11456-0.21074 0.98523 0.76095-0.12723 0.61362
   3   0 -10   33.30    2.46   1-0.45824-0.35854 0.72869 0.91581 0.50893-0.18092
   3   0 -10   27.73    2.26   1-0.08980 0.01250-0.99095-0.80742 0.09973-0.58983
  -3   0  10   31.20    2.30   1-0.54940-0.64806-0.57081-0.75738-0.61017 0.07980
  -3   0  10   22.31    2.38   1-0.11921-0.22138 0.98400 0.80031-0.13240 0.55721
   3   0  -9    9.49    0.89   1-0.41168-0.30566 0.78833 0.93468 0.45721-0.18147
   3   0  -9    8.91    0.85   1-0.09579 0.01254-0.98970-0.84672 0.10638-0.53188
  -3   0   9    8.83    0.87   1-0.51731-0.62233-0.63427-0.78010-0.57453 0.06423
  -3   0   9    7.71    0.99   1-0.13245-0.24063 0.98021 0.83711-0.14710 0.49125
   3   0  -8   23.80    1.65   1-0.35784-0.24551 0.84498 0.95057 0.39742-0.19009
   3   0  -8   21.54    1.75   1-0.10828 0.00607-0.98681-0.88438 0.12026-0.46671
  -3   0   8   20.38    1.57   1-0.47688-0.58826-0.70148-0.80658-0.52963 0.05792
  -3   0   8   19.87    1.74   1-0.15706-0.27124 0.97206 0.86955-0.17443 0.41267
   3   0  -7   26.51    1.28   1-0.29556-0.17691 0.89715 0.96197 0.32826-0.20809
   3   0  -7   27.09    1.32   1-0.12848-0.00809-0.98139-0.91950 0.14269-0.39298
  -3   0   7   24.32    1.54   1-0.42399-0.54175-0.77361-0.83798-0.47089 0.06543
  -3   0   7   24.39    1.48   1-0.19694-0.31712 0.95570 0.89379-0.21872 0.31713
   3   0  -6   60.48    2.26   1-0.15773-0.03132-0.97181-0.95048 0.17518-0.30919
  -3   0   6   53.13    2.29   1-0.35153-0.47564-0.85088-0.87452-0.39041 0.09470
  -3   0   6   50.29    2.34   1-0.25707-0.38325 0.92325 0.90192-0.28551 0.19909
   3   0  -5   53.22    1.50   1-0.19740-0.06496-0.95549-0.97470 0.21923-0.21384
  -3   0   5   50.27    1.72   1 0.13730 0.00472-0.97872-0.95976-0.15249 0.28077
  -3   0   5   45.43    1.60   1-0.24732-0.37780-0.92918-0.91209-0.27468 0.15922
  -3   0   5   46.42    2.26   1-0.34195-0.47413 0.85955 0.87881-0.37978 0.05357
   3   0  -4   19.16    0.87   1-0.24843-0.10996-0.92852-0.98828 0.27591-0.10587
  -3   0   4   18.35    0.96   1 0.04377-0.09469-0.99785-0.93809-0.04861 0.33317
  -3   0   4   19.39    1.26   1-0.45008-0.58805 0.73997 0.80016-0.49986-0.11800
   3   0  -3  162.33    4.12   1-0.31067-0.16618-0.88567-0.98598 0.34503 0.01455
  -3   0   3  169.27    4.52   1-0.05834-0.20283-0.99619-0.89588 0.06479 0.39528
  -3   0   3  160.23    4.53   1-0.56063-0.70467 0.54590 0.64661-0.62264-0.29212
   3   0  -3  154.83    4.84   1-0.12736 0.01681 0.98171 0.88126-0.14145-0.47231
   3   0  -2    7.71    0.61   1-0.38187-0.23135-0.82115-0.96201 0.42411 0.14492
  -3   0   2    7.50    0.63   1-0.16555-0.31607-0.96890-0.82805 0.18386 0.46306
  -3   0   2    7.33    0.59   1-0.63887-0.78898 0.29728 0.43851-0.70954-0.43035
   3   0  -2    7.43    0.63   1-0.36421-0.21411 0.83888 0.69765-0.40450-0.68369
   3   0  -1   39.50    1.39   1-0.45621-0.29947-0.73153-0.91252 0.50668 0.27859
  -3   0   1   42.44    1.48   1-0.27132-0.42786-0.91410-0.73269 0.30133 0.52922
  -3   0   1   39.17    1.53   1-0.66787-0.82371 0.06115 0.24159-0.74175-0.51295
   3   0  -1   40.17    1.72   1-0.54072-0.38455 0.58903 0.40729-0.60053-0.82838
   3   0   0   30.85    1.10   1-0.52787-0.36506-0.61453-0.83612 0.58626 0.40942
  -3   0   0   32.17    1.21   1-0.36787-0.53044-0.83530-0.61335 0.40856 0.58516
  -3   0   0   29.90    1.06   1-0.66288-0.82505-0.13630 0.08482-0.73620-0.55864
   3   0   0   30.59    1.58   1-0.63016-0.46792 0.33625 0.11399-0.69987-0.87638
   3   0   1    4.67    0.47   1-0.58833-0.41945-0.47635-0.73854 0.65341 0.52783
  -3   0  -1    4.48    0.47   1-0.44814-0.61702-0.74259-0.48041 0.49771 0.62329
  -3   0  -1    4.81    0.42   1-0.64143-0.80994-0.28469-0.02286-0.71239-0.58605
   3   0   1    4.56    0.43   1-0.66212-0.49362 0.14430-0.11752-0.73536-0.86169
   3   0   2    5.28    0.59   1-0.63240-0.45745-0.32675-0.62953 0.70235 0.62802
  -3   0  -2    5.34    0.58   1-0.51099-0.68593-0.64561-0.34282 0.56751 0.64183
  -3   0  -2    5.12    0.45   1-0.61421-0.78905-0.39673-0.09420-0.68215-0.60705
   3   0   2    5.00    0.51   1-0.66910-0.49426 0.00888-0.29364-0.74311-0.81821
   3   0   3    7.95    0.70   1-0.65771-0.47504-0.18394-0.52642 0.73046 0.70513
  -3   0  -3    8.56    0.62   1-0.55656-0.73758-0.55510-0.21172 0.61813 0.64120
  -3   0  -3    7.90    0.55   1-0.58549-0.76666-0.48409-0.14086-0.65026-0.62639
   3   0   3    8.07    0.61   1-0.66697-0.48580-0.08028-0.42352-0.74074-0.76460
   3   0   4   19.92    0.99   1-0.66857-0.47955-0.04070-0.42407 0.74252 0.76823
  -3   0  -4   20.55    1.03   1-0.58803-0.77512-0.47716-0.09318 0.65308 0.62490
  -3   0  -4   20.68    0.95   1-0.55674-0.74448-0.55470-0.17103-0.61833-0.64535
   3   0   4   20.35    0.88   1-0.66278-0.47527-0.13743-0.52136-0.73609-0.70872
   3   0   5    1.22    0.59   1-0.66635-0.47097 0.09107-0.33320 0.74005 0.81679
  -3   0  -5    1.25    0.60   1-0.60904-0.80219-0.41416 0.01040 0.67641 0.59697
  -3   0  -5    1.52    0.41   1-0.52834-0.72245-0.61361-0.18921-0.58678-0.66502
   3   0   5    1.46    0.52   1-0.65909-0.46526-0.17253-0.59716-0.73200-0.65339
   3   0   6   25.82    1.36   1-0.65424-0.45252 0.20975-0.25543 0.72661 0.85438
  -3   0  -6   26.37    1.29   1-0.62270-0.82192-0.36598 0.09918 0.69158 0.56089
  -3   0  -6   25.12    1.08   1-0.50030-0.70076-0.66404-0.19890-0.55564-0.68509
   3   0   6   26.27    1.22   1-0.65666-0.45649-0.19212-0.65746-0.72930-0.59946
   3   0   7   21.06    1.30   1-0.63495-0.42688 0.31550-0.19058 0.70518 0.88399
  -3   0  -7   20.66    1.29   1-0.63134-0.83662-0.33128 0.17448 0.70117 0.51923
  -3   0  -7   20.96    1.19   1-0.47249-0.67932-0.70807-0.20220-0.52475-0.70542
   3   0   7   20.80    1.08   1-0.65554-0.44904-0.20048-0.70651-0.72805-0.54698
   3   0   8   16.02    1.52   1-0.61048-0.39606 0.40939-0.13759 0.67801 0.90785
  -3   0  -8   15.58    1.22   1-0.63653-0.84788-0.30832 0.23804 0.70693 0.47374
  -3   0  -8   14.94    1.13   1-0.44477-0.65797-0.74710-0.20049-0.49397-0.72586
   3   0   8   14.74    1.12   1-0.65555-0.44272-0.20040-0.74713-0.72806-0.49576
   3   0   9   22.74    1.64   1-0.58224-0.36146 0.49279-0.09509 0.64664 0.92752
  -3   0  -9   22.80    1.33   1-0.63926-0.85668-0.29540 0.29156 0.70998 0.42552
  -3   0  -9   23.95    1.27   1-0.41701-0.63656-0.78205-0.19471-0.46313-0.74623
   3   0   9   22.83    1.25   1-0.65644-0.43728-0.19378-0.78121-0.72905-0.44551
   3   0  10   11.22    1.31   1-0.54996-0.32394 0.56961-0.05855 0.61079 0.94426
  -3   0 -10   11.03    0.97   1-0.64016-0.86365-0.29101 0.33654 0.71098 0.37527
  -3   0 -10   12.37    1.10   1-0.38906-0.61497-0.81358-0.18552-0.43209-0.76640
   3   0  10   12.22    1.10   1-0.65796-0.43246-0.18191-0.81004-0.73074-0.39597
   3   0  11   11.85    1.36   1-0.51646-0.28411 0.63581-0.03311 0.57358 0.95821
  -3   0 -11   12.97    0.97   1-0.63957-0.86912-0.29392 0.37423 0.71031 0.32336
  -3   0 -11   14.06    0.94   1-0.36081-0.59309-0.84216-0.17336-0.40072-0.78625
   3   0  11   13.20    1.07   1-0.65987-0.42805-0.16570-0.83454-0.73287-0.34686
   3   0  12    1.85    1.03   1-0.48105-0.24240 0.69508-0.01461 0.53426 0.97006
  -3   0 -12    2.14    0.70   1-0.63764-0.87326-0.30314 0.40561 0.70817 0.26996
  -3   0 -12    2.36    0.95   1-0.33215-0.57079-0.86809-0.15856-0.36889-0.80563
   3   0  12    2.13    0.88   1-0.66197-0.42381-0.14579-0.85533-0.73520-0.29796
   3   1 -13   17.49    1.85   1-0.54992-0.39489 0.56971 0.89409 0.61075-0.21130
   3   1 -13   15.97    1.62   1-0.07817 0.08032-0.99315-0.67307 0.08682-0.73519
  -3  -1  13   19.05    1.06   1-0.64438-0.79863-0.26943-0.59229-0.71566 0.10660
  -3  -1  13   12.98    2.16   1-0.11402-0.27247 0.98537 0.66522-0.12663 0.69515
   3   1 -12    8.10    1.29   1-0.51984-0.35850 0.62962 0.91324 0.57734-0.19353
   3   1 -12    7.41    1.24   1-0.07018 0.09434-0.99448-0.71495 0.07794-0.69277
  -3  -1  12    8.88    1.07   1-0.63352-0.79410-0.32185-0.60402-0.70359 0.06742
  -3  -1  12    6.04    1.32   1-0.10624-0.27070 0.98731 0.70775-0.11799 0.65253
   3   1 -11    4.06    0.83   1-0.48564-0.31798 0.68792 0.93078 0.53935-0.18035
   3   1 -11    3.74    0.99   1-0.06608 0.10446-0.99511-0.75612 0.07339-0.64603
  -3  -1  11    4.18    0.63   1-0.62052-0.78744-0.37416-0.61562-0.68916 0.03062
  -3  -1  11    2.82    0.93   1-0.10460-0.27506 0.98770 0.74873-0.11617 0.60310
   3   1 -10   20.50    1.66   1-0.44679-0.27282 0.74441 0.94650 0.49621-0.17233
   3   1 -10   18.18    1.70   1-0.06643 0.11015-0.99506-0.79662 0.07377-0.59435
  -3  -1  10   21.86    1.75   1-0.60500-0.77825-0.42717-0.62793-0.67192-0.00336
  -3  -1  10   15.16    2.39   1-0.11096-0.28742 0.98615 0.78777-0.12324 0.54479
   3   1  -9    0.33    0.56   1-0.40266-0.22238 0.79866 0.95999 0.44720-0.17017
   3   1  -9    0.26    0.53   1-0.07192 0.11068-0.99420-0.83632 0.07988-0.53695
  -3  -1   9    0.27    0.38   1-0.58622-0.76581-0.48211-0.64217-0.65107-0.03374
  -3  -1   9    0.06    0.59   1-0.12822-0.31068 0.98146 0.82367-0.14241 0.47437
   3   1  -8   49.80    2.99   1-0.35251-0.16590 0.84997 0.97053 0.39150-0.17471
   3   1  -8   46.66    2.89   1-0.08346 0.10516-0.99219-0.87485 0.09269-0.47283
  -3  -1   8   51.07    3.03   1-0.56326-0.74902-0.53981-0.65988-0.62556-0.05932
  -3  -1   8   39.82    3.28   1-0.16101-0.34947 0.97061 0.85341-0.17882 0.38670
   3   1  -7    8.25    0.73   1-0.29548-0.10256 0.89721 0.97701 0.32817-0.18688
   3   1  -7    8.95    0.72   1-0.10215 0.09250-0.98827-0.91148 0.11345-0.40078
  -3  -1   7    8.69    0.70   1-0.53248-0.72460-0.60558-0.68492-0.59137-0.07634
  -3  -1   7    6.61    0.97   1-0.21662-0.41108 0.94614 0.86953-0.24058 0.27369
   3   1  -6    0.85    0.43   1-0.12925 0.07143-0.98116-0.94492 0.14354-0.31939
  -3  -1   6    0.81    0.33   1-0.48774-0.68622-0.68460-0.72320-0.54169-0.07787
  -3  -1   6    0.86    0.34   1-0.30562-0.50608 0.88959 0.85357-0.33943 0.12359
   3   1  -5    0.33    0.50   1-0.16609 0.04061-0.96870-0.97300 0.18447-0.22717
  -3  -1   5    0.23    0.38   1 0.15392-0.05287-0.97318-0.96913-0.17095 0.24079
  -3  -1   5    0.50    0.27   1-0.41212-0.61697-0.78781-0.78569-0.45771-0.04511
  -3  -1   5    0.37    0.37   1-0.43716-0.64340 0.75706 0.76195-0.48552-0.07382
   3   1  -4   11.69    0.68   1-0.21382-0.00108-0.94756-0.99242 0.23747-0.12286
  -3  -1   4   10.72    0.69   1 0.07172-0.14101-0.99423-0.94938-0.07965 0.28068
  -3  -1   4   10.10    0.82   1-0.25752-0.46873-0.92297-0.88011-0.28601 0.07537
  -3  -1   4   10.53    0.89   1-0.58696-0.79927 0.48011 0.52552-0.65188-0.29153
   3   1  -3   25.38    1.05   1-0.27280-0.05403-0.91311-0.99852 0.30297-0.00606
  -3  -1   3   25.76    1.04   1-0.01786-0.23663-0.99964-0.91424 0.01984 0.32888
  -3  -1   3   22.51    1.23   1-0.66528-0.88285 0.10706 0.19120-0.73887-0.42895
   3   1  -3   23.14    1.33   1-0.07836 0.14010 0.99311 0.90736-0.08703-0.39631
   3   1  -2   17.68    0.88   1-0.34182-0.11703-0.85966-0.98562 0.37963 0.12188
  -3  -1   2   17.52    0.98   1-0.11295-0.33775-0.98564-0.85969 0.12545 0.38320
  -3  -1   2   16.89    0.93   1-0.65585-0.87976-0.19818-0.07334-0.72840-0.46971
   3   1  -2   16.19    1.10   1-0.44745-0.22301 0.74352 0.61708-0.49695-0.75463
   3   1  -1    0.31    0.27   1-0.41644-0.18545-0.78271-0.94875 0.46251 0.25589
  -3  -1   1    0.33    0.30   1-0.20936-0.44018-0.94979-0.78329 0.23251 0.43896
  -3  -1   1    0.62    0.23   1-0.62103-0.85127-0.37226-0.20672-0.68973-0.48227
   3   1  -1    0.33    0.21   1-0.62293-0.39242 0.36513 0.19817-0.69183-0.89818
   3   1   0   41.75    1.54   1-0.49203-0.25497-0.67769-0.88432 0.54646 0.39109
  -3  -1   0   42.50    1.61   1-0.30142-0.53826-0.89279-0.68574 0.33476 0.48991
  -3  -1   0   43.21    1.62   1-0.58783-0.82440-0.47773-0.27149-0.65285-0.49663
   3   1   0   41.38    1.90   1-0.66615-0.42958 0.09424-0.11199-0.73983-0.89605
   3   1   1   98.41    2.77   1-0.55994-0.31680-0.54748-0.79470 0.62187 0.51775
  -3  -1  -1  106.81    3.15   1-0.38346-0.62634-0.81949-0.57190 0.42588 0.52973
  -3  -1  -1  103.69    3.08   1-0.55836-0.80138-0.55107-0.30455-0.62012-0.51481
   3   1   1   97.31    3.01   1-0.66719-0.42429-0.07600-0.32294-0.74099-0.84597
   3   1   2   89.38    2.61   1-0.61339-0.36419-0.39956-0.68738 0.68124 0.62838
  -3  -1  -2   91.02    2.70   1-0.45083-0.70003-0.73895-0.45112 0.50070 0.55356
  -3  -1  -2   91.22    2.78   1-0.53160-0.78098-0.60731-0.32006-0.59040-0.53630
   3   1   2   89.25    2.78   1-0.65855-0.40931-0.17712-0.46476-0.73139-0.78514
   3   1   3   34.65    1.37   1-0.64883-0.39356-0.24442-0.57284 0.72060 0.71899
  -3  -1  -3   35.58    1.23   1-0.50394-0.75921-0.65786-0.32944 0.55968 0.56129
  -3  -1  -3   36.73    1.46   1-0.50639-0.76214-0.65364-0.32566-0.56241-0.55953
   3   1   3   34.14    1.14   1-0.65009-0.39452-0.23683-0.56517-0.72200-0.72451
   3   1   4   41.26    1.51   1-0.66576-0.40250-0.10012-0.46840 0.73941 0.78650
  -3  -1  -4   43.68    1.59   1-0.54320-0.80454-0.58392-0.21490 0.60329 0.55364
  -3  -1  -4   41.80    1.41   1-0.48204-0.74415-0.69354-0.32483-0.53536-0.58370
   3   1   4   41.36    1.43   1-0.64411-0.38221-0.27088-0.63992-0.71536-0.66664
   3   1   5   25.80    1.28   1-0.66851-0.39890 0.04274-0.36644 0.74246 0.84059
  -3  -1  -5   26.90    1.30   1-0.57109-0.83850-0.52110-0.11149 0.63426 0.53337
  -3  -1  -5   26.96    1.30   1-0.45809-0.72656-0.72891-0.31946-0.50876-0.60831
   3   1   5   25.85    1.23   1-0.64074-0.37250-0.28818-0.69792-0.71161-0.61166
   3   1   6   33.94    1.64   1-0.65906-0.38309 0.17284-0.27724 0.73196 0.88112
  -3  -1  -6   35.68    1.41   1-0.59030-0.86377-0.47088-0.02066 0.65559 0.50344
  -3  -1  -6   32.59    1.40   1-0.43422-0.70906-0.76083-0.31066-0.48225-0.63302
   3   1   6   31.46    1.27   1-0.63956-0.36499-0.29397-0.74441-0.71030-0.55912
   3   1   7    5.27    0.69   1-0.64053-0.35821 0.28923-0.20176 0.71138 0.91157
  -3  -1  -7    5.27    0.80   1-0.60312-0.88266-0.43307 0.05773 0.66984 0.46643
  -3  -1  -7    5.80    0.65   1-0.41024-0.69144-0.78999-0.29909-0.45562-0.65760
   3   1   7    4.99    0.59   1-0.64007-0.35918-0.29145-0.78259-0.71088-0.50846
   3   1   8    1.76    0.64   1-0.61544-0.32678 0.39244-0.13945 0.68352 0.93475
  -3  -1  -8    2.08    0.70   1-0.61129-0.89690-0.40667 0.12473 0.67891 0.42425
  -3  -1  -8    1.99    0.77   1-0.38600-0.67356-0.81683-0.28519-0.42869-0.68189
   3   1   8    1.83    0.54   1-0.64184-0.35461-0.28264-0.81448-0.71284-0.45918
   3   1   9    6.77    1.02   1-0.58563-0.29062 0.48371-0.08908 0.65041 0.95268
  -3  -1  -9    5.74    0.71   1-0.61603-0.90770-0.39039 0.18160 0.68417 0.37826
  -3  -1  -9    7.04    0.80   1-0.36137-0.65529-0.84162-0.26925-0.40134-0.70575
   3   1   9    7.96    0.96   1-0.64448-0.35092-0.26890-0.84144-0.71577-0.41088
   3   1  10    0.97    1.00   1-0.55117-0.25088 0.56699-0.04619 0.61214 0.96691
  -3  -1 -10    1.08    0.60   1-0.61812-0.91586-0.38295 0.22964 0.68649 0.32932
  -3  -1 -10    1.54    0.84   1-0.33627-0.63655-0.86454-0.25144-0.37346-0.72908
   3   1  10    1.50    0.78   1-0.64768-0.34779-0.25111-0.86435-0.71933-0.36321
   3   1  11    0.10    1.05   1-0.51501-0.20840 0.63842-0.01552 0.57198 0.97791
  -3  -1 -11    0.02    0.60   1-0.61804-0.92186-0.38321 0.26998 0.68641 0.27799
  -3  -1 -11   -0.09    0.61   1-0.31061-0.61726-0.88572-0.23189-0.34496-0.75180
   3   1  11    0.16    0.56   1-0.65120-0.34497-0.22991-0.88386-0.72323-0.31588
   3   1  12    2.64    1.15   1-0.47665-0.16373 0.70182 0.00710 0.52937 0.98647
  -3  -1 -12    2.20    0.69   1-0.61608-0.92596-0.39021 0.30358 0.68423 0.22455
  -3  -1 -12    3.72    0.98   1-0.28432-0.59733-0.90523-0.21066-0.31577-0.77382
   3   1  12    3.21    0.66   1-0.65481-0.34225-0.20573-0.90037-0.72724-0.26865
   3   2 -13   -0.24    0.76   1-0.54045-0.31116 0.58960 0.92896 0.60023-0.20051
   3   2 -13    0.32    1.04   1-0.06252 0.17025-0.99562-0.66064 0.06943-0.73114
   3   2 -12   -0.30    1.01   1-0.51115-0.27554 0.64532 0.94392 0.56769-0.18188
   3   2 -12    0.77    0.97   1-0.05522 0.18358-0.99658-0.70215 0.06133-0.68795
  -3  -2  12    0.59    0.50   1-0.66210-0.89708-0.14456-0.44162-0.73533 0.01434
  -3  -2  12    0.41    0.83   1-0.10381-0.34255 0.98789 0.69363-0.11529 0.63365
   3   2 -11    2.56    1.00   1-0.47829-0.23636 0.69933 0.95716 0.53119-0.16721
   3   2 -11    2.98    0.94   1-0.05162 0.19320-0.99701-0.74313 0.05733-0.64064
  -3  -2  11    3.32    0.69   1-0.65831-0.89963-0.17907-0.43542-0.73113-0.03268
  -3  -2  11    2.38    0.91   1-0.10358-0.34832 0.98794 0.73428-0.11504 0.58266
   3   2 -10    6.08    0.88   1-0.44148-0.19324 0.75145 0.96851 0.49031-0.15692
   3   2 -10    5.20    0.94   1-0.05225 0.19860-0.99694-0.78360 0.05803-0.58865
  -3  -2  10    4.38    0.53   1-0.65441-0.90206-0.20853-0.42419-0.72680-0.07959
  -3  -2  10    3.87    1.20   1-0.11368-0.36442 0.98546 0.77239-0.12625 0.52019
   3   2  -9    1.50    0.62   1-0.40027-0.14571 0.80134 0.97765 0.44454-0.15153
   3   2  -9    1.16    0.76   1-0.05774 0.19913-0.99626-0.82347 0.06413-0.53125
  -3  -2   9    0.72    0.37   1-0.65103-0.90501-0.23101-0.40596-0.72304-0.12706
  -3  -2   9    1.00    0.50   1-0.13914-0.39589 0.97813 0.80565-0.15454 0.44066
  -3  -2   8   57.57    4.19   1-0.18941-0.45216 0.95909 0.82720-0.21037 0.33358
   3   2  -7    4.77    0.66   1-0.30240-0.03521 0.89205 0.98682 0.33585-0.15789
   3   2  -7    4.67    0.60   1-0.08682 0.18211-0.99154-0.89985 0.09642-0.39636
  -3  -2   7    3.05    0.41   1-0.65112-0.91776-0.23043-0.32399-0.72314-0.22963
  -3  -2   7    4.38    0.77   1-0.28358-0.55233 0.90575 0.81445-0.31494 0.17775
   3   2  -6   26.41    1.39   1-0.24453 0.02897 0.93083 0.98484 0.27157-0.17100
   3   2  -6   26.17    1.32   1-0.11257 0.16238-0.98574-0.93459 0.12502-0.31647
  -3  -2   6   23.55    1.21   1-0.66158-0.93457-0.14970-0.20255-0.73477-0.29248
   3   2  -5   52.54    1.93   1-0.14743 0.13355-0.97542-0.96482 0.16374-0.22645
  -3  -2   5   52.70    2.36   1 0.17660-0.10442-0.96454-0.97540-0.19613 0.19410
   3   2  -4   58.36    1.50   1-0.19256 0.09445-0.95769-0.98764 0.21386-0.12503
  -3  -2   4   59.91    1.78   1 0.10514-0.18187-0.98757-0.95788-0.11677 0.22220
   3   2  -3   70.71    1.69   1-0.24855 0.04448-0.92844-0.99894 0.27605-0.01155
  -3  -2   3   74.05    1.92   1 0.02667-0.26636-0.99920-0.92870-0.02962 0.25797
   3   2  -2   17.70    0.85   1-0.31484-0.01578-0.88238-0.99342 0.34967 0.11336
  -3  -2   2   19.20    0.98   1-0.05670-0.35576-0.99640-0.88535 0.06297 0.29927
  -3  -2   2   18.70    1.05   1-0.36781-0.66611-0.83537-0.72602-0.40849-0.17084
   3   2  -2   15.56    1.03   1-0.57215-0.27338 0.51849 0.40684-0.63544-0.87162
   3   2  -1  132.15    3.64   1-0.38881-0.08372-0.81384-0.96543 0.43182 0.24682
  -3  -2   1  133.59    3.59   1-0.14288-0.44797-0.97693-0.82534 0.15868 0.34369
   3   2  -1  131.40    3.63   1-0.66775-0.36311 0.06414-0.08650-0.74161-0.92772
   3   2   0    2.79    0.45   1-0.46459-0.15326-0.71966-0.91133 0.51598 0.38207
  -3  -2   0    3.64    0.55   1-0.22809-0.53921-0.94010-0.74796 0.25332 0.38703
  -3  -2   0    1.74    0.56   1-0.43327-0.74430-0.76204-0.57122-0.48120-0.34598
   3   2   0    2.78    0.39   1-0.66046-0.34949-0.16043-0.35178-0.73351-0.86839
   3   2   1   33.94    1.34   1-0.53653-0.21914-0.59753-0.82980 0.59588 0.51322
  -3  -2  -1   37.22    1.48   1-0.30790-0.62504-0.88784-0.65515 0.34195 0.42437
   3   2   1   33.80    1.47   1-0.64347-0.32617-0.27426-0.50631-0.71464-0.79828
   3   2   2   16.44    0.82   1-0.59643-0.27297-0.45330-0.72616 0.66240 0.63100
  -3  -2  -2   16.93    0.97   1-0.37832-0.70149-0.82481-0.55158 0.42017 0.45128
  -3  -2  -2   14.88    1.03   1-0.42205-0.74580-0.77598-0.50370-0.46873-0.43595
   3   2   2   16.50    0.91   1-0.63054-0.30690-0.33467-0.60742-0.70028-0.73269
   3   2   3    1.55    0.38   1-0.63907-0.30955-0.29631-0.60978 0.70976 0.72961
  -3  -2  -3    1.48    0.50   1-0.43614-0.76566-0.75838-0.44492 0.48438 0.46453
  -3  -2  -3    1.50    0.49   1-0.40998-0.74009-0.79031-0.47729-0.45533-0.47375
   3   2   3    1.51    0.38   1-0.62268-0.29271-0.36607-0.67952-0.69155-0.67273
   3   2   4    4.53    0.53   1-0.66200-0.32450-0.14556-0.49875 0.73523 0.80370
  -3  -2  -4    4.40    0.52   1-0.48245-0.81805-0.69291-0.33885 0.53582 0.46472
  -3  -2  -4    4.61    0.64   1-0.39558-0.73206-0.80652-0.45278-0.43934-0.50898
   3   2   4    4.40    0.51   1-0.61892-0.28262-0.38004-0.73419-0.68738-0.61732
   3   2   5    3.84    0.66   1-0.66911-0.32526 0.00672-0.38737 0.74312 0.86263
  -3  -2  -5    3.86    0.65   1-0.51746-0.85912-0.63399-0.23933 0.57470 0.45234
  -3  -2  -5    3.95    0.80   1-0.37946-0.72230-0.82364-0.42917-0.42144-0.54229
   3   2   5    3.35    0.50   1-0.61820-0.27557-0.38265-0.77750-0.68658-0.56528
   3   2   6    8.83    0.73   1-0.66183-0.31163 0.14725-0.28774 0.73504 0.90558
  -3  -2  -6    8.45    0.80   1-0.54297-0.89070-0.58441-0.14915 0.60303 0.42941
  -3  -2  -6   10.15    0.86   1-0.36194-0.71114-0.84107-0.40586-0.40198-0.57405
   3   2   6    9.21    0.69   1-0.61966-0.27069-0.37735-0.81289-0.68820-0.51567
   3   2   7    1.29    0.69   1-0.64357-0.28702 0.27371-0.20218 0.71476 0.93634
  -3  -2  -7    0.89    0.48   1-0.56091-0.91471-0.54524-0.06939 0.62296 0.39809
  -3  -2  -7    1.24    0.81   1-0.34322-0.69879-0.85842-0.38248-0.38119-0.60447
   3   2   7    1.03    0.49   1-0.62264-0.26735-0.36620-0.84245-0.69152-0.46775
   3   2   8   11.90    1.00   1-0.61730-0.25439 0.38589-0.13091 0.68558 0.95819
  -3  -2  -8   10.45    0.92   1-0.57299-0.93285-0.51644 0.00000 0.63637 0.36025
  -3  -2  -8   13.68    1.01   1-0.32343-0.68535-0.87542-0.35875-0.35920-0.63370
   3   2   8   12.09    1.00   1-0.62667-0.26504-0.35052-0.86747-0.69599-0.42099
   3   2   9    9.55    1.07   1-0.58526-0.21601 0.48471-0.07299 0.65000 0.97365
  -3  -2  -9    7.62    0.94   1-0.58049-0.94643-0.49736 0.05968 0.64471 0.31733
  -3  -2  -9    8.79    0.88   1-0.30262-0.67091-0.89188-0.33448-0.33609-0.66181
   3   2   9    8.06    0.93   1-0.63137-0.26341-0.33117-0.88882-0.70120-0.37497
   3   2  10    5.11    1.07   1-0.54789-0.17333 0.57406-0.02415 0.60849 0.98456
  -3  -2 -10    4.67    0.88   1-0.58438-0.95638-0.48710 0.11053 0.64902 0.27039
  -3  -2 -10    5.67    1.07   1-0.28085-0.65550-0.90764-0.30951-0.31191-0.68884
   3   2  10    5.67    0.78   1-0.63644-0.26215-0.30872-0.90707-0.70684-0.32937
   3   2  11    9.27    1.39   1-0.50831-0.12744 0.65031 0.01133 0.56454 0.99178
  -3  -2 -11    7.96    1.06   1-0.58525-0.96332-0.48475 0.15348 0.64999 0.22011
  -3  -2 -11    8.67    1.05   1-0.25813-0.63915-0.92259-0.28372-0.28668-0.71483
   3   2  11    9.42    1.01   1-0.64166-0.26103-0.28357-0.92262-0.71263-0.28393
   3   2  12    4.10    1.01   1-0.46619-0.07900 0.71734 0.03760 0.51776 0.99616
  -3  -2 -12    3.31    0.93   1-0.58348-0.96762-0.48949 0.18934 0.64802 0.16689
   3   2  12    4.30    0.88   1-0.64683-0.25987-0.25598-0.93573-0.71838-0.23844
   3   3 -13   17.62    1.15   1-0.53494-0.23139 0.60070 0.95504 0.59412-0.18532
   3   3 -13   16.38    1.33   1-0.05384 0.25320-0.99675-0.64686 0.05979-0.71933
   3   3 -12   12.57    1.56   1-0.50689-0.19701 0.65278 0.96636 0.56296-0.16531
   3   3 -12   11.31    1.33   1-0.04740 0.26566-0.99748-0.68814 0.05265-0.67518
   3   3 -11   30.70    1.54   1-0.47580-0.15961 0.70311 0.97591 0.52843-0.14867
   3   3 -11   31.09    1.36   1-0.04455 0.27454-0.99778-0.72898 0.04948-0.62705
  -3  -3  11   16.62    3.27   1-0.11899-0.43802 0.98405 0.71570-0.13215 0.54396
   3   3 -10   15.54    1.19   1-0.44141-0.11890 0.75154 0.98358 0.49024-0.13570
   3   3 -10   13.64    1.07   1-0.04576 0.27936-0.99765-0.76941 0.05082-0.57441
  -3  -3  10    8.90    0.89   1-0.66476-0.98681 0.11407-0.11647-0.73829-0.11242
  -3  -3  10    8.91    1.61   1-0.13871-0.46374 0.97827 0.75051-0.15405 0.47082
   3   3  -9    9.97    1.01   1-0.40339-0.07457 0.79784 0.98912 0.44801-0.12676
   3   3  -9    9.23    1.05   1-0.05163 0.27951-0.99701-0.80932 0.05735-0.51659
  -3  -3   9    6.31    0.93   1-0.65902-0.98741 0.17310-0.01674-0.73192-0.15729
  -3  -3   9    6.22    1.35   1-0.18649-0.51752 0.96037 0.77320-0.20712 0.36650
   3   3  -8   25.06    1.45   1-0.36136-0.02622 0.84163 0.99214 0.40133-0.12227
   3   3  -8   24.49    1.39   1-0.06294 0.27424-0.99556-0.84841 0.06990-0.45274
   3   3  -7    0.31    0.54   1-0.31490 0.02654 0.88233 0.99208 0.34973-0.12270
   3   3  -7    0.52    0.47   1-0.08058 0.26262-0.99272-0.88612 0.08949-0.38185
   3   3  -6   87.09    2.66   1-0.26359 0.08417 0.91913 0.98812 0.29274-0.12853
   3   3  -6   84.10    2.43   1-0.10562 0.24361-0.98746-0.92141 0.11730-0.30274
   3   3  -5   15.14    0.87   1-0.13921 0.21604-0.97811-0.95261 0.15461-0.21413
  -3  -3   5   14.44    0.90   1 0.20393-0.15131-0.95242-0.97820-0.22649 0.14223
   3   3  -4    1.82    0.54   1-0.18244 0.17884-0.96211-0.97715 0.20262-0.11483
  -3  -3   4    1.74    0.47   1 0.14192-0.21932-0.97724-0.96246-0.15762 0.15984
   3   3  -3    1.06    0.48   1-0.23599 0.13132-0.93574-0.99133 0.26209-0.00406
  -3  -3   3    0.87    0.41   1 0.07418-0.29313-0.99383-0.93824-0.08238 0.18377
   3   3  -2    8.31    0.58   1-0.29962 0.07372-0.89414-0.99028 0.33276 0.11789
  -3  -3   2    8.98    0.73   1 0.00205-0.37128-0.99999-0.90385-0.00228 0.21258
   3   3  -2    8.77    0.64   1-0.66625-0.29354 0.09266-0.00239-0.73994-0.95594
   3   3  -2    9.48    1.15   1-0.00300 0.37003 0.99998 0.90302-0.00333-0.21820
   3   3  -1   17.79    0.86   1-0.37141 0.00794-0.83180-0.96848 0.41250 0.24893
  -3  -3   1   18.19    0.91   1-0.07340-0.45277-0.99396-0.85727 0.08152 0.24509
   3   3  -1   17.48    0.91   1-0.64942-0.27039-0.24087-0.37663-0.72126-0.88602
   3   3   0   10.05    0.64   1-0.44644-0.06086-0.74487-0.92158 0.49583 0.38338
  -3  -3   0   10.79    0.68   1-0.14989-0.53528-0.97458-0.79735 0.16647 0.27874
  -3  -3   0   10.71    0.81   1-0.25595-0.64134-0.92395-0.74810-0.28426-0.17035
   3   3   0   10.76    0.66   1-0.62204-0.23667-0.36848-0.54493-0.69085-0.80437
   3   3   1    0.46    0.39   1-0.51992-0.12827-0.62947-0.84678 0.57743 0.51624
  -3  -3  -1    0.37    0.47   1-0.22433-0.61575-0.94212-0.72434 0.24914 0.31011
  -3  -3  -1    0.39    0.57   1-0.28918-0.68094-0.90178-0.68520-0.32117-0.25847
   3   3   1    0.07    0.39   1-0.60487-0.21317-0.42758-0.64473-0.67178-0.73407
   3   3   2   30.74    1.45   1-0.58360-0.18589-0.48917-0.74707 0.64816 0.63822
  -3  -3  -2   30.10    1.49   1-0.29342-0.69086-0.89872-0.64039 0.32587 0.33555
  -3  -3  -2   27.39    1.51   1-0.30340-0.70151-0.89129-0.63398-0.33695-0.32547
   3   3   2   30.12    1.37   1-0.59584-0.19781-0.45501-0.71287-0.66175-0.67281
   3   3   3   37.31    1.67   1-0.63125-0.22747-0.33166-0.63016 0.70108 0.74239
  -3  -3  -3   36.77    1.54   1-0.35437-0.75784-0.84824-0.54936 0.39357 0.35194
  -3  -3  -3   29.94    1.62   1-0.30713-0.71161-0.88843-0.59038-0.34110-0.38084
   3   3   3   36.76    1.55   1-0.59237-0.18801-0.46503-0.76358-0.65790-0.61772
   3   3   4   46.29    1.79   1-0.65868-0.24693-0.17601-0.51411 0.73154 0.82140
  -3  -3  -4   43.85    1.54   1-0.40472-0.81457-0.79633-0.45724 0.44949 0.35692
  -3  -3  -4   41.63    1.77   1-0.30435-0.71520-0.89056-0.55179-0.33802-0.42896
   3   3   4   44.83    1.58   1-0.59264-0.18195-0.46426-0.80351-0.65820-0.56679
   3   3   5   24.67    1.36   1-0.66904-0.25095-0.01552-0.39452 0.74305 0.88395
  -3  -3  -5   22.10    1.15   1-0.44582-0.86174-0.74570-0.36600 0.49514 0.35132
  -3  -3  -5   24.03    1.42   1-0.29714-0.71435-0.89599-0.51648-0.33001-0.47217
   3   3   5   23.24    1.20   1-0.59544-0.17841-0.45619-0.83615-0.66130-0.51866
   3   3   6   22.13    1.55   1-0.66303-0.23858 0.13471-0.28519 0.73637 0.92830
  -3  -3  -6   19.91    1.48   1-0.47749-0.89948-0.70054-0.28025 0.53031 0.33523
  -3  -3  -6   25.43    1.89   1-0.28669-0.71026-0.90356-0.48332-0.31840-0.51178
   3   3   6   21.56    1.48   1-0.59994-0.17657-0.44284-0.86350-0.66630-0.47242
   3   3   7    9.53    1.03   1-0.64412-0.21332 0.27084-0.18996 0.71536 0.95833
  -3  -3  -7    9.13    0.79   1-0.50094-0.92900-0.66295-0.20207 0.55635 0.31003
  -3  -3  -7   10.98    1.17   1-0.27374-0.70367-0.91249-0.45152-0.30401-0.54860
   3   3   7   10.26    0.94   1-0.60556-0.17586-0.42542-0.88677-0.67254-0.42743
   3   3   8    5.14    0.72   1-0.61566-0.17851 0.39168-0.11002 0.68376 0.97776
  -3  -3  -8    4.26    0.75   1-0.51752-0.95165-0.63388-0.13239 0.57477 0.27719
  -3  -3  -8    5.12    0.80   1-0.25874-0.69504-0.92220-0.42050-0.28736-0.58317
   3   3   8    5.02    0.63   1-0.61188-0.17585-0.40470-0.90676-0.67956-0.38321
   3   3   9    5.29    1.06   1-0.58034-0.13684 0.49776-0.04485 0.64454 0.98957
  -3  -3  -9    4.01    0.67   1-0.52843-0.96862-0.61344-0.07136 0.58688 0.23805
  -3  -3  -9    4.84    0.86   1-0.24202-0.68467-0.93229-0.38986-0.26879-0.61580
   3   3   9    5.35    0.75   1-0.61860-0.17624-0.38120-0.92396-0.68702-0.33944
   3   3  10    1.19    0.69   1-0.53890-0.09007 0.59276 0.00952 0.59851 0.99588
  -3  -3 -10    1.10    0.54   1-0.53462-0.98088-0.60134-0.01866 0.59376 0.19367
   3   3  10    1.75    0.80   1-0.62547-0.17678-0.35527-0.93873-0.69466-0.29584
   3   3  11    1.19    0.77   1-0.49473-0.03958 0.67330 0.04929 0.54945 0.99799
  -3  -3 -11    1.20    0.59   1-0.53678-0.98911-0.59704 0.02623 0.59615 0.14481
   3   3  11    1.77    0.73   1-0.63231-0.17728-0.32713-0.95129-0.70225-0.25220
   3   4 -12    3.84    1.15   1-0.50655-0.12241 0.65337 0.98192 0.56258-0.14438
   3   4 -12    4.29    0.80   1-0.04573 0.34161-0.99766-0.67341 0.05079-0.65560
   3   4 -11   -0.19    1.01   1-0.47753-0.08707 0.70048 0.98827 0.53035-0.12545
   3   4 -11    0.36    0.66   1-0.04380 0.34957-0.99785-0.71415 0.04864-0.60644
   3   4 -10    0.70    0.69   1-0.44578-0.04901 0.74575 0.99277 0.49509-0.10954
   3   4 -10    1.22    0.65   1-0.04582 0.35358-0.99765-0.75450 0.05089-0.55290
   3   4  -9    2.10    0.70   1-0.41110-0.00801 0.78900 0.99526 0.45657-0.09689
   3   4  -9    1.87    0.83   1-0.05236 0.35306-0.99693-0.79433 0.05815-0.49434
   3   4  -8    8.24    0.87   1-0.37322 0.03617 0.82999 0.99548 0.41451-0.08779
   3   4  -8    8.08    0.93   1-0.06411 0.34733-0.99539-0.83334 0.07121-0.42999
   3   4  -7    0.73    0.82   1-0.33188 0.08383 0.86832 0.99305 0.36859-0.08254
   3   4  -7    0.72    0.50   1-0.08193 0.33555-0.99247-0.87096 0.09099-0.35891
   3   4  -6  110.01    4.20   1-0.28679 0.13524 0.90349 0.98745 0.31851-0.08146
   3   4  -6  101.76    3.56   1-0.10676 0.31674-0.98718-0.90622 0.11857-0.28003
   3   4  -5    0.84    0.43   1-0.13965 0.28987-0.97797-0.93756 0.15510-0.19220
   3   4  -4   19.07    1.06   1-0.18160 0.25396-0.96246-0.96260 0.20168-0.09432
  -3  -4   4   19.01    1.17   1 0.18155-0.25391-0.96248-0.96261-0.20164 0.09430
   3   4  -3   66.38    2.54   1-0.23326 0.20832-0.93726-0.97795 0.25906 0.01434
  -3  -4   3   70.19    2.74   1 0.12405-0.31741-0.98266-0.94224-0.13777 0.10691
   3   4  -2   32.53    1.38   1-0.29455 0.15305-0.89789-0.97912 0.32713 0.13372
  -3  -4   2   33.85    1.65   1 0.06235-0.38526-0.99564-0.91441-0.06925 0.12416
   3   4  -2   32.17    1.45   1-0.63625-0.18914-0.30961-0.38977-0.70662-0.90127
   3   4  -2   36.60    1.88   1-0.18505 0.26227 0.96099 0.87872-0.20552-0.39881
   3   4  -1   60.98    2.18   1-0.36402 0.08961-0.83907-0.96085 0.40428 0.26216
  -3  -4   1   62.42    2.52   1-0.00224-0.45588-0.99999-0.87821 0.00248 0.14461
   3   4  -1   61.38    2.28   1-0.59601-0.14258-0.45452-0.57538-0.66194-0.80535
   3   4  -1   66.71    2.83   1 0.00833 0.46166 0.99992 0.87706 0.00926-0.13277
   3   4   0   13.48    0.84   1-0.43742 0.02241-0.75673-0.91848 0.48580 0.39482
  -3  -4   0   13.91    0.91   1-0.06872-0.52839-0.99471-0.83238 0.07632 0.16715
   3   4   0   14.53    1.01   1-0.57515-0.11539-0.51103-0.67259-0.63877-0.73095
   3   4   1   55.22    2.18   1-0.51077-0.04486-0.64600-0.84834 0.56726 0.52753
  -3  -4  -1   53.17    2.04   1-0.13519-0.60089-0.97937-0.77649 0.15015 0.18968
   3   4   1   55.00    2.08   1-0.56549-0.09936-0.53458-0.73619-0.62804-0.66943
   3   4   2    0.38    0.47   1-0.57609-0.10412-0.50866-0.75160 0.63982 0.65134
  -3  -4  -2    0.53    0.37   1-0.19931-0.67103-0.95460-0.71117 0.22136 0.20959
   3   4   2    0.38    0.38   1-0.56285-0.09037-0.54075-0.78310-0.62511-0.61529
   3   4   3   16.95    1.03   1-0.62663-0.14858-0.35070-0.63424 0.69594 0.75871
  -3  -4  -3   16.35    0.88   1-0.25867-0.73642-0.92225-0.63827 0.28729 0.22422
   3   4   3   17.06    0.95   1-0.56449-0.08564-0.53694-0.82002-0.62693-0.56589
   3   4   4    4.59    0.61   1-0.65684-0.17085-0.19075-0.51376 0.72949 0.84074
  -3  -4  -4    4.66    0.53   1-0.31128-0.79505-0.88520-0.56068 0.34571 0.23134
   3   4   4    4.48    0.58   1-0.56886-0.08364-0.52653-0.85034-0.63178-0.51953
   3   4   5    0.17    0.39   1-0.66895-0.17662-0.02254-0.38645 0.74295 0.90523
  -3  -4  -5   -0.03    0.38   1-0.35589-0.84569-0.84682-0.48175 0.39526 0.22959
   3   4   5    0.12    0.66   1-0.57515-0.08372-0.51104-0.87611-0.63877-0.47477
   3   4   6    1.62    0.50   1-0.66280-0.16411 0.13716-0.26764 0.73612 0.94943
  -3  -4  -6    1.24    0.58   1-0.39213-0.88796-0.81028-0.40466 0.43551 0.21855
   3   4   6    1.32    0.72   1-0.58242-0.08466-0.49230-0.89807-0.64684-0.43162
   3   4   7    0.99    0.55   1-0.64179-0.13675 0.28291-0.16280 0.71278 0.97713
  -3  -4  -7    1.16    0.47   1-0.41951-0.92183-0.77905-0.33312 0.46592 0.19813
   3   4   7    1.32    0.53   1-0.59039-0.08630-0.47061-0.91708-0.65570-0.38924
   3   4   8    2.73    0.98   1-0.60958-0.09818 0.41239-0.07422 0.67700 0.99239
  -3  -4  -8    1.86    0.50   1-0.44036-0.94875-0.75291-0.26638 0.48907 0.17003
   3   4   8    2.64    0.59   1-0.59875-0.08832-0.44642-0.93358-0.66498-0.34728
   3   4   9    0.58    0.63   1-0.56829-0.05151 0.52789 0.00040 0.63115 0.99867
  -3  -4  -9    0.38    0.49   1-0.45467-0.96912-0.73367-0.20655 0.50496 0.13467
   3   4   9    0.33    0.77   1-0.60724-0.09048-0.42002-0.94788-0.67441-0.30548
   3   4  10    3.38    0.80   1-0.52193 0.00116 0.62576 0.05749 0.57966 0.99834
  -3  -4 -10    2.56    0.61   1-0.46318-0.98370-0.72168-0.15396 0.51441 0.09286
   3   4  10    3.14    0.63   1-0.61568-0.09260-0.39160-0.96016-0.68379-0.26363
   3   5 -12    2.84    1.18   1-0.50965-0.05124 0.64797 0.99149 0.56602-0.11964
   3   5 -12    3.51    1.04   1-0.04942 0.41219-0.99726-0.65811 0.05489-0.63006
   3   5 -11   26.30    2.73   1-0.48288-0.01816 0.69224 0.99500 0.53630-0.09819
   3   5 -11   23.53    2.51   1-0.04855 0.41909-0.99736-0.69875 0.05392-0.57973
   3   5 -10   16.49    1.63   1-0.45392 0.01711 0.73471 0.99671 0.50413-0.07920
   3   5 -10   15.76    1.61   1-0.05155 0.42212-0.99702-0.73897 0.05725-0.52510
   3   5  -9   37.06    2.16   1-0.42262 0.05473 0.77529 0.99652 0.46937-0.06279
   3   5  -9   36.42    1.96   1-0.05896 0.42073-0.99611-0.77860 0.06548-0.46557
   3   5  -8   19.98    1.60   1-0.38885 0.09482 0.81381 0.99427 0.43186-0.04914
   3   5  -8   18.40    1.30   1-0.07143 0.41429-0.99428-0.81732 0.07933-0.40042
   3   5  -7   15.01    1.11   1-0.35243 0.13755 0.85004 0.98974 0.39142-0.03841
   3   5  -7   14.20    0.99   1-0.08973 0.40202-0.99096-0.85455 0.09965-0.32880
   3   5  -6   17.52    1.22   1-0.31322 0.18308 0.88367 0.98261 0.34786-0.03080
   3   5  -6   17.27    1.12   1-0.11473 0.38304-0.98518-0.88932 0.12742-0.24974
   3   5  -5    0.98    0.54   1-0.27105 0.23157 0.91428 0.97245 0.30103-0.02647
   3   5  -5    1.13    0.46   1-0.14736 0.35644-0.97544-0.92013 0.16366-0.16220
   3   5  -4   97.18    3.30   1-0.18851 0.32131-0.95949-0.94472 0.20936-0.06520
   3   5  -3   13.59    0.86   1-0.23879 0.27706-0.93415-0.95993 0.26520 0.04193
  -3  -5   3   13.18    0.98   1 0.17494-0.34075-0.96521-0.93970-0.19429 0.02888
   3   5  -3   13.73    1.09   1-0.62737-0.11219-0.34772-0.37230-0.69676-0.92130
   3   5  -2    1.22    0.40   1-0.29815 0.22373-0.89524-0.96156 0.33113 0.15915
  -3  -5   2    0.76    0.65   1 0.12364-0.39804-0.98277-0.91671-0.13732 0.03458
   3   5  -2    1.02    0.32   1-0.56952-0.04802-0.52493-0.59020-0.63252-0.80582
   3   5  -2    1.23    0.46   1-0.27660 0.24500 0.91055 0.84298-0.30720-0.47891
   3   5  -1    0.85    0.38   1-0.36539 0.16251-0.83773-0.94460 0.40581 0.28513
  -3  -5   1    0.78    0.45   1 0.06955-0.45835-0.99458-0.88770-0.07725 0.04342
   3   5  -1    0.79    0.48   1-0.54475-0.01699-0.58068-0.68586-0.60501-0.72752
   3   5  -1    1.01    0.52   1-0.11621 0.41139 0.98480 0.87663-0.12906-0.24952
   3   5   0    3.73    0.57   1-0.43679 0.09730-0.75754-0.90433 0.48511 0.41558
  -3  -5   0    3.91    0.55   1 0.01379-0.52014-0.99978-0.85236-0.01532 0.05406
   3   5   0    3.61    0.50   1-0.53510-0.00097-0.60040-0.74631-0.59429-0.66558
   3   5   0    4.00    0.49   1-0.01556 0.51804 0.99972 0.85097-0.01729-0.08649
   3   5   1    6.60    0.66   1-0.50897 0.03119-0.64916-0.83655 0.56526 0.54699
  -3  -5  -1    6.37    0.62   1-0.04280-0.58277-0.99795-0.80998 0.04754 0.06562
   3   5   1    6.33    0.61   1-0.53337 0.00711-0.60382-0.79047-0.59237-0.61245
   3   5   2    6.49    0.68   1-0.57434-0.02811-0.51307-0.74105 0.63787 0.67085
  -3  -5  -2    5.90    0.61   1-0.09879-0.64478-0.98904-0.76052 0.10972 0.07651
   3   5   2    5.94    0.62   1-0.53631 0.01054-0.59798-0.82536-0.59563-0.56450
   3   5   3    0.28    0.53   1-0.62588-0.07358-0.35367-0.62225 0.69511 0.77934
  -3  -5  -3    0.35    0.41   1-0.15246-0.70449-0.97369-0.70462 0.16933 0.08482
   3   5   3    0.20    0.63   1-0.54214 0.01107-0.58612-0.85423-0.60210-0.51976
   3   5   4   13.34    1.18   1-0.65707-0.09684-0.18898-0.49690 0.72975 0.86238
  -3  -5  -4   12.94    0.99   1-0.20209-0.76013-0.95330-0.64368 0.22444 0.08863
   3   5   4   13.37    1.06   1-0.54979 0.00978-0.56998-0.87882-0.61061-0.47705
   3   5   5   11.84    1.13   1-0.66907-0.10249-0.01259-0.36141 0.74308 0.92675
  -3  -5  -5   10.64    0.93   1-0.24617-0.81024-0.92986-0.57970 0.27340 0.08629
   3   5   5   10.87    0.92   1-0.55860 0.00734-0.55053-0.90010-0.62038-0.43561
   3   5   6   13.48    1.25   1-0.66081-0.08788 0.15718-0.23253 0.73390 0.96860
  -3  -5  -6   12.80    1.26   1-0.28366-0.85376-0.90569-0.51498 0.31504 0.07664
   3   5   6   13.85    1.18   1-0.56809 0.00421-0.52839-0.91869-0.63093-0.39493
   3   5   7   16.09    1.49   1-0.63546-0.05618 0.31320-0.11742 0.70575 0.99149
  -3  -5  -7   13.84    1.29   1-0.31405-0.89018-0.88301-0.45175 0.34879 0.05909
   3   5   7   15.04    1.53   1-0.57809 0.00039-0.50358-0.93515-0.64203-0.35423
   3   5   8    8.99    0.86   1-0.59693-0.01130 0.45181-0.01971 0.66296 0.99974
  -3  -5  -8    7.92    0.90   1-0.33724-0.91939-0.86370-0.39189 0.37454 0.03354
   3   5   8    9.43    0.77   1-0.58805-0.00323-0.47712-0.94939-0.65310-0.31406
   3   5   9    1.46    0.96   1-0.54773 0.04330 0.57438 0.06186 0.60832 0.99714
  -3  -5  -9    0.77    0.61   1-0.35339-0.94157-0.84915-0.33680 0.39248 0.00018
   3   5   9    1.64    0.59   1-0.59796-0.00680-0.44878-0.96175-0.66410-0.27383
   3   6 -11    1.26    0.83   1-0.49133 0.04766 0.67884 0.99657 0.54567-0.06751
   3   6 -11    0.58    0.95   1-0.05815 0.48376-0.99621-0.68270 0.06459-0.54761
   3   6 -10    4.81    1.05   1-0.46520 0.08010 0.71878 0.99575 0.51666-0.04537
   3   6 -10    4.96    0.99   1-0.06227 0.48567-0.99566-0.72269 0.06915-0.49175
   3   6  -9    0.77    1.02   1-0.43728 0.11433 0.75691 0.99312 0.48565-0.02521
   3   6  -9    0.75    0.60   1-0.07071 0.48326-0.99440-0.76198 0.07853-0.43108
   3   6  -8    0.93    0.70   1-0.40751 0.15042 0.79315 0.98859 0.45259-0.00710
   3   6  -8    1.07    0.58   1-0.08408 0.47591-0.99207-0.80020 0.09338-0.36493
   3   6  -7    0.98    0.90   1-0.37582 0.18843 0.82736 0.98204 0.41739 0.00886
   3   6  -7    0.59    0.55   1-0.10310 0.46292-0.98805-0.83674 0.11450-0.29251
   3   6  -6    8.76    1.05   1-0.34214 0.22842 0.85938 0.97329 0.37999 0.02262
   3   6  -6    9.49    0.80   1-0.12854 0.44350-0.98137-0.87060 0.14276-0.21295
   3   6  -5    0.87    0.57   1-0.30643 0.27045 0.88897 0.96212 0.34032 0.03412
   3   6  -5    0.73    0.49   1-0.16125 0.41682-0.97052-0.90030 0.17909-0.12533
   3   6  -3    0.75    0.43   1-0.25130 0.33883-0.92679-0.93766 0.27910 0.07727
   3   6  -3    0.67    0.44   1-0.54914 0.04027-0.57138-0.58013-0.60988-0.81352
   3   6  -2   10.74    0.88   1-0.30911 0.28704-0.88689-0.93831 0.34330 0.19277
  -3  -6   2   10.87    1.01   1 0.18482-0.41108-0.96109-0.90994-0.20527-0.05487
   3   6  -2    9.90    1.21   1-0.51938 0.07639-0.63048-0.67996-0.57683-0.72925
   3   6  -2   12.68    1.09   1-0.33673 0.25915 0.86414 0.81126-0.37397-0.52411
   3   6  -1   52.99    3.12   1-0.37436 0.22782-0.82884-0.92081 0.41577 0.31653
  -3  -6   1   52.25    3.15   1 0.14133-0.46058-0.97744-0.88573-0.15696-0.05782
   3   6  -1   48.61    3.15   1-0.50862 0.09350-0.64976-0.73998-0.56489-0.66609
   3   6  -1   59.56    3.51   1-0.20620 0.39568 0.95133 0.85785-0.22901-0.32789
   3   6   0   15.20    1.11   1-0.44364 0.16470-0.74860-0.88042 0.49272 0.44465
  -3  -6   0   13.97    1.15   1 0.09649-0.51142-0.98954-0.85728-0.10716-0.05929
   3   6   0   13.11    1.12   1-0.50707 0.10142-0.65248-0.78342-0.56315-0.61315
   3   6   0   14.76    1.21   1-0.11306 0.49483 0.98562 0.85155-0.12557-0.17319
   3   6   1   36.83    1.90   1-0.51403 0.10038-0.64019-0.81262 0.57089 0.57408
  -3  -6  -1   34.13    1.98   1 0.05088-0.56335-0.99710-0.82404-0.05650-0.05986
   3   6   1   32.04    1.78   1-0.51068 0.10417-0.64615-0.81783-0.56717-0.56595
   3   6   1   30.92    1.55   1-0.04770 0.56618 0.99745 0.82279-0.05298-0.04936
   3   6   2    9.78    0.81   1-0.57827 0.04221-0.50311-0.71613 0.64224 0.69668
  -3  -6  -2    7.62    1.09   1 0.00548-0.61478-0.99996-0.78635-0.00609-0.06074
   3   6   2    7.62    1.06   1-0.51743 0.10379-0.63405-0.84646-0.57466-0.52222
   3   6   2    6.96    0.92   1-0.00229 0.61760 0.99999 0.78474-0.00254 0.05232
   3   6   3   17.45    1.11   1-0.62917-0.00262-0.34036-0.59398 0.69877 0.80447
  -3  -6  -3   16.28    1.17   1-0.03873-0.66502-0.99832-0.74416 0.04301-0.06293
   3   6   3   14.90    0.99   1-0.52612 0.10146-0.61787-0.87101-0.58431-0.48066
   3   6   3   13.49    0.89   1 0.02873 0.65463 0.99907 0.74323 0.03191 0.13803
   3   6   4    1.04    0.62   1-0.65946-0.02499-0.16937-0.46219 0.73240 0.88642
  -3  -6  -4    1.17    0.55   1-0.08053-0.71285-0.99273-0.69802 0.08944-0.06780
   3   6   4    1.39    0.54   1-0.53603 0.09791-0.59854-0.89241-0.59532-0.44045
   3   6   5    6.57    0.76   1-0.66903-0.02821 0.01698-0.31674 0.74303 0.94809
  -3  -6  -5    6.63    0.98   1-0.11864-0.75699-0.98415-0.64889 0.13176-0.07678
   3   6   5    6.01    0.87   1-0.54667 0.09363-0.57664-0.91125-0.60714-0.40106
   3   6   6    0.58    0.53   1-0.65576-0.00859 0.19885-0.17577 0.72830 0.98439
  -3  -6  -6    0.71    0.64   1-0.15182-0.79620-0.97391-0.59811 0.16862-0.09122
   3   6   6    1.09    0.55   1-0.55770 0.08896-0.55254-0.92788-0.61939-0.36210
   3   6   7    0.63    0.59   1-0.62238 0.03114 0.36722-0.04830 0.69122 0.99834
  -3  -6  -7    0.82    0.90   1-0.17904-0.82944-0.96353-0.54718 0.19884-0.11229
   3   6   7    0.07    0.56   1-0.56888 0.08414-0.52647-0.94254-0.63181-0.32330
   3   6   8    0.33    0.80   1-0.58018 0.07904-0.49818-0.95556-0.64435-0.28397
   3   7 -11    7.89    1.03   1-0.50237 0.11088 0.66054 0.99325 0.55794-0.03394
   3   7 -11    8.17    0.87   1-0.07213 0.54406-0.99417-0.66575 0.08011-0.51065
   3   7 -10    2.31    1.15   1-0.47909 0.14047 0.69809 0.99004 0.53209-0.00863
   3   7 -10    1.85    0.69   1-0.07745 0.54477-0.99327-0.70541 0.08601-0.45345
   3   7  -9   25.91    2.69   1-0.45451 0.17138 0.73390 0.98508 0.50478 0.01522
   3   7  -9   25.54    2.58   1-0.08703 0.54121-0.99150-0.74418 0.09666-0.39150
   3   7  -8   14.82    1.66   1-0.42861 0.20359 0.76791 0.97833 0.47602 0.03762
   3   7  -8   15.58    1.49   1-0.10145 0.53281-0.98843-0.78166 0.11268-0.32419
   3   7  -7   24.04    2.06   1-0.40142 0.23710 0.80006 0.96971 0.44582 0.05859
   3   7  -7   25.20    2.23   1-0.12136 0.51894-0.98341-0.81719 0.13478-0.25079
   3   7  -6   16.16    1.41   1-0.37295 0.27188 0.83025 0.95915 0.41421 0.07814
   3   7  -6   17.51    1.43   1-0.14746 0.49886-0.97541-0.84973 0.16377-0.17050
   3   7  -5   12.20    1.29   1-0.34325 0.30790 0.85840 0.94652 0.38121 0.09631
   3   7  -5   13.14    1.25   1-0.18049 0.47185-0.96293-0.87780 0.20046-0.08252
   3   7  -4    5.31    0.69   1-0.31236 0.34510 0.88435 0.93171 0.34691 0.11318
   3   7  -4    6.25    0.81   1-0.22113 0.43724-0.94381-0.89923 0.24559 0.01390
   3   7  -4    6.65    1.15   1-0.54602 0.11140-0.57802-0.53107-0.60641-0.83996
   3   7  -4    6.63    0.84   1-0.64024 0.01808 0.29065 0.33399-0.71106-0.94240
   3   7  -3    0.52    0.71   1-0.28040 0.38338 0.90795 0.91455 0.31142 0.12885
   3   7  -3    0.72    0.48   1-0.26979 0.39461-0.91510-0.91107 0.29964 0.11925
   3   7  -3    0.50    0.49   1-0.50481 0.15896-0.65636-0.65015-0.56065-0.74298
   3   7  -2   57.30    2.48   1-0.24753 0.42257 0.92905 0.89489 0.27491 0.14351
   3   7  -2   72.34    2.28   1-0.32639 0.34404-0.87296-0.90948 0.36249 0.23340
   3   7  -2   60.73    3.01   1-0.49038 0.17975-0.68036-0.71488-0.54462-0.67574
   3   7  -1    8.86    0.87   1-0.38988 0.28657-0.81270-0.88977 0.43300 0.35521
  -3  -7   1    8.17    0.89   1 0.21211-0.46402-0.94842-0.87162-0.23558-0.15795
   3   7  -1    6.78    0.70   1-0.48730 0.18920-0.68529-0.76054-0.54120-0.62110
   3   7  -1    9.06    0.94   1-0.27599 0.40017 0.91096 0.83218-0.30652-0.38382
   3   7   0    0.36    0.44   1-0.45708 0.22553-0.73032-0.84719 0.50763 0.48103
  -3  -7   0    0.14    0.85   1 0.17820-0.50393-0.96388-0.84653-0.19791-0.17155
   3   7   0    0.53    0.49   1-0.49033 0.19253-0.68045-0.79643-0.54456-0.57325
   3   7   0    0.87    0.49   1-0.19261 0.48956 0.95767 0.83829-0.21392-0.23997
   3   7   1    0.70    0.47   1-0.52529 0.16338-0.61943-0.77690 0.58340 0.60805
  -3  -7  -1    0.65    0.63   1 0.14437-0.54376-0.97644-0.81853-0.16034-0.18524
   3   7   1    0.60    0.50   1-0.49699 0.19223-0.66956-0.82628-0.55197-0.52944
   3   7   1    0.72    0.45   1-0.12983 0.55834 0.98099 0.82103-0.14419-0.11899
   3   7   2    1.11    0.49   1-0.58749 0.10725-0.47865-0.67672 0.65248 0.72838
  -3  -7  -2    1.20    0.88   1 0.11123-0.58290-0.98608-0.78761-0.12354-0.19970
   3   7   2    0.96    0.75   1-0.50592 0.18966-0.65446-0.85190-0.56188-0.48814
   3   7   2    0.81    0.46   1-0.08341 0.61076 0.99220 0.79164-0.09263-0.01618
   3   7   3    2.15    0.54   1-0.63624 0.06457-0.30965-0.54831 0.70661 0.83377
  -3  -7  -3    1.92    0.70   1 0.07974-0.62082-0.99287-0.75361-0.08856-0.21596
   3   7   3    1.57    0.80   1-0.51628 0.18567-0.63614-0.87432-0.57338-0.44842
   3   7   3    1.58    0.68   1-0.04973 0.65044 0.99723 0.75608-0.05523 0.07246
   3   7   4    2.09    0.54   1-0.66351 0.04519-0.12925-0.40698 0.73691 0.91231
  -3  -7  -4    2.67    1.01   1 0.05067-0.65592-0.99712-0.71732-0.05628-0.23497
   3   7   4    2.33    0.59   1-0.52751 0.18080-0.61522-0.89412-0.58586-0.40968
   3   7   4    2.13    0.56   1-0.02599 0.68018 0.99924 0.71750-0.02886 0.15008
   3   7   5    0.06    0.60   1-0.66743 0.04762 0.07108-0.24754 0.74126 0.96770
  -3  -7  -5    0.10    0.74   1 0.02527-0.68735-0.99928-0.67893-0.02806-0.25806
   3   7   5   -0.01    0.56   1-0.53924 0.17543-0.59206-0.91170-0.59889-0.37150
   3   7   5    0.01    0.67   1-0.01008 0.70210 0.99988 0.67755-0.01119 0.21900
   3   7   6    3.81    0.90   1-0.55120 0.16983-0.56692-0.92729-0.61217-0.33357
   3   7   6    3.01    0.92   1-0.00042 0.71775 1.00000 0.63708-0.00047 0.28097
   3   7   7    2.73    0.64   1-0.56319 0.16420-0.53996-0.94106-0.62549-0.29567
   3   7   7    1.58    0.96   1 0.00413 0.72832 0.99998 0.59647 0.00459 0.33729
   3   8 -10   14.22    1.14   1-0.49512 0.19871 0.67265 0.97958 0.54989 0.03046
   3   8 -10   13.39    0.98   1-0.09668 0.59980-0.98950-0.68673 0.10738-0.41064
   3   8  -9   -0.09    1.08   1-0.47378 0.22637 0.70615 0.97231 0.52618 0.05792
   3   8  -9    0.28    0.92   1-0.10750 0.59501-0.98700-0.72478 0.11939-0.34733
   3   8  -8    4.79    0.86   1-0.45161 0.25486 0.73788 0.96328 0.50156 0.08447
   3   8  -8    4.76    0.95   1-0.12307 0.58547-0.98293-0.76126 0.13668-0.27874
   3   8  -7    0.65    0.99   1-0.42869 0.28409 0.76781 0.95244 0.47611 0.11018
   3   8  -7    0.82    0.61   1-0.14399 0.57058-0.97657-0.79544 0.15991-0.20421
   3   8  -6    0.57    0.65   1-0.40512 0.31398 0.79588 0.93975 0.44993 0.13517
   3   8  -6    0.14    0.80   1-0.17090 0.54970-0.96683-0.82625 0.18980-0.12303
   3   8  -5    0.10    0.86   1-0.38100 0.34441 0.82205 0.92515 0.42315 0.15955
   3   8  -5   -0.09    0.55   1-0.20445 0.52217-0.95217-0.85214 0.22706-0.03447
   3   8  -4    5.83    0.84   1-0.35651 0.37523 0.84624 0.90858 0.39594 0.18351
   3   8  -4    6.71    0.84   1-0.24521 0.48744-0.93043-0.87094 0.27233 0.06209
   3   8  -4    5.11    1.18   1-0.50772 0.22406-0.65134-0.58942-0.56388-0.77612
   3   8  -3    0.62    0.77   1-0.33182 0.40623 0.86837 0.88995 0.36852 0.20726
   3   8  -3    1.19    0.65   1-0.29350 0.44517-0.89866-0.87972 0.32596 0.16702
   3   8  -3    0.86    0.51   1-0.48454 0.25360-0.68965-0.66847-0.53813-0.69916
   3   8  -2   30.79    1.70   1-0.30721 0.43716 0.88837 0.86918 0.34119 0.23109
   3   8  -2   32.56    2.56   1-0.47718 0.26732-0.70102-0.72057-0.52996-0.63977
   3   8  -1    1.02    0.72   1-0.28300 0.46768 0.90615 0.84619 0.31431 0.25538
   3   8  -1    1.41    0.54   1-0.41029 0.34050-0.78994-0.85124 0.45568 0.39928
   3   8  -1    0.88    0.75   1-0.47775 0.27311-0.70015-0.76043-0.53060-0.58919
   3   8  -1    1.15    0.82   1-0.33349 0.41696 0.86694 0.80285-0.37038-0.42610
   3   8   0    3.81    0.67   1-0.25966 0.49734 0.92163 0.82091 0.28838 0.28062
   3   8   0    6.69    0.99   1-0.47628 0.28058-0.70238-0.80428 0.52897 0.52383
   3   8   0    4.64    0.74   1-0.48294 0.27428-0.69215-0.79316-0.53636-0.54374
   3   8   0    6.22    0.85   1-0.25965 0.49681 0.92164 0.81695-0.28837-0.29284
   3   8   1   28.42    2.36   1-0.54206 0.22087-0.58628-0.72878 0.60202 0.64813
   3   8   1   20.73    1.79   1-0.49101 0.27258-0.67935-0.82110-0.54532-0.50148
   3   8   1   21.68    1.81   1-0.20108 0.56138 0.95377 0.80850-0.22332-0.17654
   3   8   2    6.62    0.96   1-0.60141 0.16759-0.43837-0.62147 0.66793 0.76529
   3   8   2    4.84    0.69   1-0.50092 0.26903-0.66300-0.84548-0.55632-0.46127
   3   8   2    4.02    0.60   1-0.15568 0.61278 0.97255 0.78669-0.17290-0.07486
   3   8   3   14.09    1.09   1-0.64636 0.12871-0.25863-0.48233 0.71785 0.86647
  -3  -8  -3   11.27    1.16   1 0.20073-0.57362-0.95394-0.72983-0.22293-0.37187
   3   8   3   11.19    1.04   1-0.51200 0.26431-0.64381-0.86702-0.56863-0.42237
   3   8   3    9.83    0.91   1-0.12121 0.65324 0.98345 0.75700-0.13462 0.01465
   3   8   4    3.02    0.65   1-0.52381 0.25887-0.62224-0.88618-0.58175-0.38427
   3   8   4    2.33    0.59   1-0.09572 0.68474 0.98971 0.72267-0.10631 0.09421
   3   8   5    4.27    0.69   1-0.53602 0.25302-0.59856-0.90323-0.59531-0.34661
   3   8   5    2.52    0.63   1-0.07759 0.70887 0.99325 0.68561-0.08617 0.16560
   3   8   6    0.51    0.88   1-0.54840 0.24700-0.57297-0.91837-0.60906-0.30915
   3   8   6    0.32    0.89   1-0.06554 0.72692 0.99519 0.64696-0.07279 0.23024
   3   9  -8   -0.59    1.06   1-0.47604 0.30470 0.70275 0.94312 0.52869 0.13290
   3   9  -8    0.57    0.66   1-0.14858 0.63424-0.97503-0.73845 0.16501-0.22897
   3   9  -7   17.54    1.69   1-0.45716 0.32989 0.73021 0.92981 0.50773 0.16310
   3   9  -7   20.09    1.44   1-0.17061 0.61824-0.96694-0.77091 0.18948-0.15321
   3   9  -6   10.35    1.28   1-0.43817 0.35520 0.75576 0.91461 0.48664 0.19318
   3   9  -6   13.27    1.31   1-0.19844 0.59642-0.95500-0.79952 0.22040-0.07099
   3   9  -5    9.46    1.23   1-0.41926 0.38042 0.77935 0.89743 0.46564 0.22335
   3   9  -5   11.42    1.46   1-0.23266 0.56823-0.93760-0.82266 0.25840 0.01830
   3   9  -4    9.29    1.21   1-0.40067 0.40533 0.80089 0.87821 0.44499 0.25387
   3   9  -4   10.87    1.35   1-0.27372 0.53320-0.91249-0.83810 0.30400 0.11520
   3   9  -3    7.02    1.05   1-0.38271 0.42960 0.82028 0.85683 0.42505 0.28509
   3   9  -3    8.74    0.80   1-0.32185 0.49110-0.87671-0.84287 0.35745 0.21995
   3   9  -3    5.98    1.06   1-0.47965 0.33286-0.69724-0.66109-0.53271-0.67242
   3   9  -2    1.04    0.62   1-0.36577 0.45286 0.83736 0.83315 0.40623 0.31744
   3   9  -2    1.22    0.82   1-0.37677 0.44220-0.82640-0.83310 0.41845 0.33224
   3   9  -2    0.75    0.84   1-0.47521 0.34366-0.70400-0.70858-0.52777-0.61627
   3   9  -1    0.38    0.59   1-0.35036 0.47459 0.85195 0.80697 0.38912 0.35149
   3   9  -1    0.37    0.81   1-0.43660 0.38845-0.75778-0.80413 0.48490 0.44997
   3   9  -1    0.23    0.82   1-0.47714 0.34809-0.70107-0.74639-0.52992-0.56721
   3   9   0   41.23    1.60   1-0.50060 0.33052-0.66354-0.75048 0.55597 0.57229
   3   9   0   27.09    2.81   1-0.48299 0.34860-0.69207-0.77812-0.53641-0.52249
   3   9   0   36.89    1.42   1-0.31783 0.51291 0.87999 0.79000-0.35298-0.33587
   3   9   1    2.09    0.88   1-0.32716 0.51042 0.87231 0.74580 0.36335 0.42806
   3   9   1    3.71    0.73   1-0.56366 0.27353-0.53887-0.66642 0.62601 0.69358
   3   9   1    2.53    0.67   1-0.49137 0.34659-0.67877-0.80555-0.54572-0.48058
   3   9   1    2.91    0.67   1-0.26400 0.57274 0.91887 0.78829-0.29320-0.22484
   3   9   2    0.18    0.45   1-0.61865 0.22290-0.38101-0.54881 0.68708 0.80567
   3   9   2    0.12    0.62   1-0.50142 0.34290-0.66215-0.82967-0.55688-0.44052
   3   9   2    0.17    0.79   1-0.22071 0.62203 0.94403 0.77286-0.24512-0.12551
   3   9   3   -0.09    0.89   1-0.51256 0.33812-0.64282-0.85106-0.56925-0.40168
   3   9   3    0.19    0.54   1-0.18666 0.66208 0.96030 0.74853-0.20731-0.03644
   3   9   4    0.02    0.62   1-0.52438 0.33266-0.62115-0.87013-0.58239-0.36360
   3   9   4    0.13    0.57   1-0.16054 0.69420 0.97079 0.71843-0.17830 0.04381
   3  10  -5    1.25    0.73   1-0.45761 0.41634 0.72958 0.86263 0.50823 0.28724
   3  10  -5    1.79    0.68   1-0.26480 0.61037-0.91835-0.78851 0.29409 0.07544
   3  10  -4   -0.23    0.70   1-0.44449 0.43578 0.74748 0.83977 0.49365 0.32383
   3  10  -4    0.25    0.64   1-0.30631 0.57488-0.88906-0.79976 0.34019 0.17284
   3  10  -3    0.48    0.99   1-0.43274 0.45385 0.76272 0.81425 0.48060 0.36195
   3  10  -3    0.06    0.68   1-0.35444 0.53278-0.84817-0.79942 0.39365 0.27759
   3  10  -2    2.49    1.00   1-0.42291 0.46999 0.77494 0.78570 0.46969 0.40220
   3  10  -2    4.60    0.83   1-0.40801 0.48523-0.79258-0.78337 0.45314 0.38841
   3  10  -1    0.93    0.76   1-0.41573 0.48348 0.78356 0.75356 0.46172 0.44540
   3  10  -1    1.25    0.99   1-0.46750 0.43181-0.71544-0.74683 0.51921 0.50573
   3  10  -1    0.46    0.68   1-0.48332 0.41628-0.69156-0.72191-0.53678-0.55276
   3  10   0    6.35    0.90   1-0.41227 0.49327 0.78764 0.71687 0.45787 0.49271
   3  10   0   12.04    1.02   1-0.52949 0.37589-0.61140-0.68339 0.58806 0.62584
   3  10   0    9.36    0.88   1-0.48890 0.41706-0.68274-0.75382-0.54298-0.50774
  -4  11   2    1.92    0.76   1-0.52598 0.08750 0.61812 0.99611-0.58416-0.00961
   4 -11  -2    1.56    0.76   1 0.03878-0.57409 0.99831 0.62159 0.04307-0.53294
  -4  11   1    0.62    0.98   1-0.54693 0.06049 0.57610 0.99461-0.60742-0.08420
   4 -11  -1    0.42    1.01   1-0.00703-0.61391 0.99994 0.58262-0.00781-0.53258
  -4  11   0    0.31    0.67   1-0.56840 0.03295 0.52763 0.98666-0.63127-0.15939
   4 -11   0    0.15    0.97   1-0.05238-0.65326 0.99693 0.53902-0.05817-0.53169
  -4  11  -1    0.10    0.61   1-0.58969 0.00560 0.47258 0.97213-0.65492-0.23437
   4 -11   1    0.11    0.67   1-0.09673-0.69161 0.98949 0.49099-0.10743-0.52970
   4 -11   2    0.20    0.80   1-0.36741-0.95458 0.83576 0.29545 0.40805 0.03845
  -4  11  -2    0.14    0.52   1-0.56760 0.02001-0.52956 0.01164 0.63038 0.99973
  -4  11  -2    0.45    0.82   1-0.60999-0.02076 0.41101 0.95107-0.67747-0.30826
   4 -11   2   -0.13    0.66   1-0.13957-0.72845 0.97800 0.43891-0.15501-0.52603
   4 -11   3    0.17    1.09   1-0.38448-0.96533 0.81843 0.23736 0.42701 0.10857
  -4  11  -3    0.42    0.77   1-0.60356-0.02202-0.43169 0.15011 0.67033 0.98842
  -4  11  -3   -0.45    0.76   1-0.62847-0.04531 0.34325 0.92382-0.69799-0.38012
   4 -11   3   -0.01    0.92   1-0.18038-0.76326 0.96297 0.38329-0.20033-0.52010
   4 -11   4    2.58    1.00   1-0.39304-0.96757 0.80929 0.18746 0.43652 0.16925
  -4  11  -4    3.00    0.87   1-0.62585-0.05037-0.35377 0.26863 0.69508 0.96192
  -4  11  -4    3.75    0.80   1-0.64429-0.06720 0.26989 0.89098-0.71556-0.44903
   4 -11   4    3.86    0.90   1-0.21870-0.79558 0.94507 0.32480-0.24289-0.51141
   4 -11   5    0.14    0.84   1-0.39583-0.96405 0.80625 0.14365 0.43962 0.22351
  -4  11  -5    1.14    0.65   1-0.63984-0.07043-0.29261 0.37039 0.71061 0.92620
  -4  11  -5    0.43    0.63   1-0.65677-0.08628 0.19126 0.85342-0.72942-0.51402
   4 -11   5    0.88    0.69   1-0.25415-0.82502 0.92505 0.26419-0.28226-0.49953
   4 -11   6    8.02    1.22   1-0.39440-0.95630 0.80782 0.10446 0.43802 0.27308
  -4  11  -6    9.66    1.11   1-0.64866-0.08532-0.24541 0.45818 0.72041 0.88475
  -4  11  -6    9.71    0.77   1-0.66511-0.10095 0.10938 0.81224-0.73868-0.57452
   4 -11   6   10.50    1.19   1-0.28641-0.85129 0.90375 0.20230-0.31810-0.48412
  -4  10   4    0.93    1.05   1-0.47365 0.07763 0.70634 0.98851-0.52604 0.12968
  -4  10   3    1.67    0.75   1-0.49403 0.05119 0.67444 0.99713-0.54868 0.05571
  -4  10   2    2.87    1.00   1-0.51617 0.02298 0.63633 0.99953-0.57327-0.02021
   4 -10  -2    3.13    0.99   1 0.00194-0.53665 0.99999 0.63796 0.00216-0.55227
  -4  10   1    1.21    0.68   1-0.53952-0.00643 0.59149 0.99521-0.59920-0.09748
   4 -10  -1    1.22    0.82   1-0.04774-0.58034 0.99745 0.59482-0.05302-0.55622
   4 -10   0    4.89    0.86   1-0.41432-0.93985 0.78523 0.34143 0.46015 0.00952
  -4  10   0    4.38    0.61   1-0.45380 0.07169-0.73488-0.28981 0.50399 0.95439
  -4  10   0    4.12    0.73   1-0.56335-0.03632 0.53961 0.98384-0.62566-0.17528
   4 -10   0    4.33    0.76   1-0.09679-0.62339 0.98948 0.54626-0.10750-0.55944
   4 -10   1    4.06    0.94   1-0.43977-0.95898 0.75368 0.26912 0.48842 0.08895
  -4  10  -1    4.30    0.59   1-0.53492-0.01549-0.60075-0.11510 0.59409 0.99323
  -4  10  -1    4.31    0.69   1-0.58680-0.06584 0.48055 0.96531-0.65171-0.25266
   4 -10   1    4.97    0.78   1-0.14453-0.66513 0.97639 0.49258-0.16052-0.56121
   4 -10   2   22.76    1.39   1-0.45223-0.96512 0.73703 0.21171 0.50225 0.15395
  -4  10  -2   25.24    1.58   1-0.58422-0.07086-0.48752 0.03873 0.64884 0.99673
  -4  10  -2   25.17    1.61   1-0.60893-0.09404 0.41450 0.93977-0.67629-0.32858
   4 -10   2   26.81    1.33   1-0.19030-0.70490 0.95870 0.43430-0.21135-0.56079
   4 -10   3    1.54    0.77   1-0.45711-0.96369 0.73027 0.16418 0.50768 0.21054
  -4  10  -3    2.45    0.61   1-0.61466-0.10737-0.39518 0.17166 0.68265 0.97928
  -4  10  -3    2.08    0.74   1-0.62878-0.11996 0.34197 0.90776-0.69834-0.40197
   4 -10   3    2.60    0.90   1-0.23348-0.74208 0.93714 0.37215-0.25931-0.55750
   4 -10   4    7.50    1.04   1-0.45697-0.95723 0.73047 0.12362 0.50752 0.26155
  -4  10  -4    8.65    0.81   1-0.63360-0.13237-0.32152 0.28592 0.70368 0.94906
  -4  10  -4    8.36    0.89   1-0.64543-0.14266 0.26378 0.87009-0.71682-0.47178
   4 -10   4    8.78    0.94   1-0.27355-0.77614 0.91261 0.30703-0.30381-0.55075
   4 -10   5    3.88    0.90   1-0.45318-0.94713 0.73573 0.08811 0.50331 0.30850
  -4  10  -5    5.64    0.98   1-0.64542-0.15026-0.26383 0.38420 0.71681 0.91093
  -4  10  -5    5.26    0.77   1-0.65811-0.16202 0.18070 0.82796-0.73091-0.53685
   4 -10   5    4.67    0.75   1-0.31008-0.80667 0.88613 0.23997-0.34438-0.54007
   4 -10   6    3.33    0.93   1-0.44655-0.93418 0.74473 0.05635 0.49594 0.35231
  -4  10  -6    4.34    0.74   1-0.65204-0.16588-0.22454 0.46481 0.72416 0.86972
  -4  10  -6    3.77    0.73   1-0.66612-0.17636 0.09465 0.78262-0.73980-0.59698
   4 -10   6    3.26    1.01   1-0.34282-0.83341 0.85877 0.17201-0.38075-0.52518
   4 -10   7    3.56    1.29   1-0.43759-0.91890 0.75652 0.02737 0.48599 0.39352
  -4  10  -7    4.42    0.84   1-0.65670-0.17690-0.19180 0.53846 0.72934 0.82387
  -4  10  -7    4.86    0.83   1-0.66911-0.18568 0.00687 0.73553-0.74312-0.65154
   4 -10   7    4.60    0.89   1-0.37254-0.85710 0.83067 0.10281-0.41375-0.50477
   4 -10   8   -0.04    1.33   1-0.42662-0.90162 0.77038 0.00047 0.47381 0.43251
  -4  10  -8   -0.12    1.05   1-0.65956-0.18610-0.16852 0.60264 0.73251 0.77600
  -4  10  -8    0.23    0.69   1-0.66691-0.18982-0.08125 0.68810-0.74068-0.70033
   4 -10   8    0.14    0.77   1-0.39743-0.87593 0.80449 0.03612-0.44139-0.48108
  -4   9   6    3.01    1.11   1-0.42286 0.06622 0.77500 0.96134-0.46963 0.26726
  -4   9   5    1.28    0.75   1-0.44049 0.04253 0.75274 0.97961-0.48921 0.19634
  -4   9   4    0.13    0.71   1-0.46088 0.01607 0.72497 0.99235-0.51185 0.12236
  -4   9   3   21.48    1.55   1-0.48369-0.01280 0.69097 0.99887-0.53720 0.04568
   4  -9  -3   24.30    1.29   1 0.01931-0.45099 0.99958 0.69283 0.02145-0.56265
   4  -9  -2    8.93    1.12   1-0.46325-0.92715 0.72158 0.37429 0.51449-0.01717
  -4   9   2    7.67    1.32   1-0.19439 0.26935-0.95686-0.60786 0.21590 0.74695
  -4   9   2    8.11    1.19   1-0.50844-0.04362 0.65008 0.99849-0.56468-0.03313
   4  -9  -2    9.54    1.09   1-0.03482-0.49914 0.99864 0.65130-0.03868-0.57154
   4  -9  -1    0.54    0.62   1-0.50086-0.95844 0.66310 0.27504 0.55626 0.07576
  -4   9   1    0.60    0.44   1-0.37232 0.08539-0.83089-0.44134 0.41351 0.89326
  -4   9   1    0.60    0.60   1-0.53442-0.07566 0.60174 0.99067-0.59354-0.11332
   4  -9  -1    0.50    0.60   1-0.08885-0.54716 0.99114 0.60321-0.09868-0.58029
   4  -9   0    4.50    0.94   1-0.51636-0.96762 0.63599 0.20717 0.57348 0.14415
  -4   9   0    6.28    0.67   1-0.48188-0.03064-0.69380-0.26370 0.53518 0.96411
  -4   9   0    6.25    0.75   1-0.56076-0.10806 0.54560 0.97504-0.62278-0.19391
   4  -9   0    6.66    0.78   1-0.14195-0.59426 0.97723 0.54871-0.15765-0.58801
   4  -9   1    0.47    0.63   1-0.52201-0.96696 0.62559 0.15601 0.57976 0.20159
  -4   9  -1    0.83    0.59   1-0.55104-0.10588-0.56727-0.09658 0.61199 0.98967
  -4   9  -1    0.71    0.52   1-0.58640-0.13978 0.48163 0.95159-0.65127-0.27373
   4  -9   1    0.59    0.57   1-0.19326-0.63957 0.95738 0.48826-0.21464-0.59375
   4  -9   2    1.34    0.70   1-0.52201-0.96064 0.62561 0.11526 0.57975 0.25275
  -4   9  -2    2.17    0.53   1-0.59434-0.15524-0.45938 0.05190 0.66008 0.98651
  -4   9  -2    2.24    0.72   1-0.61025-0.16969 0.41018 0.92066-0.67775-0.35154
   4  -9   2    2.20    0.60   1-0.24195-0.68225 0.93233 0.42263-0.26871-0.59657
   4  -9   3   -0.17    0.97   1-0.51822-0.95054 0.63259 0.08148 0.57555 0.29972
  -4   9  -3    0.60    0.52   1-0.62138-0.18835-0.37095 0.18093 0.69012 0.96529
  -4   9  -3    0.20    0.65   1-0.63116-0.19667 0.33203 0.88303-0.70098-0.42611
   4  -9   3    0.60    0.80   1-0.28727-0.72158 0.90315 0.35285-0.31905-0.59566
   4  -9   4    1.00    1.06   1-0.51165-0.93764 0.64444 0.05256 0.56824 0.34358
  -4   9  -4    1.70    0.60   1-0.63823-0.21127-0.30035 0.29213 0.70883 0.93274
  -4   9  -4    1.37    0.66   1-0.64816-0.21974 0.24834 0.83986-0.71986-0.49633
   4  -9   4    1.21    0.83   1-0.32864-0.75695 0.87107 0.28018-0.36499-0.59035
   4  -9   5    0.53    0.78   1-0.50285-0.92253 0.65973 0.02709 0.55847 0.38497
  -4   9  -5    0.37    0.85   1-0.64870-0.22780-0.24521 0.38787 0.72045 0.89311
  -4   9  -5    0.42    0.64   1-0.66046-0.23877 0.16039 0.79276-0.73352-0.56081
   4  -9   5    0.15    0.60   1-0.36662-0.78898 0.83653 0.20449-0.40718-0.57937
   4  -9   6    4.17    0.94   1-0.49216-0.90552 0.67749 0.00409 0.54660 0.42427
  -4   9  -6    4.03    0.73   1-0.65443-0.24251-0.20844 0.46582 0.72682 0.85099
  -4   9  -6    4.12    0.65   1-0.66748-0.25212 0.07004 0.74311-0.74132-0.61984
   4  -9   6    3.47    0.72   1-0.39909-0.81539 0.80265 0.13010-0.44324-0.56409
   4  -9   7    1.32    1.21   1-0.47981-0.88686 0.69700-0.01716 0.53288 0.46171
  -4   9  -7    1.77    0.99   1-0.65848-0.25291-0.17769 0.53747 0.73131 0.80445
  -4   9  -7    1.65    0.50   1-0.66898-0.25995-0.02106 0.69270-0.74298-0.67274
   4  -9   7    1.86    0.99   1-0.42705-0.83728 0.76985 0.05678-0.47429-0.54381
   4  -9   8   15.99    1.81   1-0.46594-0.86667 0.71771-0.03722 0.51748 0.49748
  -4   9  -8   14.66    1.57   1-0.66091-0.26169-0.15625 0.59982 0.73401 0.75612
  -4   9  -8   16.08    1.44   1-0.66496-0.26226-0.11142 0.64305-0.73851-0.71951
   4  -9   8   14.12    1.46   1-0.45067-0.85483 0.73917-0.01441-0.50052-0.51870
   4  -9   9    9.85    1.33   1-0.45065-0.84506 0.73919-0.05649 0.50050 0.53166
  -4   9  -9    8.61    1.12   1-0.66228-0.26942-0.14267 0.65430 0.73554 0.70661
  -4   9  -9    9.26    0.93   1-0.65564-0.25928-0.19972 0.59544-0.72817-0.76040
   4  -9   9    8.44    1.40   1-0.47022-0.86831 0.71145-0.08264-0.52223-0.48907
  -4   8   7    3.82    1.12   1-0.39094 0.02988 0.81157 0.94261-0.43418 0.33255
  -4   8   6    0.46    0.70   1-0.40743 0.00731 0.79324 0.96479-0.45250 0.26289
  -4   8   5    1.14    0.98   1-0.42724-0.01855 0.76962 0.98169-0.47449 0.18956
   4  -8  -4    0.37    0.37   1-0.53509-0.93654 0.60041 0.35013 0.59428-0.01717
  -4   8   4    0.57    0.67   1-0.45014-0.04751 0.73989 0.99248-0.49993 0.11279
   4  -8  -3    3.03    0.75   1-0.57985-0.97470 0.49902 0.20797 0.64399 0.08189
  -4   8   3    4.25    1.07   1-0.06040 0.33509-0.99591-0.70237 0.06709 0.62799
  -4   8   3    3.66    0.94   1-0.47574-0.07918 0.70320 0.99631-0.52836 0.03302
   4  -8  -3    3.23    0.66   1-0.01245-0.40848 0.99982 0.70776-0.01383-0.57636
   4  -8  -2    0.02    0.50   1-0.59148-0.97996 0.46756 0.13561 0.65690 0.14583
  -4   8   2   -0.00    0.42   1-0.26114 0.12833-0.92069-0.58660 0.29003 0.79963
  -4   8   2    0.12    0.59   1-0.50341-0.11292 0.65876 0.99239-0.55910-0.04905
   4  -8  -2    0.08    0.56   1-0.07166-0.46169 0.99424 0.66159-0.07958-0.59087
   4  -8  -1    2.83    0.63   1-0.59380-0.97593 0.46094 0.08808 0.65948 0.19945
  -4   8   1    4.20    0.51   1-0.40255-0.01910-0.79879-0.42415 0.44708 0.90538
  -4   8   1    4.22    0.66   1-0.53229-0.14786 0.60595 0.98009-0.59117-0.13245
   4  -8  -1    3.91    0.65   1-0.13057-0.51460 0.98077 0.60753-0.14501-0.60505
   4  -8   0    5.32    0.73   1-0.59150-0.96728 0.46751 0.05375 0.65693 0.24793
  -4   8   0    5.71    0.54   1-0.49721-0.12023-0.66920-0.25406 0.55221 0.95968
  -4   8   0    6.27    0.67   1-0.56125-0.18290 0.54445 0.95911-0.62334-0.21596
   4  -8   0    6.25    0.70   1-0.18810-0.56613 0.95967 0.54584-0.20891-0.61769
   4  -8   1    2.03    0.63   1-0.58624-0.95568 0.48206 0.02740 0.65109 0.29313
  -4   8  -1    2.82    0.50   1-0.55955-0.18864-0.54835-0.09261 0.62145 0.97766
  -4   8  -1    2.44    0.53   1-0.58903-0.21674 0.47440 0.92958-0.65419-0.29815
   4  -8   1    2.36    0.57   1-0.24313-0.61515 0.93164 0.47722-0.27002-0.62755
   4  -8   2   13.15    1.28   1-0.57879-0.94187 0.50176 0.00620 0.64282 0.33589
  -4   8  -2   14.80    0.98   1-0.59943-0.23459-0.44436 0.05196 0.66574 0.97070
  -4   8  -2   13.87    0.97   1-0.61430-0.24807 0.39644 0.89214-0.68224-0.37754
   4  -8   2   13.39    0.97   1-0.29460-0.66062 0.89786 0.40285-0.32718-0.63346
   4  -8   3   12.42    1.17   1-0.56828-0.92633 0.52792-0.00821 0.63114 0.37662
  -4   8  -3   13.85    1.15   1-0.62460-0.26582-0.35869 0.17823 0.69369 0.94739
  -4   8  -3   11.93    0.99   1-0.63578-0.27562 0.31176 0.84797-0.70610-0.45274
   4  -8   3   11.72    1.17   1-0.34164-0.70166 0.85983 0.32423-0.37943-0.63446
   4  -8   4   31.29    2.09   1-0.55744-0.90917 0.55314-0.02375 0.61910 0.41574
  -4   8  -4   32.42    2.02   1-0.64033-0.28763-0.29018 0.28733 0.71116 0.91362
  -4   8  -4   31.20    1.94   1-0.65241-0.29878 0.22213 0.79891-0.72457-0.52198
   4  -8   4   31.42    2.13   1-0.38464-0.73874 0.81825 0.24153-0.42719-0.62922
   4  -8   5    7.60    1.29   1-0.54516-0.89057 0.57984-0.03782 0.60546 0.45326
  -4   8  -5    7.53    0.91   1-0.65010-0.30346-0.23679 0.38133 0.72201 0.87321
  -4   8  -5    7.01    0.74   1-0.66354-0.31625 0.12889 0.74637-0.73694-0.58558
   4  -8   5    6.57    0.94   1-0.42129-0.76932 0.77690 0.15966-0.46789-0.61858
   4  -8   6   12.94    1.21   1-0.53153-0.87062 0.60744-0.05098 0.59032 0.48929
  -4   8  -6   13.82    1.09   1-0.65535-0.31768-0.20187 0.45730 0.72784 0.83063
  -4   8  -6   15.30    1.06   1-0.66873-0.32776 0.03439 0.69257-0.74270-0.64258
   4  -8   6   14.24    1.12   1-0.45261-0.79457 0.73650 0.07874-0.50268-0.60203
   4  -8   7   10.94    1.56   1-0.51661-0.84939 0.63553-0.06365 0.57376 0.52389
  -4   8  -7   10.33    1.34   1-0.65909-0.32777-0.17254 0.52753 0.73199 0.78375
  -4   8  -7   11.00    1.03   1-0.66794-0.33331-0.05954 0.63933-0.74182-0.69293
   4  -8   7    9.10    1.26   1-0.47884-0.81473 0.69848 0.00020-0.53181-0.57982
   4  -8   8    7.58    1.09   1-0.50046-0.82692 0.66377-0.07617 0.55582 0.55712
  -4   8  -8    7.54    0.95   1-0.66131-0.33633-0.15243 0.58854 0.73446 0.73517
  -4   8  -8    8.48    0.66   1-0.66141-0.33311-0.15138 0.58819-0.73457-0.73692
   4  -8   8    8.22    0.92   1-0.50037-0.83020 0.66391-0.07487-0.55572-0.55240
   4  -8   9    2.03    0.90   1-0.48309-0.80324 0.69192-0.08879 0.53652 0.58899
  -4   8  -9    2.56    0.80   1-0.66252-0.34390-0.14015 0.64173 0.73580 0.68549
  -4   8  -9    2.70    0.53   1-0.64959-0.32762-0.23990 0.54037-0.72144-0.77502
   4  -8   9    1.78    1.39   1-0.51769-0.84145 0.63357-0.14574-0.57495-0.52029
   4  -8  10    1.32    0.90   1-0.46451-0.77835 0.71977-0.10171 0.51590 0.61953
  -4   8 -10    0.96    0.77   1-0.66304-0.35077-0.13454 0.68824 0.73638 0.63503
  -4   8 -10    1.32    0.64   1-0.63297-0.31734-0.32424 0.49673-0.70299-0.80780
  -4   7   9    3.09    0.71   1-0.30387 0.05757-0.89093-0.85842-0.33748 0.50970
  -4   7   9    3.09    0.83   1-0.34873 0.00902 0.85345 0.88727-0.38730 0.46115
  -4   7   8    0.03    0.62   1-0.25401 0.10107-0.92514-0.85189-0.28211 0.51386
  -4   7   8   -0.19    0.73   1-0.36054-0.00798 0.84242 0.91815-0.40042 0.39614
  -4   7   7    0.60    0.99   1-0.37534-0.02885 0.82785 0.94410-0.41685 0.32837
  -4   7   6    4.00    0.77   1-0.39394-0.05351 0.80832 0.96509-0.43751 0.25637
  -4   7   5   17.92    1.53   1-0.41627-0.08192 0.78292 0.98020-0.46232 0.18023
   4  -7  -4    7.61    1.04   1-0.66028-0.98723 0.16205-0.07299 0.73332 0.14156
  -4   7   4   12.19    1.88   1 0.05842 0.38567-0.99618-0.75809-0.06488 0.52587
  -4   7   4   11.04    1.18   1-0.44210-0.11381 0.75063 0.98843-0.49100 0.10021
   4  -7  -4   12.09    1.10   1 0.02073-0.30701 0.99952 0.76274 0.02302-0.56917
   4  -7  -3    5.23    0.68   1-0.65730-0.97790 0.18718-0.08877 0.73000 0.18929
  -4   7   3    8.82    0.88   1-0.13353 0.18769-0.97988-0.70125 0.14830 0.68776
  -4   7   3    6.79    0.94   1-0.47091-0.14869 0.71042 0.98873-0.52300 0.01687
   4  -7  -3    7.51    0.72   1-0.04361-0.36535 0.99787 0.72050-0.04843-0.58939
   4  -7  -2    6.53    0.67   1-0.65279-0.96704 0.21960-0.09725 0.72500 0.23532
  -4   7   2    8.65    0.81   1-0.29450 0.02070-0.89793-0.57875 0.32708 0.81524
  -4   7   2    7.26    0.73   1-0.50190-0.18574 0.66134 0.98018-0.55741-0.06887
   4  -7  -2    8.68    0.94   1-0.10869-0.42443 0.98671 0.66876-0.12071-0.61041
   4  -7  -1   33.80    1.88   1-0.64680-0.95469 0.25616-0.10160 0.71834 0.27970
  -4   7   1   37.95    1.80   1-0.41625-0.10746-0.78295-0.42337 0.46229 0.89955
  -4   7   1   37.44    1.95   1-0.53392-0.22383 0.60274 0.96209-0.59297-0.15577
   4  -7  -1   42.35    2.07   1-0.17316-0.48291 0.96593 0.60738-0.19232-0.63077
   4  -7   0   20.38    1.23   1-0.63935-0.94089 0.29501-0.10365 0.71007 0.32245
  -4   7   0   21.81    1.17   1-0.50318-0.20046-0.65916-0.25899 0.55883 0.94484
  -4   7   0   21.01    1.30   1-0.56555-0.26153 0.53443 0.93430-0.62811-0.24224
   4  -7   0   21.46    1.43   1-0.23555-0.53929 0.93598 0.53685-0.26160-0.64880
   4  -7   1    2.37    0.81   1-0.63046-0.92565 0.33500-0.10457 0.70020 0.36362
  -4   7  -1    2.23    0.47   1-0.56184-0.26519-0.54309-0.10232 0.62399 0.95875
  -4   7  -1    2.09    0.49   1-0.59522-0.29726 0.45683 0.89722-0.66106-0.32653
   4  -7   1    1.85    0.54   1-0.29434-0.59208 0.89805 0.45832-0.32690-0.66285
   4  -7   2   14.16    1.23   1-0.62019-0.90903 0.37538-0.10508 0.68879 0.40325
  -4   7  -2   14.18    1.12   1-0.60017-0.30958-0.44214 0.03923 0.66656 0.95006
  -4   7  -2   13.10    1.07   1-0.62135-0.32946 0.37109 0.85199-0.69007-0.40688
   4  -7   2   12.40    1.07   1-0.34824-0.63998 0.85389 0.37358-0.38676-0.67146
   4  -7   3    2.63    0.93   1-0.60858-0.89106 0.41567-0.10569 0.67589 0.44139
  -4   7  -3    2.93    0.73   1-0.62468-0.34016-0.35838 0.16358 0.69378 0.92602
  -4   7  -3    2.58    0.54   1-0.64256-0.35674 0.27896 0.80038-0.71364-0.48178
   4  -7   3    2.78    0.63   1-0.39732-0.68314 0.80462 0.28319-0.44127-0.67313
   4  -7   4    6.72    1.00   1-0.59566-0.87180 0.45554-0.10673 0.66155 0.47808
  -4   7  -4    6.43    0.89   1-0.64013-0.36168-0.29119 0.27137 0.71094 0.89193
  -4   7  -4    6.55    0.93   1-0.65782-0.37859 0.18301 0.74490-0.73059-0.54934
   4  -7   4    5.76    0.93   1-0.43895-0.71871 0.75475 0.19281-0.48751-0.66803
   4  -7   5    0.97    0.97   1-0.58149-0.85128 0.49474-0.10843 0.64581 0.51338
  -4   7  -5    0.90    0.58   1-0.64976-0.37738-0.23883 0.36433 0.72163 0.85137
  -4   7  -5    0.54    0.60   1-0.66673-0.39383 0.08459 0.68718-0.74048-0.61046
   4  -7   5    0.54    0.79   1-0.47416-0.74785 0.70558 0.10312-0.52661-0.65580
   4  -7   6    7.45    0.98   1-0.56492-0.82974 0.53593-0.10751 0.62740 0.54768
  -4   7  -6    7.82    0.88   1-0.65490-0.39146-0.20512 0.43895 0.72734 0.80874
  -4   7  -6    8.07    0.84   1-0.66907-0.40250-0.01344 0.62983-0.74307-0.66430
   4  -7   6    7.65    0.90   1-0.50325-0.77088 0.65903 0.01606-0.55892-0.63677
   4  -7   7    1.88    1.08   1-0.54826-0.80677 0.57327-0.11094 0.60890 0.58034
  -4   7  -7    2.13    0.91   1-0.65860-0.40152-0.17665 0.50832 0.73145 0.76182
  -4   7  -7    2.22    0.48   1-0.66512-0.40489-0.10924 0.57473-0.73869-0.71115
   4  -7   7    1.85    0.65   1-0.52679-0.78835 0.61659-0.06689-0.58506-0.61157
   4  -7   8    3.49    0.86   1-0.53042-0.78262 0.60959-0.11538 0.58910 0.61170
  -4   7  -8    2.81    0.87   1-0.66078-0.41005-0.15740 0.56848 0.73388 0.71321
  -4   7  -8    3.87    0.59   1-0.65542-0.40152-0.20137 0.52331-0.72792-0.75161
   4  -7   8    3.72    1.01   1-0.54545-0.80094 0.57922-0.14478-0.60579-0.58096
   4  -7   9    1.65    1.14   1-0.51142-0.75730 0.64484-0.12090 0.56799 0.64177
  -4   7  -9    1.65    0.75   1-0.66196-0.41758-0.14597 0.62081 0.73518 0.66348
  -4   7  -9    1.49    0.49   1-0.64061-0.39304-0.28883 0.47655-0.71147-0.78639
   4  -7  10   13.28    1.49   1-0.49126-0.73082 0.67895-0.12755 0.54560 0.67054
  -4   7 -10   13.06    1.39   1-0.66242-0.42439-0.14123 0.66645 0.73569 0.61295
  -4   7 -10   14.20    1.32   1-0.62135-0.38012-0.37106 0.43502-0.69009-0.81624
   4  -7  11   10.93    1.60   1-0.46992-0.70317 0.71188-0.13538 0.52190 0.69801
  -4   7 -11    9.80    1.22   1-0.66232-0.43064-0.14226 0.70633 0.73558 0.56181
  -4   7 -11   10.24    1.03   1-0.59829-0.36339-0.44778 0.39900-0.66447-0.84186
  -4   6   9    0.67    0.60   1-0.30455-0.01746-0.89041-0.87286-0.33824 0.48764
  -4   6   9    0.31    1.05   1-0.33186-0.04839 0.86834 0.88747-0.36857 0.45830
  -4   6   8   16.79    1.09   1-0.25165 0.02906-0.92658-0.86830-0.27949 0.49518
  -4   6   8   16.76    1.42   1-0.34443-0.06697 0.85733 0.91705-0.38253 0.39308
   4  -6  -7    2.62    0.87   1-0.43001-0.70268 0.76616 0.66761 0.47758-0.24600
   4  -6  -7    1.67    0.62   1-0.63212-0.90306-0.32794-0.42897 0.70204-0.02127
  -4   6   7    1.63    0.70   1-0.36192-0.08977 0.84109 0.94255-0.40195 0.32176
   4  -6  -6    7.74    0.90   1-0.30692-0.57328 0.88859 0.74928 0.34087-0.33153
   4  -6  -6    5.32    0.68   1-0.64341-0.90828-0.27454-0.41617 0.71458 0.04251
  -4   6   6    6.46    1.09   1-0.38302-0.11694 0.81995 0.96193-0.42539 0.24699
   4  -6  -5    9.97    1.08   1-0.65314-0.91220-0.21725-0.39631 0.72539 0.10399
  -4   6   5   16.28    1.70   1 0.15178 0.41036-0.97393-0.79158-0.16858 0.45276
  -4   6   5   13.28    1.34   1-0.40838-0.14836 0.79215 0.97464-0.45355 0.16749
   4  -6  -4    0.32    0.39   1-0.66151-0.91421-0.15044-0.37040 0.73468 0.16432
  -4   6   4    0.57    0.52   1-0.01103 0.24194-0.99986-0.77668 0.01225 0.58157
  -4   6   4    0.56    0.79   1-0.43768-0.18372 0.75640 0.97941-0.48609 0.08362
   4  -6  -4    0.62    0.69   1-0.00281-0.25627 0.99999 0.77790-0.00312-0.57374
   4  -6  -3    3.52    0.69   1-0.66692-0.91328-0.08105-0.34192 0.74069 0.22136
  -4   6   3    4.78    0.76   1-0.16957 0.07738-0.96735-0.70362 0.18832 0.70634
  -4   6   3    4.64    0.93   1-0.47023-0.22234 0.71143 0.97496-0.52225-0.00386
   4  -6  -3    5.00    0.74   1-0.07408-0.32154 0.99385 0.73117-0.08227-0.60165
   4  -6  -2    0.70    0.56   1-0.66908-0.90908-0.01134-0.31311 0.74309 0.27480
  -4   6   2    1.02    0.37   1-0.30888-0.06795-0.88707-0.58280 0.34305 0.80976
  -4   6   2    1.11    0.63   1-0.50494-0.26312 0.65614 0.96019-0.56080-0.09375
   4  -6  -2    1.63    0.51   1-0.14610-0.38756 0.97587 0.67260-0.16226-0.63039
   4  -6  -1    6.39    0.64   1-0.66803-0.90168 0.05710-0.28556 0.74193 0.32466
  -4   6   1    6.99    0.59   1-0.41921-0.18468-0.77941-0.43479 0.46558 0.88138
  -4   6   1    6.98    0.67   1-0.54029-0.30453 0.58992 0.93448-0.60005-0.18435
   4  -6  -1    7.92    0.69   1-0.21697-0.45243 0.94596 0.60211-0.24097-0.65784
   4  -6   0    0.05    0.44   1-0.66402-0.89132 0.12333-0.26023 0.73747 0.37124
  -4   6   0   -0.04    0.35   1-0.50127-0.27281-0.66240-0.27718 0.55672 0.92127
  -4   6   0    0.13    0.59   1-0.57442-0.34474 0.51285 0.89793-0.63796-0.27360
   4  -6   0    0.02    0.62   1-0.28460-0.51406 0.90503 0.52059-0.31608-0.68170
   4  -6   1    6.09    0.83   1-0.65734-0.87829 0.18682-0.23765 0.73005 0.41486
  -4   6  -1    6.54    0.60   1-0.55844-0.33604-0.55089-0.12507 0.62021 0.93350
  -4   6  -1    6.13    0.71   1-0.60539-0.38177 0.42595 0.85154-0.67235-0.35932
   4  -6   1    5.64    0.69   1-0.34701-0.57047 0.85501 0.42997-0.38540-0.69977
   4  -6   2   10.63    1.05   1-0.64833-0.86292 0.24738-0.21799 0.72004 0.45588
  -4   6  -2   10.42    0.79   1-0.59669-0.38036-0.45254 0.01386 0.66269 0.92473
  -4   6  -2    9.32    0.84   1-0.63138-0.41383 0.33110 0.79721-0.70122-0.43953
   4  -6   2    9.71    0.79   1-0.40372-0.62128 0.79746 0.33135-0.44838-0.71007
   4  -6   3    5.35    0.72   1-0.63724-0.84548 0.30501-0.20126 0.70773 0.49460
  -4   6  -3    5.89    0.65   1-0.62160-0.41134-0.37014 0.13686 0.69036 0.90114
  -4   6  -3    5.42    0.56   1-0.65105-0.43956 0.23087 0.73750-0.72306-0.51271
   4  -6   3    5.41    0.65   1-0.45160-0.66309 0.73789 0.23126-0.50155-0.71191
   4  -6   4   30.35    2.08   1-0.62431-0.82621 0.35980-0.18738 0.69337 0.53128
  -4   6  -4   29.13    1.92   1-0.63753-0.43334-0.30365 0.24394 0.70805 0.86758
  -4   6  -4   30.12    1.90   1-0.66356-0.45873 0.12869 0.67569-0.73696-0.57706
   4  -6   4   27.32    1.90   1-0.49156-0.69698 0.67846 0.13131-0.54593-0.70495
   4  -6   5   22.14    1.79   1-0.60973-0.80527 0.41190-0.17618 0.67717 0.56612
  -4   6  -5   23.19    1.75   1-0.64758-0.44946-0.25170 0.33649 0.71921 0.82749
  -4   6  -5   23.65    1.57   1-0.66890-0.47040 0.02587 0.61356-0.74289-0.63423
   4  -6   5   22.11    1.60   1-0.52399-0.72334 0.62190 0.03423-0.58195-0.68963
   4  -6   6   24.44    1.45   1-0.59362-0.78281 0.46145-0.16753 0.65929 0.59927
  -4   6  -6   25.82    1.39   1-0.65294-0.46375-0.21861 0.41038 0.72516 0.78518
  -4   6  -6   25.56    1.43   1-0.66727-0.47510-0.07441 0.55397-0.74108-0.68365
   4  -6   6   26.09    1.62   1-0.54967-0.74296 0.57024-0.05793-0.61047-0.66681
   4  -6   7   13.02    1.36   1-0.57611-0.75895 0.50862-0.16127 0.63984 0.63085
  -4   6  -7   13.26    1.23   1-0.65688-0.47404-0.19045 0.47944 0.72954 0.73852
  -4   6  -7   13.68    1.04   1-0.65933-0.47350-0.17047 0.49861-0.73226-0.72606
   4  -6   7   13.09    1.08   1-0.56958-0.75680 0.52478-0.14391-0.63258-0.63759
   4  -6   8   14.46    1.38   1-0.55607-0.73400 0.55620-0.15380 0.61758 0.66149
  -4   6  -8   14.24    1.47   1-0.65921-0.48272-0.17156 0.53923 0.73212 0.69007
  -4   6  -8   15.51    1.28   1-0.64590-0.46639-0.26119 0.44859-0.71734-0.76238
   4  -6   8   16.03    1.51   1-0.58472-0.76587 0.48619-0.22302-0.64939-0.60306
   4  -6   9   11.84    1.32   1-0.53586-0.70748 0.59887-0.15189 0.59514 0.69021
  -4   6  -9   11.13    1.40   1-0.66044-0.49031-0.16055 0.59114 0.73350 0.64041
  -4   6  -9   12.12    1.26   1-0.62780-0.45463-0.34598 0.40451-0.69724-0.79351
   4  -6  10    9.66    1.31   1-0.51441-0.67970 0.63951-0.15201 0.57131 0.71755
  -4   6 -10    9.76    1.11   1-0.66090-0.49712-0.15628 0.63631 0.73401 0.58989
  -4   6 -10   11.18    0.91   1-0.60580-0.43897-0.42462 0.36656-0.67281-0.82032
   4  -6  11    0.35    0.81   1-0.49172-0.65070 0.67820-0.15409 0.54611 0.74352
  -4   6 -11    1.17    0.95   1-0.66074-0.50330-0.15785 0.67565 0.73382 0.53867
  -4   6 -11    0.83    0.78   1-0.58056-0.42005-0.49719 0.33470-0.64478-0.84351
   4  -6  12    1.53    1.24   1-0.46781-0.62047 0.71499-0.15806 0.51955 0.76813
  -4   6 -12    3.30    1.18   1-0.66001-0.50893-0.16449 0.70991 0.73302 0.48683
  -4   6 -12    2.96    0.89   1-0.55255-0.39908-0.56398 0.30892-0.61367-0.86330
  -4   5  10    0.42    0.58   1-0.36169-0.14261-0.84131-0.87946-0.40170 0.45409
  -4   5  10    0.53    0.74   1-0.30736-0.09217 0.88825 0.85210-0.34135 0.51518
   4  -5  -9    0.04    0.86   1-0.50489-0.71593 0.65623 0.65419 0.56074-0.24386
   4  -5  -9    0.41    0.93   1-0.50909-0.71790-0.64895-0.65383 0.56540-0.23896
  -4   5   9    0.18    0.55   1-0.31096-0.09824-0.88545-0.88287-0.34536 0.45921
  -4   5   9    0.33    0.70   1-0.31720-0.10801 0.88049 0.88493-0.35228 0.45301
   4  -5  -8    2.24    0.95   1-0.43194-0.63666 0.76372 0.72092 0.47972-0.27371
   4  -5  -8    1.90    0.65   1-0.52596-0.72871-0.61816-0.66364 0.58414-0.16896
  -4   5   8    1.75    0.56   1-0.25498-0.04863-0.92454-0.88123-0.28319 0.47017
  -4   5   8    1.55    0.96   1-0.33158-0.12840 0.86858 0.91360-0.36826 0.38578
   4  -5  -7    6.49    0.99   1-0.34013-0.53853 0.86116 0.77760 0.37775-0.32452
   4  -5  -7    5.76    0.85   1-0.54716-0.74384-0.57560-0.66168 0.60768-0.09417
  -4   5   7    4.84    0.76   1-0.35079-0.15361 0.85156 0.93718-0.38959 0.31320
   4  -5  -6    0.27    0.44   1-0.57114-0.76176-0.52098-0.64765 0.63432-0.01628
  -4   5   6    0.36    0.81   1-0.37562-0.18387 0.82757 0.95476-0.41717 0.23371
   4  -5  -5    0.92    0.43   1-0.59592-0.78047-0.45479-0.62206 0.66184 0.06248
  -4   5   5    1.21    0.50   1 0.09364 0.27799-0.99015-0.82272-0.10400 0.49582
  -4   5   5    0.83    0.58   1-0.40466-0.21897 0.79640 0.96411-0.44942 0.15012
   4  -5  -4    8.33    0.65   1-0.61929-0.79777-0.37868-0.58654 0.68779 0.13970
  -4   5   4    8.91    0.80   1-0.04660 0.13210-0.99757-0.78929 0.05176 0.59963
  -4   5   4    8.12    0.91   1-0.43813-0.25851 0.75581 0.96403-0.48659 0.06161
   4  -5  -4    9.18    0.71   1-0.02405-0.20322 0.99935 0.79196-0.02671-0.57575
   4  -5  -3   39.21    1.69   1-0.63928-0.81168-0.29534-0.54380 0.70999 0.21314
  -4   5   3   44.04    1.92   1-0.18476-0.01207-0.96112-0.71230 0.20520 0.70177
  -4   5   3   41.50    2.37   1-0.47506-0.30151 0.70422 0.95296-0.52761-0.03073
   4  -5  -3   43.70    1.88   1-0.10376-0.27694 0.98790 0.73992-0.11524-0.61304
   4  -5  -2   18.37    1.04   1-0.65361-0.81937-0.21410-0.50078 0.72591 0.27900
  -4   5   2   20.15    1.04   1-0.30984-0.14318-0.88633-0.59696 0.34411 0.78939
  -4   5   2   19.43    1.32   1-0.51390-0.34641 0.64042 0.92968-0.57074-0.12520
   4  -5  -2   20.64    1.13   1-0.18415-0.35133 0.96138 0.67280-0.20452-0.65107
   4  -5  -1   22.80    1.13   1-0.66378-0.82319-0.12611-0.45369 0.73721 0.34133
  -4   5   1   23.51    1.14   1-0.41263-0.25235-0.78722-0.45756 0.45827 0.85261
  -4   5   1   23.04    1.37   1-0.55254-0.39112 0.56401 0.89378-0.61366-0.21946
   4  -5  -1   24.92    1.19   1-0.26242-0.42359 0.91988 0.59072-0.29144-0.68673
   4  -5   0   31.80    1.31   1-0.66860-0.82165-0.03980-0.40829 0.74255 0.39771
  -4   5   0   31.78    1.34   1-0.49206-0.33786-0.67764-0.30739 0.54649 0.88958
  -4   5   0   30.26    1.37   1-0.58856-0.43321 0.47571 0.84600-0.65367-0.31080
   4  -5   0   29.44    1.59   1-0.33559-0.49076 0.86513 0.49538-0.37271-0.71675
   4  -5   1   35.65    1.46   1-0.66850-0.81521 0.04313-0.36625 0.74245 0.44864
  -4   5  -1   38.66    1.68   1-0.54930-0.40116-0.57104-0.16019 0.61005 0.90188
  -4   5  -1   36.60    1.44   1-0.61961-0.47032 0.37753 0.78834-0.68814-0.39662
   4  -5   1   37.88    1.48   1-0.40223-0.55151 0.79915 0.38834-0.44672-0.73825
   4  -5   2   38.43    1.54   1-0.66414-0.80450 0.12179-0.32849 0.73761 0.49484
  -4   5  -2   40.50    1.57   1-0.58870-0.44663-0.47533-0.02388 0.65382 0.89439
  -4   5  -2   38.45    1.73   1-0.64380-0.50058 0.27252 0.72385-0.71501-0.47482
   4  -5   2   39.51    1.58   1-0.45830-0.60152 0.72861 0.27729-0.50899-0.74918
   4  -5   3    6.97    0.73   1-0.65617-0.79017 0.19584-0.29535 0.72875 0.53701
  -4   5  -3    7.80    0.69   1-0.61498-0.47898-0.39405 0.09798 0.68301 0.87233
  -4   5  -3    7.42    0.69   1-0.65991-0.52315 0.16534 0.65674-0.73291-0.54312
   4  -5   3    7.37    0.69   1-0.50441-0.64156 0.65706 0.16522-0.56020-0.74906
   4  -5   4   16.93    1.22   1-0.64515-0.77281 0.26526-0.26682 0.71652 0.57581
  -4   5  -4   16.90    1.16   1-0.63214-0.50221-0.32784 0.20479 0.70207 0.84014
  -4   5  -4   16.75    0.90   1-0.66804-0.53761 0.05687 0.58897-0.74194-0.60338
   4  -5   4   16.61    1.02   1-0.54099-0.67207 0.58849 0.05613-0.60083-0.73834
   4  -5   5    7.56    0.98   1-0.63157-0.75287 0.33028-0.24270 0.70143 0.61177
  -4   5  -5    7.62    0.72   1-0.64318-0.51931-0.27577 0.29746 0.71432 0.80114
  -4   5  -5    7.77    0.58   1-0.66834-0.54424-0.04854 0.52425-0.74226-0.65495
   4  -5   5    7.00    0.68   1-0.56914-0.69416 0.52585-0.04701-0.63209-0.71827
   4  -5   6    8.69    0.85   1-0.61580-0.73075 0.39119-0.22270 0.68392 0.64529
  -4   5  -6    7.81    0.76   1-0.65017-0.53237-0.23631 0.37752 0.72209 0.75765
  -4   5  -6    8.68    0.59   1-0.66167-0.54390-0.14887 0.46462-0.73486-0.69877
   4  -5   6    8.12    0.71   1-0.59028-0.70924 0.47093-0.14246-0.65557-0.69042
   4  -5   7    0.53    0.62   1-0.59812-0.70672 0.44830-0.20649 0.66428 0.67668
  -4   5  -7    1.01    0.59   1-0.65357-0.54497-0.21438 0.44042 0.72586 0.71346
  -4   5  -7    1.01    0.49   1-0.64909-0.53765-0.24289 0.41130-0.72088-0.73603
   4  -5   7    0.18    0.72   1-0.60584-0.71872 0.42452-0.22938-0.67285-0.65636
   4  -5   8    9.04    1.20   1-0.57873-0.68098 0.50192-0.19378 0.64275 0.70619
  -4   5  -8    9.71    0.97   1-0.65623-0.55399-0.19535 0.50035 0.72882 0.66538
  -4   5  -8    9.41    0.89   1-0.63163-0.52653-0.33004 0.36485-0.70150-0.76788
   4  -5   9    2.25    0.75   1-0.55663-0.65397 0.55496-0.18082 0.61820 0.73458
  -4   5  -9    2.45    0.99   1-0.65766-0.56177-0.18431 0.55229 0.73041 0.61594
  -4   5  -9    2.49    0.70   1-0.61022-0.51145-0.41026 0.32534-0.67772-0.79534
   4  -5  10    2.66    0.81   1-0.53415-0.62517 0.60229-0.17426 0.59323 0.76077
  -4   5 -10    2.11    1.02   1-0.65818-0.56864-0.18012 0.59739 0.73098 0.56548
  -4   5 -10    2.90    0.69   1-0.58562-0.49318-0.48375 0.29255-0.65040-0.81925
   4  -5  11    0.72    1.16   1-0.51028-0.59499 0.64685-0.17046 0.56673 0.78544
  -4   5 -11    1.39    1.07   1-0.65797-0.57478-0.18185 0.63656 0.73075 0.51421
  -4   5 -11    1.60    0.58   1-0.55841-0.47294-0.55095 0.26625-0.62018-0.83989
   4  -5  12    8.01    1.18   1-0.48507-0.56347 0.68881-0.16926 0.53873 0.80861
  -4   5 -12    9.32    1.30   1-0.65710-0.58026-0.18875 0.67056 0.72978 0.46221
  -4   5 -12    9.47    1.03   1-0.52909-0.44999-0.61218 0.24576-0.58761-0.85854
   4  -4 -11    1.67    1.14   1-0.55268-0.70208 0.56370 0.65817 0.61381-0.27181
   4  -4 -11    1.24    0.80   1-0.39952-0.54614-0.80218-0.71171 0.44371-0.44179
  -4   4  11    0.93    0.86   1-0.42361-0.27254-0.77408-0.86793-0.47047 0.41522
  -4   4  11    0.48    1.06   1-0.28739-0.14049 0.90306 0.81162-0.31918 0.56703
   4  -4 -10   11.76    1.45   1-0.50422-0.64730 0.65739 0.71109 0.55999-0.27447
   4  -4 -10    9.02    1.14   1-0.40567-0.54630-0.79525-0.74457 0.45054-0.38361
  -4   4  10    9.20    1.15   1-0.37699-0.23228-0.82617-0.87929-0.41869 0.41579
  -4   4  10    8.47    1.23   1-0.29407-0.15316 0.89825 0.84740-0.32659 0.50836
   4  -4  -9    9.21    1.15   1-0.44448-0.58125 0.74748 0.76042 0.49365-0.28965
   4  -4  -9    7.04    1.01   1-0.41868-0.55324-0.78005-0.76997 0.46499-0.31791
  -4   4   9    7.24    0.96   1-0.32455-0.18620-0.87449-0.88687-0.36045 0.42281
  -4   4   9    6.52    1.01   1-0.30551-0.17061 0.88968 0.87942-0.33930 0.44441
   4  -4  -8   18.37    1.28   1-0.37173-0.50218 0.83148 0.80365 0.41285-0.31928
   4  -4  -8   15.32    1.61   1-0.43774-0.56623-0.75632-0.78683 0.48616-0.24548
  -4   4   8   14.77    1.11   1-0.26565-0.13367-0.91781-0.88946-0.29504 0.43701
  -4   4   8   14.39    1.24   1-0.32217-0.19327 0.87645 0.90679-0.35780 0.37465
   4  -4  -7    2.86    0.76   1-0.28447-0.40861 0.90512 0.83653 0.31594-0.36502
   4  -4  -7    2.59    0.57   1-0.46251-0.58494-0.72264-0.79375 0.51367-0.16672
  -4   4   7    2.29    0.78   1-0.34441-0.22152 0.85735 0.92828-0.38251 0.29870
   4  -4  -6   45.32    2.21   1-0.49213-0.60848-0.67754-0.78925 0.54657-0.08257
  -4   4   6   49.33    2.81   1 0.17702 0.29314-0.96437-0.85240-0.19660 0.43298
  -4   4   6   42.05    2.51   1-0.37306-0.25565 0.83014 0.94254-0.41433 0.21504
   4  -4  -5    5.55    0.58   1-0.52504-0.63533-0.61991-0.77221 0.58312 0.00523
  -4   4   5    6.45    0.76   1 0.06114 0.17161-0.99581-0.84299-0.06791 0.50981
  -4   4   5    5.55    0.70   1-0.40670-0.29535 0.79407 0.94699-0.45169 0.12635
   4  -4  -5    6.24    0.61   1 0.04431-0.06657 0.99780 0.84569 0.04921-0.52949
   4  -4  -4   20.72    1.15   1-0.55904-0.66326-0.54952-0.74242 0.62088 0.09424
  -4   4   4   22.99    1.42   1-0.06210 0.04233-0.99568-0.80231 0.06897 0.59539
  -4   4   4   21.60    1.47   1-0.44527-0.33998 0.74644 0.93988-0.49452 0.03218
   4  -4  -4   21.39    1.17   1-0.04218-0.14708 0.99801 0.80531-0.04685-0.57431
   4  -4  -3   29.34    1.25   1-0.59150-0.68965-0.46750-0.70100 0.65693 0.18154
  -4   4   3   30.42    1.30   1-0.18558-0.08717-0.96076-0.72685 0.20611 0.68123
  -4   4   3   30.08    1.51   1-0.48728-0.38806 0.68532 0.91927-0.54118-0.06581
   4  -4  -3   30.33    1.34   1-0.13249-0.23138 0.98019 0.74690-0.14715-0.62336
   4  -4  -2    1.03    0.38   1-0.61991-0.71200-0.37641-0.65051 0.68848 0.26435
  -4   4   2    0.85    0.35   1-0.30014-0.20776-0.89375-0.61928 0.33334 0.75717
  -4   4   2    0.79    0.44   1-0.53043-0.43728 0.60957 0.88404-0.58911-0.16507
   4  -4  -2    1.13    0.56   1-0.22320-0.31609 0.94272 0.66884-0.24788-0.67285
   4  -4  -1   12.19    0.78   1-0.64240-0.72842-0.27976-0.59446 0.71346 0.34059
  -4   4   1   11.63    0.78   1-0.39829-0.31193-0.80355-0.48853 0.44234 0.81487
  -4   4   1   11.84    0.88   1-0.57177-0.48469 0.51943 0.83442-0.63502-0.26232
   4  -4  -1   11.94    0.84   1-0.31004-0.39693 0.88617 0.57170-0.34433-0.71805
   4  -4   0    0.68    0.52   1-0.65720-0.73601-0.18798-0.54137 0.72989 0.40644
  -4   4   0    0.72    0.48   1-0.47563-0.39568-0.70336-0.34807 0.52824 0.84986
  -4   4   0    0.68    0.53   1-0.60818-0.52716 0.41696 0.77246-0.67546-0.35409
   4  -4   0    0.47    0.59   1-0.38996-0.47098 0.81261 0.45711-0.43310-0.75446
   4  -4   1    8.32    0.78   1-0.66635-0.73882-0.09093-0.48523 0.74006 0.46764
  -4   4  -1    8.23    0.66   1-0.53402-0.46014-0.60254-0.20665 0.59309 0.86346
  -4   4  -1    8.47    0.65   1-0.63706-0.56211 0.30584 0.70186-0.70753-0.43750
   4  -4   1    8.92    0.72   1-0.45730-0.53225 0.73001 0.33399-0.50788-0.77791
   4  -4   2    0.10    0.57   1-0.66912-0.73524 0.00254-0.43265 0.74314 0.52175
  -4   4  -2   -0.06    0.53   1-0.57557-0.50776-0.50998-0.07349 0.63924 0.85835
  -4   4  -2    0.04    0.34   1-0.65662-0.58792 0.19241 0.62822-0.72925-0.50958
   4  -4   2   -0.06    0.57   1-0.51187-0.58076 0.64404 0.20751-0.56849-0.78718
   4  -4   3    7.41    0.83   1-0.66634-0.72610 0.09112-0.38497 0.74005 0.56970
  -4   4  -3    7.85    0.79   1-0.60412-0.54237-0.42995 0.04713 0.67094 0.83881
  -4   4  -3    7.80    0.67   1-0.66713-0.60477 0.07711 0.55362-0.74093-0.57249
   4  -4   3    7.81    0.80   1-0.55400-0.61682 0.56081 0.08375-0.61528-0.78263
   4  -4   4    9.38    0.92   1-0.65889-0.71230 0.17421-0.34278 0.73178 0.61246
  -4   4  -4   10.16    0.74   1-0.62326-0.56758-0.36385 0.15382 0.69220 0.80881
  -4   4  -4    9.60    0.60   1-0.66873-0.61270-0.03416 0.48304-0.74271-0.62550
   4  -4   4    9.88    0.79   1-0.58525-0.64200 0.48476-0.03280-0.64998-0.76599
   4  -4   5    7.31    0.91   1-0.64758-0.69464 0.25171-0.30619 0.71921 0.65093
  -4   4  -5    7.56    0.70   1-0.63587-0.58626-0.31133 0.24694 0.70621 0.77156
  -4   4  -5    7.61    0.55   1-0.66263-0.61293-0.13901 0.41889-0.73592-0.66995
   4  -4   5    7.34    0.77   1-0.60771-0.65840 0.41850-0.13958-0.67493-0.73961
   4  -4   6   29.86    2.02   1-0.63307-0.67378 0.32382-0.27498 0.70310 0.68585
  -4   4  -6   32.18    2.19   1-0.64405-0.60051-0.27120 0.32767 0.71529 0.72939
  -4   4  -6   30.62    1.87   1-0.65020-0.60683-0.23617 0.36243-0.72212-0.70738
   4  -4   6   30.94    1.98   1-0.62348-0.66810 0.36302-0.23558-0.69244-0.70578
   4  -4   7   23.84    1.41   1-0.61589-0.65025 0.39087-0.24883 0.68402 0.71781
  -4   4  -7   24.69    1.49   1-0.64924-0.61177-0.24197 0.39750 0.72106 0.68390
  -4   4  -7   25.99    1.37   1-0.63275-0.59571-0.32523 0.31408-0.70274-0.73923
   4  -4   7   24.00    1.42   1-0.63434-0.67289 0.31823-0.32088-0.70450-0.66651
   4  -4   8   14.49    1.11   1-0.59644-0.62445 0.45326-0.22734 0.66242 0.74724
  -4   4  -8   14.14    1.05   1-0.65131-0.62331-0.22922 0.45139 0.72335 0.63853
  -4   4  -8   14.54    1.00   1-0.61139-0.58068-0.40635 0.27365-0.67902-0.76675
   4  -4   9   12.17    1.42   1-0.57502-0.59667 0.51138-0.21013 0.63862 0.77448
  -4   4  -9   12.35    1.20   1-0.65308-0.63142-0.21770 0.50381 0.72532 0.58946
  -4   4  -9   13.81    1.17   1-0.58700-0.56262-0.48001 0.24069-0.65193-0.79089
   4  -4  10   11.01    1.48   1-0.55064-0.56740 0.56815-0.19342 0.61154 0.80040
  -4   4 -10   11.37    1.24   1-0.65375-0.63844-0.21316 0.54925 0.72606 0.53917
  -4   4 -10   12.61    1.20   1-0.56021-0.54275-0.54685 0.21466-0.62218-0.81199
   4  -4  11    8.81    1.28   1-0.52571-0.53616 0.61864-0.18370 0.58386 0.82388
  -4   4 -11    8.70    1.20   1-0.65352-0.64457-0.21469 0.58863 0.72581 0.48788
  -4   4 -11    9.65    1.18   1-0.53154-0.52045-0.60741 0.19483-0.59034-0.83136
   4  -4  11    7.61    1.15   1-0.65130-0.66301 0.22925-0.57285-0.72335-0.48191
   4  -4  12    7.90    1.18   1-0.49926-0.50339 0.66579-0.17731 0.55448 0.84566
  -4   4 -12    8.28    1.10   1-0.65250-0.64990-0.22151 0.62270 0.72468 0.43572
  -4   4 -12    9.05    1.03   1-0.50130-0.49657-0.66235 0.18062-0.55675-0.84899
   4  -4  12    7.20    1.09   1-0.65197-0.65735 0.22495-0.61785-0.72409-0.43143
   4  -3 -11    8.48    1.41   1-0.51180-0.58693 0.64417 0.75362 0.56841-0.29591
   4  -3 -11    5.09    1.23   1-0.32624-0.39859-0.87308-0.76771 0.36232-0.50173
  -4   3  11    6.85    0.91   1-0.44701-0.37030-0.74411-0.85293-0.49645 0.36793
   4  -3 -10   15.62    1.13   1-0.46155-0.53036 0.72402 0.79270 0.51260-0.30056
   4  -3 -10   12.73    1.27   1-0.33282-0.39914-0.86751-0.80269 0.36964-0.44312
  -4   3  10   12.88    0.96   1-0.40058-0.33024-0.80099-0.86908-0.44489 0.36828
  -4   3  10   11.65    1.39   1-0.28438-0.21776 0.90519 0.83965-0.31583 0.49755
   4  -3  -9    7.17    0.98   1-0.40187-0.46437 0.79955 0.82747 0.44632-0.31567
   4  -3  -9    5.24    0.83   1-0.34534-0.40564-0.85652-0.83224 0.38354-0.37792
  -4   3   9    5.65    0.76   1-0.34727-0.28329-0.85478-0.88213-0.38568 0.37627
  -4   3   9    4.63    0.82   1-0.29792-0.23731 0.89540 0.87046-0.33088 0.43125
   4  -3  -8    0.85    0.77   1-0.33158-0.38776 0.86858 0.85573 0.36825-0.34257
   4  -3  -8    1.11    0.55   1-0.36411-0.41838-0.83897-0.85525 0.40439-0.30578
  -4   3   8    0.93    0.68   1-0.28600-0.22838-0.90405-0.89067-0.31763 0.39311
  -4   3   8    1.11    0.61   1-0.31756-0.26294 0.88020 0.89585-0.35268 0.35820
   4  -3  -7    0.48    0.47   1-0.24975-0.29961 0.92773 0.87411 0.27737-0.38229
   4  -3  -7    0.16    0.64   1-0.38924-0.43748-0.81339-0.87021 0.43229-0.22657
  -4   3   7    0.38    0.67   1-0.34378-0.29517 0.85792 0.91415-0.38181 0.27782
   4  -3  -6    4.13    0.55   1-0.41966-0.46175-0.77887-0.87563 0.46608-0.14160
  -4   3   6    4.83    0.63   1 0.15143 0.19333-0.97405-0.87699-0.16818 0.43987
  -4   3   6    4.39    0.83   1-0.37740-0.33432 0.82575 0.92336-0.41915 0.18872
   4  -3  -5    8.54    0.69   1-0.45604-0.49207-0.73176-0.86911 0.50649-0.04993
  -4   3   5    8.00    0.80   1 0.04696 0.08315-0.99753-0.85961-0.05215 0.50412
  -4   3   5    8.02    0.82   1-0.41692-0.37990 0.78215 0.92028-0.46303 0.09350
   4  -3  -5    9.26    0.72   1 0.04299 0.00638 0.99793 0.86051 0.04775-0.50938
   4  -3  -4    0.64    0.37   1-0.49587-0.52584-0.67141-0.84936 0.55072 0.04555
  -4   3   4    0.68    0.50   1-0.06363-0.03347-0.99546-0.81700 0.07067 0.57565
  -4   3   4    0.80    0.46   1-0.46171-0.43076 0.72378 0.90243-0.51278-0.00758
   4  -3  -4    0.75    0.52   1-0.05589-0.08650 0.99650 0.81849-0.06207-0.56795
   4  -3  -3    3.61    0.47   1-0.53665-0.56055-0.59729-0.81583 0.59601 0.14209
  -4   3   3    3.20    0.56   1-0.17543-0.15129-0.96501-0.74600 0.19483 0.64852
  -4   3   3    3.50    0.67   1-0.50937-0.48449 0.64845 0.86761-0.56572-0.11185
   4  -3  -3    3.66    0.48   1-0.15998-0.18459 0.97099 0.75239-0.17768-0.63231
   4  -3  -2   10.03    0.77   1-0.57541-0.59323-0.51039-0.76953 0.63905 0.23638
  -4   3   2    9.70    0.80   1-0.28143-0.26332-0.90724-0.64768 0.31256 0.71495
  -4   3   2   10.41    0.80   1-0.55634-0.53753 0.55560 0.81528-0.61788-0.21535
   4  -3  -2    9.67    0.70   1-0.26377-0.28237 0.91902 0.65983-0.29294-0.69633
   4  -3  -1   55.49    1.77   1-0.60929-0.62105-0.41335-0.71308 0.67668 0.32527
  -4   3   1   52.93    1.81   1-0.37517-0.36309-0.82802-0.52791 0.41667 0.76776
  -4   3   1   56.81    1.73   1-0.59848-0.58573 0.44722 0.74742-0.66468-0.31348
   4  -3  -1   56.48    1.65   1-0.36178-0.37453 0.84122 0.54103-0.40180-0.75299
   4  -3   0   31.09    1.15   1-0.63618-0.64187-0.30993-0.65026 0.70655 0.40639
  -4   3   0   29.91    1.22   1-0.45182-0.44613-0.73759-0.39726 0.50180 0.80196
  -4   3   0   29.84    1.49   1-0.63213-0.62545 0.32790 0.66861-0.70205-0.40219
   4  -3   0   32.59    1.41   1-0.44531-0.45200 0.74638 0.40566-0.49457-0.79443
   4  -3   1   47.01    1.44   1-0.65403-0.65225-0.21123-0.59043 0.72637 0.47534
  -4   3  -1   48.44    1.57   1-0.51199-0.51236-0.64384-0.26291 0.56862 0.81753
  -4   3  -1   49.00    1.41   1-0.65472-0.65409 0.20635 0.58657-0.72715-0.47758
   4  -3   1   50.70    1.92   1-0.51227-0.51289 0.64333 0.26210-0.56893-0.81746
   4  -3   2   64.70    1.67   1-0.66529-0.65716-0.10690-0.52700 0.73888 0.53888
  -4   3  -2   63.06    1.70   1-0.55642-0.56287-0.55542-0.13389 0.61797 0.81562
  -4   3  -2   62.62    1.73   1-0.66683-0.67253 0.08270 0.50362-0.74059-0.54227
   4  -3   2   63.90    1.84   1-0.56241-0.55697 0.54177 0.12003-0.62462-0.82181
   4  -3   3   17.09    1.09   1-0.66911-0.65463-0.00634-0.46735 0.74313 0.59416
  -4   3  -3   16.39    0.87   1-0.58801-0.60052-0.47723-0.01510 0.65306 0.79945
  -4   3  -3   16.12    0.76   1-0.66871-0.68074-0.03517 0.42644-0.74268-0.59559
   4  -3   3   16.45    0.84   1-0.59792-0.58640 0.44890-0.01335-0.66405-0.80990
   4  -3   4   43.75    1.90   1-0.66648-0.64565 0.08885-0.41305 0.74020 0.64227
  -4   3  -4   42.73    1.86   1-0.60987-0.62844-0.41144 0.09128 0.67732 0.77247
  -4   3  -4   42.42    1.61   1-0.66210-0.68046-0.14451 0.35779-0.73534-0.63948
   4  -3   4   43.17    1.74   1-0.62199-0.60441 0.36868-0.13409-0.69079-0.78530
   4  -3   5   15.85    1.05   1-0.65845-0.63126 0.17796-0.36485 0.73128 0.68438
  -4   3  -5   16.76    1.03   1-0.62468-0.64933-0.35837 0.18494 0.69378 0.73767
  -4   3  -5   15.67    0.89   1-0.64887-0.67356-0.24419 0.29882-0.72064-0.67602
   4  -3   5   15.19    0.88   1-0.63780-0.61415 0.30240-0.24089-0.70835-0.75152
   4  -3   6    8.61    0.96   1-0.64597-0.61243 0.26081-0.32290 0.71742 0.72156
  -4   3  -6    8.29    0.74   1-0.63455-0.66526-0.31730 0.26661 0.70474 0.69738
  -4   3  -6    8.31    0.68   1-0.63066-0.66169-0.33417 0.24954-0.70042-0.70703
   4  -3   6    7.23    0.84   1-0.64793-0.61822 0.24968-0.33413-0.71960-0.71144
   4  -3   7   14.47    1.34   1-0.62984-0.58996 0.33759-0.28702 0.69951 0.75469
  -4   3  -7   14.17    1.15   1-0.64097-0.67775-0.28702 0.33748 0.71187 0.65325
  -4   3  -7   14.72    1.15   1-0.60877-0.64613-0.41506 0.20935-0.67610-0.73395
   4  -3   7   14.60    1.13   1-0.65427-0.61691 0.20954-0.41487-0.72664-0.66880
   4  -3   8    6.40    1.01   1-0.61070-0.56447 0.40865-0.25686 0.67826 0.78446
  -4   3  -8    7.48    0.98   1-0.64498-0.68782-0.26623 0.39887 0.71632 0.60645
  -4   3  -8    7.71    0.80   1-0.58415-0.62784-0.48770 0.17741-0.64876-0.75784
   4  -3   8    6.72    0.87   1-0.65822-0.61453 0.17981-0.48530-0.73103-0.62195
   4  -3   9   -0.25    0.64   1-0.58902-0.53644 0.47443-0.23198 0.65418 0.81142
  -4   3  -9   -0.06    0.88   1-0.64723-0.69615-0.25369 0.45201 0.71883 0.55771
  -4   3  -9    0.07    0.47   1-0.55749-0.60804-0.55302 0.15279-0.61916-0.77906
   4  -3   9    0.03    0.83   1-0.66057-0.61054 0.15944-0.54637-0.73363-0.57332
   4  -3  10    4.59    0.90   1-0.56405-0.50654 0.53797-0.20862 0.62644 0.83659
  -4   3 -10    4.94    1.09   1-0.64817-0.70316-0.24829 0.49800 0.71987 0.50749
  -4   3 -10    5.90    0.78   1-0.52925-0.58616-0.61186 0.13468-0.58780-0.79891
   4  -3  10    5.19    0.86   1-0.66185-0.60549 0.14709-0.59942-0.73506-0.52351
   4  -3  11    0.38    0.79   1-0.53811-0.47428 0.59436-0.19300 0.59763 0.85895
  -4   3 -11    1.09    1.02   1-0.64803-0.70908-0.24914 0.53776 0.71971 0.45608
  -4   3 -11    1.08    0.61   1-0.49974-0.56301-0.66499 0.12229-0.55501-0.81734
   4  -3  11    0.75    0.72   1-0.66238-0.59969 0.14165-0.64556-0.73565-0.47287
   4  -3  12    0.25    1.21   1-0.51039-0.44025 0.64665-0.18147 0.56685 0.87934
  -4   3 -12    1.14    1.07   1-0.64692-0.71404-0.25545 0.57204 0.71848 0.40360
  -4   3 -12    0.37    0.92   1-0.46913-0.53877-0.71305 0.11496-0.52102-0.83457
   4  -3  12    1.51    0.78   1-0.66233-0.59331 0.14217-0.68574-0.73559-0.42158
   4  -2 -12    7.42    0.98   1-0.52366-0.53083 0.62252 0.78770 0.58158-0.31261
   4  -2 -12    6.24    0.84   1-0.26817-0.27227-0.91617-0.75534 0.29783-0.59608
  -4   2  12    6.88    0.99   1-0.51692-0.50822-0.63497-0.79948-0.57410 0.32019
  -4   2  12    5.10    0.92   1-0.26540-0.26107 0.91797 0.75656-0.29476 0.59954
   4  -2 -11   21.67    2.03   1-0.48068-0.48154 0.69565 0.82007 0.53385-0.30917
   4  -2 -11   16.22    1.74   1-0.26883-0.26690-0.91574-0.79546 0.29856-0.54405
  -4   2  11   16.94    1.74   1-0.47888-0.47654-0.69843-0.82221-0.53185 0.31123
  -4   2  11   15.31    1.72   1-0.26973-0.27140 0.91515 0.79433-0.29956 0.54348
   4  -2 -10    1.31    0.95   1-0.43062-0.42517 0.76539 0.84904 0.47826-0.31360
   4  -2 -10    1.26    0.86   1-0.27469-0.26674-0.91184-0.83211 0.30508-0.48624
  -4   2  10    1.28    0.75   1-0.43426-0.43829-0.76078-0.84384-0.48230 0.30957
  -4   2  10    1.39    0.94   1-0.27972-0.28739 0.90842 0.82819-0.31066 0.48113
   4  -2  -9    2.65    0.64   1-0.37263-0.36086 0.83057 0.87347 0.41385-0.32683
   4  -2  -9    2.81    0.82   1-0.28625-0.27227-0.90387-0.86469 0.31791-0.42210
  -4   2   9    2.82    0.74   1-0.38167-0.39206-0.82136-0.86368-0.42389 0.31676
  -4   2   9    2.12    0.66   1-0.29617-0.30984 0.89670 0.85706-0.32893 0.41162
   4  -2  -8   31.50    2.03   1-0.30588-0.28780 0.88939 0.89151 0.33972-0.34980
   4  -2  -8   29.57    1.94   1-0.30397-0.28396-0.89086-0.89222 0.33759-0.35113
  -4   2   8   27.03    1.87   1-0.31938-0.33613-0.87873-0.88032-0.35471 0.33473
  -4   2   8   26.73    2.15   1-0.31989-0.33956 0.87832 0.87927-0.35527 0.33403
   4  -2  -7   12.42    1.16   1-0.32821-0.30218-0.87143-0.91334 0.36452-0.27291
  -4   2   7   11.10    0.89   1-0.24541-0.26853-0.93031-0.89116-0.27256 0.36566
  -4   2   7   11.55    1.17   1-0.35155-0.37722 0.85086 0.89240-0.39043 0.24761
   4  -2  -6   35.52    1.74   1-0.35909-0.32703-0.84380-0.92626 0.39881-0.18731
  -4   2   6   36.73    1.82   1 0.13980 0.10747-0.97793-0.89579-0.15526 0.43128
  -4   2   6   31.63    2.32   1-0.39189-0.42314 0.81054 0.89336-0.43524 0.15113
   4  -2  -5    9.65    0.69   1-0.39621-0.35813-0.80583-0.92884 0.44004-0.09479
  -4   2   5    9.93    0.74   1 0.04522 0.00714-0.99771-0.87470-0.05023 0.48460
  -4   2   5    9.19    1.11   1-0.43905-0.47637 0.75462 0.87796-0.48761 0.04742
   4  -2  -4   63.37    2.58   1-0.43770-0.39340-0.75637-0.91936 0.48611 0.00240
  -4   2   4   62.65    2.66   1-0.05464-0.09875-0.99665-0.83310 0.06069 0.54422
  -4   2   4   66.69    2.71   1-0.49126-0.53465 0.67894 0.84280-0.54560-0.06190
   4  -2  -4   69.49    2.91   1-0.06278-0.01911 0.99558 0.83227-0.06973-0.55403
   4  -2  -3   13.62    0.80   1-0.48310-0.43273-0.69190-0.89549 0.53653 0.10407
  -4   2   3   13.34    0.87   1-0.15644-0.20658-0.97228-0.76818 0.17374 0.60598
  -4   2   3   12.91    1.14   1-0.54429-0.59374 0.58165 0.78602-0.60450-0.17213
   4  -2  -3   12.85    0.81   1-0.18573-0.13605 0.96070 0.75680-0.20627-0.63933
   4  -2  -2   41.99    1.29   1-0.52876-0.47233-0.61282-0.85700 0.58724 0.20604
  -4   2   2   43.72    1.50   1-0.25487-0.31103-0.92461-0.67996 0.28306 0.66400
  -4   2   2   45.00    1.58   1-0.59257-0.64808 0.46447 0.70936-0.65811-0.27708
   4  -2  -2   41.81    1.49   1-0.30669-0.25102 0.88877 0.64427-0.34062-0.72242
   4  -2  -1   35.03    1.19   1-0.57142-0.50892-0.52031-0.80509 0.63462 0.30467
  -4   2   1   36.23    1.52   1-0.34451-0.40670-0.85726-0.57206 0.38262 0.71227
  -4   2   1   35.69    1.63   1-0.63083-0.69242 0.33343 0.61884-0.70061-0.37092
   4  -2  -1   36.89    1.47   1-0.41579-0.35421 0.78349 0.49808-0.46178-0.79148
   4  -2   0    4.38    0.61   1-0.60807-0.53951-0.41733-0.74270 0.67533 0.39663
  -4   2   0    4.13    0.48   1-0.42048-0.48905-0.77788-0.45251 0.46699 0.74569
  -4   2   0    4.32    0.46   1-0.65548-0.72291 0.20092 0.52554-0.72798-0.44854
   4  -2   0    4.37    0.55   1-0.50215-0.43450 0.66092 0.33499-0.55769-0.83605
   4  -2   1   14.93    0.81   1-0.63660-0.56197-0.30796-0.67393 0.70702 0.47958
  -4   2  -1   14.29    0.85   1-0.48255-0.55719-0.69275-0.32678 0.53593 0.76337
  -4   2  -1   15.23    0.79   1-0.66762-0.74139 0.06699 0.43231-0.74147-0.51326
   4  -2   1   15.06    0.91   1-0.56489-0.49117 0.53599 0.16955-0.62737-0.85439
   4  -2   2    0.19    0.37   1-0.65508-0.57271-0.20381-0.60882 0.72754 0.54893
  -4   2  -2    0.14    0.34   1-0.53025-0.61095-0.60993-0.20336 0.58890 0.76509
  -4   2  -2   -0.06    0.27   1-0.66800-0.74810-0.05788 0.34814-0.74189-0.56491
   4  -2   2    0.04    0.48   1-0.60687-0.52709 0.42120 0.01424-0.67400-0.84968
   4  -2   3    3.90    0.68   1-0.66615-0.57743-0.09418-0.54009 0.73984 0.61226
  -4   2  -3    3.86    0.51   1-0.56546-0.65223-0.53464-0.08748 0.62801 0.75295
  -4   2  -3    3.79    0.50   1-0.65929-0.74572-0.17087 0.27585-0.73221-0.60646
   4  -2   3    4.09    0.50   1-0.63322-0.54737 0.32318-0.12428-0.70326-0.82760
   4  -2   4   -0.13    0.58   1-0.66908-0.57401 0.01119-0.47561 0.74309 0.66655
  -4   2  -4    0.11    0.42   1-0.64400-0.73676-0.27145 0.21596-0.71524-0.64072
   4  -2   4   -0.12    0.50   1-0.64895-0.55703 0.24370-0.24428-0.72073-0.79374
   4  -2   5    5.06    0.63   1-0.66501-0.56359 0.11070-0.41701 0.73857 0.71306
  -4   2  -5    4.48    0.74   1-0.60833-0.70724-0.41647 0.11188 0.67562 0.69805
  -4   2  -5    4.29    0.46   1-0.62415-0.72324-0.36043 0.16769-0.69319-0.66991
   4  -2   5    4.31    0.64   1-0.65787-0.55878 0.18263-0.34549-0.73064-0.75392
   4  -2   6    7.46    0.73   1-0.65511-0.54734 0.20358-0.36503 0.72758 0.75310
  -4   2  -6    7.40    0.70   1-0.62044-0.72541-0.37445 0.19450 0.68907 0.66025
  -4   2  -6    7.06    0.56   1-0.60117-0.70659-0.43910 0.12972-0.66766-0.69562
   4  -2   6    7.07    0.63   1-0.66293-0.55750 0.13581-0.43301-0.73625-0.70830
   4  -2   7    6.96    0.76   1-0.64044-0.52631 0.28968-0.31984 0.71128 0.78784
  -4   2  -7    5.79    0.87   1-0.62855-0.73959-0.34294 0.26660 0.69807 0.61800
  -4   2  -7    7.01    0.72   1-0.57601-0.68777-0.50888 0.10064-0.63972-0.71891
   4  -2   7    6.56    0.80   1-0.66563-0.55387 0.10206-0.50746-0.73926-0.66007
   4  -2   8   21.63    1.33   1-0.62186-0.50138 0.36918-0.28124 0.69064 0.81823
  -4   2  -8   21.27    1.26   1-0.63375-0.75085-0.32086 0.32928 0.70385 0.57252
  -4   2  -8   23.09    1.28   1-0.54931-0.66786-0.57102 0.07909-0.61007-0.74006
   4  -2   8   22.69    1.42   1-0.66702-0.54893 0.07918-0.57104-0.74081-0.61038
   4  -2   9   16.87    1.50   1-0.60005-0.47322 0.44248-0.24884 0.66643 0.84506
  -4   2  -9   17.84    1.50   1-0.63679-0.75997-0.30710 0.38364 0.70723 0.52465
  -4   2  -9   18.77    1.45   1-0.52144-0.64635-0.62667 0.06418-0.57912-0.76033
   4  -2   9   17.93    1.46   1-0.66770-0.54327 0.06533-0.62559-0.74155-0.55989
   4  -2  10    5.43    1.20   1-0.57554-0.44236 0.51005-0.22218 0.63921 0.86887
  -4   2 -10    5.79    0.89   1-0.63817-0.76741-0.30063 0.43071 0.70876 0.47492
  -4   2 -10    6.53    0.84   1-0.49264-0.62392-0.67671 0.05486-0.54713-0.77955
   4  -2  10    5.95    0.88   1-0.66796-0.53720 0.05904-0.67258-0.74184-0.50895
   4  -2  11    7.85    1.45   1-0.54751-0.40942 0.57485-0.19753 0.60807 0.89070
  -4   2 -11    7.32    1.09   1-0.63818-0.77349-0.30057 0.47136 0.70877 0.42368
  -4   2 -11    7.76    1.05   1-0.46304-0.60068-0.72189 0.05042-0.51425-0.79789
   4  -2  11    8.44    1.16   1-0.66795-0.53087 0.05911-0.71320-0.74184-0.45771
   4  -2  12    6.08    1.38   1-0.51844-0.37404 0.63219-0.18096 0.57579 0.90958
  -4   2 -12    6.50    0.98   1-0.63699-0.77837-0.30617 0.50637 0.70745 0.37111
  -4   2 -12    6.25    1.11   1-0.43269-0.57669-0.76278 0.05026-0.48055-0.81540
   4  -2  12    7.51    1.02   1-0.66773-0.52430 0.06464-0.74838-0.74159-0.40623
   4  -1 -12   14.55    1.50   1-0.50067-0.43358 0.66341 0.84357 0.55605-0.31683
   4  -1 -12   11.49    1.49   1-0.22415-0.15398-0.94221-0.76648 0.24895-0.62352
  -4   1  12   13.93    1.40   1-0.55340-0.61906-0.56213-0.74161-0.61461 0.25838
   4  -1 -11   11.28    1.41   1-0.45804-0.38463 0.72898 0.86837 0.50870-0.31301
   4  -1 -11    9.88    1.43   1-0.22450-0.14830-0.94203-0.80684 0.24934-0.57183
  -4   1  11   11.45    1.39   1-0.52006-0.59208-0.62923-0.76798-0.57758 0.24419
  -4   1  11    8.44    1.29   1-0.26955-0.34550 0.91527 0.77976-0.29936 0.52211
   4  -1 -10    1.99    0.68   1-0.40934-0.32961 0.79105 0.88968 0.45461-0.31593
   4  -1 -10    1.70    0.87   1-0.22974-0.14752-0.93920-0.84456 0.25516-0.51472
  -4   1  10    1.47    0.71   1-0.47989-0.55828-0.69688-0.79490-0.53297 0.23759
  -4   1  10    1.87    0.94   1-0.28241-0.36436 0.90657 0.81164-0.31364 0.45658
   4  -1  -9   17.05    1.42   1-0.35394-0.26791 0.84864 0.90650 0.39309-0.32629
   4  -1  -9   16.51    1.48   1-0.24038-0.15213-0.93324-0.87915 0.26697-0.45160
  -4   1   9   15.20    1.50   1-0.43097-0.51573-0.76495-0.82224-0.47864 0.24070
  -4   1   9   14.47    1.64   1-0.30310-0.39105 0.89151 0.83718-0.33663 0.38234
   4  -1  -8   33.67    1.85   1-0.29128-0.19892 0.90028 0.91738 0.32349-0.34472
   4  -1  -8   35.84    1.91   1-0.25697-0.16269-0.92331-0.90977 0.28539-0.38188
  -4   1   8   32.79    1.80   1-0.37066-0.46178-0.83254-0.84910-0.41166 0.25646
  -4   1   8   31.59    2.28   1-0.33277-0.42673 0.86756 0.85382-0.36958 0.29813
   4  -1  -7   14.00    1.26   1-0.28000-0.17970-0.90823-0.93524 0.31097-0.30501
  -4   1   7   13.64    1.20   1 0.21666 0.11611-0.94612-0.91945-0.24063 0.37566
  -4   1   7   12.73    1.10   1-0.29548-0.39296-0.89721-0.87304-0.32816 0.28875
  -4   1   7   12.71    1.32   1-0.37281-0.47232 0.83040 0.85792-0.41404 0.20216
   4  -1  -6    2.05    0.48   1-0.30982-0.20349-0.88634-0.95390 0.34409-0.22059
  -4   1   6    2.07    0.50   1 0.13867 0.03212-0.97828-0.91105-0.15401 0.41102
  -4   1   6    2.14    0.65   1-0.42206-0.52765 0.77597 0.84400-0.46875 0.09612
   4  -1  -5    0.27    0.37   1-0.34639-0.23404-0.85557-0.96367 0.38471-0.12867
  -4   1   5    0.42    0.54   1 0.05300-0.05935-0.99685-0.88875-0.05886 0.45452
  -4   1   5    0.15    0.55   1-0.47911-0.59076 0.69808 0.80663-0.53210-0.01856
   4  -1  -4    5.45    0.64   1-0.38910-0.27071-0.81354-0.96219 0.43214-0.02995
  -4   1   4    5.04    0.54   1-0.03736-0.15574-0.99844-0.84978 0.04149 0.50358
  -4   1   4    5.41    0.65   1-0.53893-0.65665 0.59269 0.74176-0.59854-0.13634
   4  -1  -4    5.55    0.71   1-0.05809 0.05986 0.99622 0.84760-0.06452-0.52724
   4  -1  -3   11.46    0.75   1-0.43569-0.31107-0.75896-0.94758 0.48388 0.07288
  -4   1   3   11.77    0.79   1-0.13014-0.25455-0.98090-0.79170 0.14454 0.55534
  -4   1   3   12.02    0.85   1-0.59377-0.71755 0.46104 0.65062-0.65944-0.24858
   4  -1  -3   11.39    0.77   1-0.20877-0.08481 0.95007 0.76086-0.23186-0.64334
   4  -1  -2    0.94    0.35   1-0.48530-0.35462-0.68844-0.91766 0.53899 0.17924
  -4   1   2    0.94    0.49   1-0.22141-0.35185-0.94366-0.71391 0.24590 0.60540
  -4   1   2    1.07    0.33   1-0.63575-0.76560 0.31188 0.54198-0.70607-0.34654
   4  -1  -2    0.73    0.32   1-0.35330-0.22333 0.84924 0.61944-0.39237-0.75260
   4  -1  -1    6.21    0.54   1-0.53394-0.39718-0.60270-0.87252 0.59300 0.28450
  -4   1   1    6.36    0.60   1-0.30678-0.44324-0.88870-0.61840 0.34072 0.64892
  -4   1   1    6.43    0.64   1-0.66007-0.79557 0.16397 0.43301-0.73308-0.42375
   4  -1  -1    6.45    0.79   1-0.47375-0.33783 0.70619 0.43557-0.52616-0.83434
   4  -1   0   12.48    0.79   1-0.57814-0.43531-0.50345-0.81387 0.64209 0.38485
  -4   1   0   11.11    0.75   1-0.38242-0.52491-0.82058-0.50973 0.42473 0.68163
  -4   1   0   11.16    0.82   1-0.66902-0.81085 0.01792 0.32766-0.74302-0.48492
   4  -1   0   11.49    0.84   1-0.55834-0.41636 0.55110 0.23996-0.62010-0.87695
   4  -1   1   34.81    1.23   1-0.61496-0.46607-0.39413-0.74514 0.68299 0.47700
  -4   1  -1   33.65    1.17   1-0.44520-0.59409-0.74653-0.39552 0.49445 0.70043
  -4   1  -1   32.66    1.09   1-0.66485-0.81302-0.11281 0.23762-0.73840-0.53153
   4  -1   1   33.41    1.36   1-0.61136-0.46330 0.40647 0.05481-0.67898-0.88450
   4  -1   2   38.72    1.26   1-0.64252-0.48756-0.27917-0.67077 0.71359 0.55886
  -4   1  -2   38.77    1.31   1-0.49610-0.65106-0.67104-0.27943 0.55098 0.70571
  -4   1  -2   36.13    1.11   1-0.65174-0.80624-0.22646 0.16467-0.72383-0.56820
   4  -1   2   39.24    1.45   1-0.64144-0.48732 0.28467-0.10750-0.71239-0.86657
   4  -1   3   63.86    2.43   1-0.65932-0.49636-0.17057-0.60139 0.73225 0.62606
  -4   1  -3   62.36    2.22   1-0.53520-0.69623-0.60019-0.16799 0.59440 0.69788
  -4   1  -3   61.93    2.11   1-0.63297-0.79380-0.32427 0.10756-0.70298-0.59858
   4  -1   3   59.80    2.42   1-0.65691-0.49608 0.19021-0.24162-0.72957-0.83397
   4  -1   4   61.53    2.23   1-0.66803-0.49872-0.05706-0.52878 0.74193 0.68677
  -4   1  -4   63.46    2.33   1-0.56427-0.73136-0.53745-0.06465 0.62668 0.67891
  -4   1  -4   59.67    2.22   1-0.61073-0.77789-0.40856 0.06397-0.67829-0.62512
   4  -1   4   63.31    2.33   1-0.66455-0.49739 0.11677-0.35575-0.73806-0.79122
   4  -1   5    3.89    0.57   1-0.66824-0.49257 0.05146-0.46116 0.74216 0.73803
  -4   1  -5    3.84    0.66   1-0.58533-0.75849-0.48455 0.02884 0.65007 0.65104
  -4   1  -5    3.95    0.47   1-0.58637-0.75987-0.48171 0.03152-0.65123-0.64930
   4  -1   5    4.11    0.52   1-0.66780-0.49430 0.06299-0.45024-0.74166-0.74360
   4  -1   6   26.36    1.37   1-0.66120-0.47918 0.15349-0.40004 0.73433 0.78124
  -4   1  -6   27.86    1.38   1-0.60023-0.77946-0.44195 0.11204 0.66662 0.61634
  -4   1  -6   26.71    1.21   1-0.56069-0.74088-0.54575 0.00792-0.62271-0.67158
   4  -1   6   28.27    1.35   1-0.66891-0.48909 0.02507-0.52886-0.74291-0.69360
   4  -1   7   18.76    1.31   1-0.64816-0.45979 0.24834-0.34608 0.71986 0.81780
  -4   1  -7   19.05    1.30   1-0.61051-0.79580-0.40930 0.18528 0.67804 0.57650
  -4   1  -7   17.97    1.24   1-0.53409-0.72064-0.60241-0.00798-0.59316-0.69325
   4  -1   7   18.46    1.15   1-0.66913-0.48297-0.00016-0.59480-0.74314-0.64260
   4  -1   8    2.16    0.90   1-0.63024-0.43551 0.33594-0.29938 0.69995 0.84893
  -4   1  -8    2.29    0.62   1-0.61731-0.80867-0.38586 0.24933 0.68559 0.53280
  -4   1  -8    2.10    0.73   1-0.50681-0.69973-0.65291-0.01776-0.56287-0.71417
   4  -1   8    2.68    0.77   1-0.66905-0.47656-0.01525-0.65059-0.74305-0.59128
   4  -1   9   16.34    1.61   1-0.60831-0.40724 0.41654-0.25969 0.67560 0.87561
  -4   1  -9   15.86    1.37   1-0.62145-0.81888-0.37070 0.30508 0.69019 0.48615
  -4   1  -9   16.68    1.46   1-0.47898-0.67826-0.69827-0.02239-0.53196-0.73447
   4  -1   9   15.78    1.32   1-0.66896-0.47014-0.02211-0.69814-0.74296-0.53995
   4  -1  10    5.17    1.12   1-0.58308-0.37566 0.49056-0.22658 0.64758 0.89863
  -4   1 -10    4.75    0.75   1-0.62350-0.82700-0.36292 0.35346 0.69247 0.43717
  -4   1 -10    4.31    0.66   1-0.45061-0.65626-0.73924-0.02262-0.50046-0.75419
   4  -1  10    5.72    0.84   1-0.66896-0.46381-0.02220-0.73893-0.74296-0.48872
   4  -1  11   -0.16    1.11   1-0.55391-0.34155 0.56100-0.19640 0.61518 0.91911
  -4   1 -11    0.03    0.66   1-0.62382-0.83339-0.36170 0.39528 0.69282 0.38627
  -4   1 -11    0.40    0.76   1-0.42172-0.63373-0.77638-0.01903-0.46837-0.77331
   4  -1  11    0.24    0.81   1-0.66903-0.45755-0.01663-0.77406-0.74304-0.43756
   4  -1  12    0.61    0.83   1-0.52329-0.30461 0.62321-0.17496 0.58117 0.93626
  -4   1 -12    1.14    0.72   1-0.62261-0.83825-0.36631 0.43126 0.69148 0.33368
  -4   1 -12    0.84    0.93   1-0.39226-0.61063-0.81014-0.01206-0.43565-0.79181
   4  -1  12    1.82    0.99   1-0.66911-0.45129-0.00623-0.80436-0.74313-0.38642
   4   0 -12    0.21    0.74   1-0.48414-0.34278 0.69028 0.88542 0.53769-0.31389
   4   0 -12    0.39    0.70   1-0.19091-0.04646-0.95843-0.76779 0.21202-0.63900
  -4   0  12    0.14    0.54   1-0.59530-0.73554-0.45660-0.65016-0.66115 0.19041
  -4   0  12    0.07    0.73   1-0.26995-0.41419 0.91500 0.72420-0.29981 0.55133
   4   0 -11    2.23    0.74   1-0.44269-0.29502 0.74985 0.90423 0.49166-0.30875
   4   0 -11    1.19    0.67   1-0.19114-0.04067-0.95832-0.80823 0.21228-0.58744
  -4   0  11    1.90    0.56   1-0.56969-0.71626-0.52453-0.67739-0.63270 0.16762
  -4   0  11    1.45    0.99   1-0.27903-0.42926 0.90890 0.75869-0.30989 0.49000
   4   0 -10   10.01    1.12   1-0.39606-0.24207 0.80600 0.91961 0.43987-0.30937
   4   0 -10   10.13    1.10   1-0.19599-0.03949-0.95614-0.84659 0.21767-0.53076
  -4   0  10   10.12    1.01   1-0.53846-0.69122-0.59365-0.70663-0.59802 0.15123
  -4   0  10    7.88    1.13   1-0.29646-0.45270 0.89648 0.78687-0.32926 0.41938
   4   0  -9   36.73    2.72   1-0.34379-0.18348 0.85791 0.93075 0.38182-0.31626
   4   0  -9   35.84    2.65   1-0.20596-0.04344-0.95144-0.88245 0.22874-0.46839
  -4   0   9   33.75    2.52   1-0.49844-0.65756-0.66715-0.73941-0.55357 0.14446
  -4   0   9   29.75    2.86   1-0.32390-0.48614 0.87502 0.80600-0.35973 0.33766
   4   0  -8    1.47    0.75   1-0.28546-0.11884 0.90443 0.93651 0.31703-0.32988
   4   0  -8    1.39    0.73   1-0.22162-0.05307-0.94355-0.91510 0.24614-0.39970
  -4   0   8    1.42    0.44   1-0.44649-0.61197-0.74481-0.77633-0.49588 0.15094
  -4   0   8    1.59    0.52   1-0.36349-0.53127 0.83958 0.81179-0.40369 0.24234
   4   0  -7    4.54    0.60   1-0.24353-0.06895-0.93141-0.94351 0.27047-0.32407
  -4   0   7    3.26    0.59   1 0.21679 0.04202-0.94605-0.93429-0.24077 0.35400
  -4   0   7    3.39    0.62   1-0.37696-0.54880-0.82621-0.81700-0.41865 0.17695
  -4   0   7    3.42    0.64   1-0.41512-0.58897 0.78429 0.79701-0.46104 0.13366
   4   0  -6   60.29    2.37   1-0.27215-0.09154-0.91355-0.96619 0.30225-0.24099
  -4   0   6   59.92    2.47   1 0.14578-0.03498-0.97597-0.92366-0.16191 0.38160
  -4   0   6   49.62    2.78   1-0.28143-0.45964-0.90724-0.85731-0.31255 0.23184
  -4   0   6   54.13    3.42   1-0.47805-0.65798 0.69968 0.75293-0.53093 0.01243
   4   0  -5   14.69    0.79   1-0.30767-0.12104-0.88801-0.98121 0.34170-0.15024
  -4   0   5   13.95    1.11   1 0.06828-0.11834-0.99477-0.90158-0.07584 0.41610
  -4   0   5   14.47    1.25   1-0.54622-0.73220 0.57760 0.67137-0.60663-0.11460
   4   0  -4   53.01    1.95   1-0.34982-0.15716-0.85245-0.98619 0.38852-0.05213
  -4   0   4   50.92    2.11   1-0.01338-0.20604-0.99980-0.86605 0.01486 0.45551
  -4   0   4   49.57    2.45   1-0.60775-0.79981 0.41836 0.55264-0.67498-0.23428
   4   0  -4   50.84    2.46   1-0.03036 0.16187 0.99896 0.86504-0.03372-0.47487
   4   0  -3   25.57    0.98   1-0.39758-0.19889-0.80433-0.97863 0.44155 0.05220
  -4   0   3   24.86    1.14   1-0.09775-0.29644-0.98926-0.81497 0.10857 0.49792
  -4   0   3   24.59    1.22   1-0.64992-0.84804 0.23787 0.41267-0.72181-0.33245
   4   0  -3   23.34    1.37   1-0.22696-0.02871 0.94071 0.76619-0.25207-0.64196
   4   0  -2   54.89    1.41   1-0.44822-0.24327-0.74249-0.95675 0.49779 0.15951
  -4   0   2   54.93    1.90   1-0.18196-0.38667-0.96231-0.74747 0.20209 0.54015
  -4   0   2   55.16    1.77   1-0.66756-0.87113 0.06828 0.28172-0.74141-0.40218
   4   0  -2   51.80    1.80   1-0.40713-0.20295 0.79358 0.57827-0.45217-0.79019
   4   0  -1   24.34    0.98   1-0.50041-0.28940-0.66385-0.91870 0.55577 0.26874
  -4   0   1   26.34    1.06   1-0.26259-0.47332-0.91977-0.66439 0.29163 0.57839
  -4   0   1   25.22    1.16   1-0.66649-0.87639-0.08858 0.16555-0.74022-0.45223
   4   0  -1   23.97    1.34   1-0.53479-0.32454 0.60101 0.34518-0.59394-0.88063
   4   0   0   51.72    1.51   1-0.54987-0.33279-0.56981-0.86526 0.61069 0.37492
  -4   0   0   53.00    1.66   1-0.33629-0.55306-0.86452-0.56858 0.37349 0.60895
  -4   0   0   52.25    1.42   1-0.65299-0.86922-0.21831 0.07652-0.72521-0.48846
   4   0   0   49.75    1.74   1-0.60932-0.39300 0.41323 0.11688-0.67672-0.91207
   4   0   1   21.22    1.00   1-0.59315-0.37000-0.46282-0.79887 0.65876 0.47423
  -4   0  -1   21.61    1.05   1-0.40053-0.62332-0.80106-0.46457 0.44483 0.62899
  -4   0  -1   21.44    0.94   1-0.63302-0.85558-0.32403 0.01150-0.70304-0.51752
   4   0   1   20.60    1.39   1-0.64656-0.42417 0.25751-0.07935-0.71808-0.90209
   4   0   2   14.18    0.90   1-0.62757-0.39836-0.34689-0.72354 0.69699 0.56372
  -4   0  -2   14.20    0.78   1-0.45326-0.68248-0.73561-0.35896 0.50340 0.63667
  -4   0  -2   15.57    0.84   1-0.60999-0.83889-0.41101-0.03477-0.67747-0.54318
   4   0   2   15.03    0.87   1-0.66241-0.43352 0.14129-0.23494-0.73568-0.86997
   4   0   3    7.65    0.64   1-0.65170-0.41641-0.22674-0.64398 0.72378 0.64177
  -4   0  -3    7.90    0.64   1-0.49609-0.73137-0.67106-0.25382 0.55096 0.63298
  -4   0  -3    7.78    0.60   1-0.58556-0.82079-0.48391-0.06697-0.65033-0.56728
   4   0   3    7.59    0.62   1-0.66815-0.43292 0.05395-0.36298-0.74206-0.82511
   4   0   4    0.18    0.41   1-0.66472-0.42116-0.11462-0.57126 0.73824 0.70447
  -4   0  -4    0.17    0.40   1-0.52917-0.77053-0.61201-0.15417 0.58771 0.61847
  -4   0  -4    0.09    0.37   1-0.56048-0.80231-0.54624-0.08898-0.62247-0.59022
   4   0   4    0.12    0.48   1-0.66911-0.42755-0.00783-0.46547-0.74312-0.77494
   4   0   5    0.08    0.63   1-0.66913-0.41922 0.00151-0.49602 0.74314 0.76040
  -4   0  -5    0.34    0.62   1-0.55402-0.80144-0.56076-0.06232 0.61530 0.59481
  -4   0  -5    0.27    0.40   1-0.53504-0.78324-0.60050-0.10251-0.59423-0.61319
   4   0   5    0.52    0.40   1-0.66828-0.42039-0.05014-0.54848-0.74220-0.72279
   4   0   6    0.01    0.47   1-0.66494-0.40868 0.11173-0.42670 0.73849 0.80678
  -4   0  -6    0.03    0.47   1-0.57220-0.82568-0.51839 0.02064 0.63549 0.56374
  -4   0  -6   -0.21    0.63   1-0.50937-0.76393-0.64846-0.10974-0.56571-0.63589
   4   0   6   -0.06    0.59   1-0.66711-0.41288-0.07763-0.61667-0.74090-0.67025
   4   0   7    1.45    0.59   1-0.65351-0.39090 0.21474-0.36459 0.72580 0.84513
  -4   0  -7    1.20    0.68   1-0.58512-0.84468-0.48509 0.09453 0.64985 0.52685
  -4   0  -7    1.38    0.52   1-0.48344-0.74437-0.69136-0.11191-0.53692-0.65831
   4   0   7    1.24    0.68   1-0.66618-0.40562-0.09372-0.67346-0.73987-0.61799
   4   0   8    4.00    0.71   1-0.63615-0.36719 0.31003-0.31020 0.70652 0.87689
  -4   0  -8    4.29    0.68   1-0.59395-0.85957-0.46051 0.15971 0.65965 0.48540
  -4   0  -8    3.80    0.62   1-0.45723-0.72452-0.73010-0.10992-0.50781-0.68042
   4   0   8    3.44    0.79   1-0.66571-0.39882-0.10088-0.72132-0.73935-0.56623
   4   0   9    3.43    0.75   1-0.61395-0.33864 0.39764-0.26350 0.68186 0.90326
  -4   0  -9    3.47    0.69   1-0.59955-0.87124-0.44401 0.21681 0.66587 0.44036
  -4   0  -9    3.70    0.83   1-0.43068-0.70433-0.76532-0.10440-0.47832-0.70214
   4   0   9    3.10    0.84   1-0.66571-0.39249-0.10090-0.76205-0.73935-0.51499
   4   0  10   10.79    1.00   1-0.58777-0.30611 0.47789-0.22416 0.65279 0.92522
  -4   0 -10   11.14    1.15   1-0.60254-0.88030-0.43486 0.26655 0.66919 0.39243
  -4   0 -10   11.90    0.88   1-0.40371-0.68373-0.79747-0.09582-0.44837-0.72341
   4   0  10   11.43    1.05   1-0.66609-0.38654-0.09509-0.79693-0.73977-0.46419
   4   0  11    8.45    1.15   1-0.55717-0.27054 0.55375-0.18868 0.61880 0.94403
  -4   0 -11    8.29    1.25   1-0.60335-0.88718-0.43235 0.30966 0.67009 0.34208
  -4   0 -11   10.28    1.27   1-0.37627-0.66264-0.82691-0.08453-0.41789-0.74414
   4   0  11   10.29    1.27   1-0.66674-0.38085-0.08439-0.82693-0.74049-0.41367
   4   0  12    1.82    0.85   1-0.52466-0.23172 0.62063-0.16257 0.58270 0.95910
  -4   0 -12    2.02    0.90   1-0.60223-0.89212-0.43584 0.34677 0.66884 0.28957
  -4   0 -12    1.98    0.69   1-0.34827-0.64101-0.85386-0.07075-0.38679-0.76426
   4   0  12    1.37    0.89   1-0.66751-0.37529-0.06949-0.85274-0.74134-0.36329
   4   1 -12   10.34    1.41   1-0.47332-0.25769 0.70684 0.91695 0.52567-0.30460
   4   1 -12   10.00    1.37   1-0.16673 0.05198-0.96845-0.76291 0.18518-0.64441
   4   1 -11   16.04    1.91   1-0.43362-0.21168 0.76160 0.93094 0.48159-0.29752
   4   1 -11   16.80    1.99   1-0.16707 0.05767-0.96832-0.80332 0.18555-0.59273
  -4  -1  11   20.25    2.08   1-0.62438-0.84535-0.35955-0.52731-0.69344 0.08553
   4   1 -10   30.72    1.44   1-0.38951-0.16125 0.81309 0.94168 0.43260-0.29534
   4   1 -10   29.12    2.57   1-0.17179 0.05897-0.96647-0.84202 0.19079-0.53619
  -4  -1  10   33.41    1.53   1-0.60654-0.83385-0.42227-0.54932-0.67363 0.05411
  -4  -1  10   25.63    2.95   1-0.33015-0.56067 0.86979 0.74548-0.36667 0.36039
   4   1  -9   15.54    1.48   1-0.34066-0.10609 0.86069 0.94851 0.37834-0.29843
   4   1  -9   15.44    1.46   1-0.18139 0.05540-0.96255-0.87865 0.20146-0.47423
  -4  -1   9   16.67    1.44   1-0.58355-0.81719-0.48930-0.57565-0.64810 0.02841
  -4  -1   9   14.02    1.72   1-0.37020-0.60626 0.83300 0.74991-0.41115 0.26472
   4   1  -8    2.45    0.80   1-0.28677-0.04588 0.90350 0.95056 0.31849-0.30712
   4   1  -8    2.52    0.58   1-0.19643 0.04639-0.95594-0.91258 0.21815-0.40624
  -4  -1   8    2.71    0.59   1-0.55321-0.79307-0.56253-0.60902-0.61441 0.01111
   4   1  -7   31.17    1.97   1-0.21747 0.03138-0.94571-0.94290 0.24152-0.33157
  -4  -1   7   30.00    2.14   1-0.50812-0.75433-0.65065-0.65640-0.56432 0.00998
  -4  -1   7   27.27    2.33   1-0.49871-0.74690 0.66671 0.66465-0.55387 0.01933
   4   1  -6   56.78    2.14   1-0.24503 0.00984-0.93053-0.96828 0.27213-0.24966
  -4  -1   6   56.52    2.34   1 0.15948-0.09550-0.97117-0.93377-0.17712 0.34487
  -4  -1   6   49.48    2.48   1-0.43466-0.68724-0.76027-0.72530-0.48274 0.04034
  -4  -1   6   48.94    2.47   1-0.57933-0.83358 0.50039 0.53884-0.64341-0.12154
   4   1  -5   20.93    1.04   1-0.27943-0.01853-0.90862-0.98691 0.31034-0.16016
  -4  -1   5   20.89    1.17   1 0.08960-0.17129-0.99099-0.91270-0.09951 0.37098
  -4  -1   5   20.45    1.21   1-0.30248-0.56142-0.89199-0.81628-0.33593 0.13594
  -4  -1   5   18.86    1.34   1-0.64436-0.90468 0.26954 0.34851-0.71564-0.24510
   4   1  -4    3.29    0.47   1-0.32062-0.05369-0.87772-0.99656 0.35609-0.06311
  -4  -1   4    3.62    0.53   1 0.01604-0.25088-0.99971-0.88087-0.01781 0.40139
  -4  -1   4    3.41    0.45   1-0.66866-0.93396 0.03724 0.15439-0.74262-0.32228
   4   1  -3    0.37    0.34   1-0.36792-0.09496-0.83526-0.99464 0.40862 0.04070
  -4  -1   3    0.42    0.53   1-0.06030-0.33326-0.99593-0.83654 0.06697 0.43489
  -4  -1   3    0.25    0.30   1-0.65984-0.93147-0.16605-0.00820-0.73282-0.36371
   4   1  -3    0.26    0.31   1-0.23423 0.03829 0.93672 0.77689-0.26014-0.62845
   4   1  -2    1.86    0.40   1-0.41899-0.13979-0.77968-0.97898 0.46533 0.14851
  -4  -1   2    2.13    0.45   1-0.13740-0.41638-0.97869-0.77875 0.15260 0.46921
  -4  -1   2    1.89    0.33   1-0.63669-0.91465-0.30756-0.10901-0.70712-0.38924
   4   1  -2    1.66    0.43   1-0.46844-0.18992 0.71406 0.51353-0.52026-0.83678
   4   1  -1   12.78    0.76   1-0.47296-0.18769-0.70737-0.94726 0.52528 0.25971
  -4  -1   1   12.78    0.75   1-0.21267-0.49768-0.94814-0.70766 0.23620 0.50151
  -4  -1   1   12.59    0.84   1-0.61124-0.89553-0.40687-0.16762-0.67885-0.41220
   4   1  -1   11.51    0.78   1-0.59452-0.30993 0.45888 0.21784-0.66028-0.92546
   4   1   0    1.24    0.37   1-0.52569-0.23435-0.61869-0.89918 0.58384 0.36952
  -4  -1   0    1.60    0.55   1-0.28339-0.57443-0.90588-0.62485 0.31474 0.52875
  -4  -1   0    1.42    0.36   1-0.58650-0.87713-0.48137-0.20142-0.65137-0.43596
   4   1   0    1.15    0.43   1-0.64793-0.35728 0.24969-0.03186-0.71960-0.93345
   4   1   1    5.78    0.61   1-0.57355-0.27614-0.51505-0.83614 0.63699 0.47393
  -4  -1  -1    6.36    0.57   1-0.34712-0.64419-0.85491-0.53333 0.38552 0.54824
  -4  -1  -1    6.13    0.58   1-0.56266-0.85978-0.54121-0.22111-0.62489-0.46031
   4   1   1    5.63    0.69   1-0.66564-0.36868 0.10190-0.21874-0.73927-0.90345
   4   1   2   13.09    0.77   1-0.61333-0.30986-0.39975-0.76144 0.68118 0.56937
  -4  -1  -2   13.20    0.83   1-0.40223-0.70532-0.79915-0.43702 0.44672 0.55814
  -4  -1  -2   13.90    0.86   1-0.53958-0.84306-0.59138-0.23055-0.59926-0.48589
   4   1   2   13.24    0.88   1-0.66912-0.36583-0.00374-0.36509-0.74313-0.85607
   4   1   3    5.52    0.56   1-0.64287-0.33333-0.27735-0.67963 0.71398 0.65343
  -4  -1  -3    5.76    0.58   1-0.44729-0.75683-0.74374-0.34145 0.49676 0.55732
  -4  -1  -3    5.68    0.77   1-0.51686-0.82670-0.63508-0.23352-0.57403-0.51187
   4   1   3    6.16    0.63   1-0.66723-0.35761-0.07513-0.47718-0.74104-0.80274
   4   1   4   37.36    1.64   1-0.66044-0.34264-0.16062-0.60216 0.73349 0.72110
  -4  -1  -4   37.00    1.42   1-0.48413-0.79974-0.69029-0.24741 0.53768 0.54698
  -4  -1  -4   39.88    1.52   1-0.49425-0.81046-0.67408-0.23179-0.54892-0.53798
   4   1   4   38.35    1.40   1-0.66411-0.34815-0.12224-0.56499-0.73757-0.74804
   4   1   5   62.18    2.35   1-0.66864-0.34449-0.03810-0.52054 0.74260 0.78125
  -4  -1  -5   63.31    2.56   1-0.51282-0.83450-0.64235-0.15887 0.56955 0.52759
  -4  -1  -5   64.31    2.45   1-0.47155-0.79412-0.70947-0.22644-0.52371-0.56398
   4   1   5   62.49    2.32   1-0.66136-0.33906-0.15195-0.63540-0.73451-0.69375
   4   1   6   30.22    2.10   1-0.66701-0.33651 0.07942-0.44391 0.74079 0.83047
  -4  -1  -6   29.71    1.91   1-0.53454-0.86228-0.60151-0.07743 0.59367 0.50046
  -4  -1  -6   31.05    1.99   1-0.44863-0.77756-0.74193-0.21818-0.49825-0.58973
   4   1   6   28.84    1.92   1-0.65951-0.33089-0.16888-0.69303-0.73246-0.64047
   4   1   7    1.24    0.69   1-0.65694-0.32009 0.18998-0.37426 0.72961 0.87032
  -4  -1  -7    1.11    0.74   1-0.55048-0.88429-0.56849-0.00382 0.61137 0.46691
  -4  -1  -7    1.03    0.77   1-0.42536-0.76065-0.77193-0.20745-0.47241-0.61511
   4   1   7    0.79    0.68   1-0.65866-0.32370-0.17618-0.74103-0.73152-0.58828
   4   1   8   10.64    1.09   1-0.63985-0.29664 0.29256-0.31258 0.71062 0.90237
  -4  -1  -8   11.09    1.07   1-0.56171-0.90159-0.54340 0.06186 0.62384 0.42813
  -4  -1  -8   11.63    1.09   1-0.40166-0.74332-0.79978-0.19457-0.44609-0.64001
   4   1   8    9.89    1.08   1-0.65868-0.31740-0.17598-0.78153-0.73154-0.53708
   4   1   9   12.02    1.27   1-0.61702-0.26746 0.38688-0.25916 0.68527 0.92805
  -4  -1  -9   11.89    1.20   1-0.56910-0.91505-0.52594 0.11992 0.63205 0.38508
  -4  -1  -9   14.10    1.45   1-0.37746-0.72548-0.82569-0.17974-0.41922-0.66434
   4   1   9   13.08    1.35   1-0.65941-0.31179-0.16980-0.81605-0.73235-0.48665
   4   1  10    0.50    0.71   1-0.58950-0.23359 0.47312-0.21383 0.65470 0.94852
  -4  -1 -10    0.19    0.60   1-0.57331-0.92532-0.51564 0.17082 0.63672 0.33850
  -4  -1 -10    0.38    0.60   1-0.35270-0.70708-0.84979-0.16311-0.39171-0.68805
   4   1  10    0.40    0.73   1-0.66064-0.30669-0.15871-0.84566-0.73372-0.43679
   4   1  11   10.62    1.27   1-0.55699-0.19610 0.55414-0.17331 0.61860 0.96514
  -4  -1 -11    8.60    1.24   1-0.57479-0.93287-0.51194 0.21511 0.63837 0.28889
  -4  -1 -11   11.01    1.35   1-0.32730-0.68805-0.87219-0.14478-0.36351-0.71107
   4   1  11   11.25    1.17   1-0.66220-0.30192-0.14346-0.87111-0.73545-0.38729
   4   2 -12    3.43    1.07   1-0.46753-0.17764 0.71539 0.94047 0.51925-0.28972
   4   2 -12    2.31    0.77   1-0.15031 0.14267-0.97444-0.75398 0.16694-0.64120
   4   2 -11    0.66    0.97   1-0.42996-0.13375 0.76622 0.95055 0.47752-0.28029
   4   2 -11    0.64    0.67   1-0.15096 0.14805-0.97421-0.79431 0.16766-0.58918
   4   2 -10    0.56    0.92   1-0.38865-0.08613 0.81401 0.95757 0.43164-0.27500
   4   2 -10    0.68    0.64   1-0.15580 0.14924-0.97251-0.83315 0.17303-0.53251
  -4  -2  10    0.66    0.42   1-0.66489-0.96660-0.11231-0.25426-0.73844-0.03203
   4   2  -9    1.20    0.86   1-0.34338-0.03454 0.85828 0.96107 0.38136-0.27411
   4   2  -9    1.25    0.82   1-0.16531 0.14576-0.96900-0.87019 0.18359-0.47065
  -4  -2   9    0.69    0.33   1-0.66465-0.97269-0.11549-0.21674-0.73817-0.08299
   4   2  -8    7.65    0.78   1-0.29393 0.02122 0.89835 0.96038 0.32644-0.27787
   4   2  -8    7.33    0.89   1-0.18002 0.13707-0.96312-0.90486 0.19993-0.40301
  -4  -2   8    5.49    0.54   1-0.66748-0.98186-0.07012-0.13066-0.74131-0.13736
   4   2  -7   41.99    1.98   1-0.24015 0.08132 0.93337 0.95464 0.26671-0.28643
   4   2  -7   41.57    1.82   1-0.20050 0.12262-0.95405-0.93634 0.22267-0.32898
   4   2  -6    1.63    0.64   1-0.22725 0.10189-0.94055-0.96339 0.25239-0.24796
  -4  -2   6    1.03    0.70   1 0.17853-0.15068-0.96374-0.94125-0.19828 0.30220
   4   2  -5    5.61    0.58   1-0.26068 0.07449-0.92099-0.98437 0.28951-0.15954
  -4  -2   5    5.78    0.78   1 0.11627-0.21894-0.98478-0.92173-0.12913 0.32009
   4   2  -4   67.45    1.91   1-0.30084 0.04035-0.89322-0.99715 0.33412-0.06363
  -4  -2   4   68.79    2.35   1 0.04990-0.29129-0.99721-0.89328-0.05542 0.34233
   4   2  -3   14.37    0.79   1-0.34730-0.00007-0.85474-0.99922 0.38572 0.03925
  -4  -2   3   14.46    0.89   1-0.01869-0.36592-0.99961-0.85512 0.02075 0.36722
   4   2  -3   11.34    1.36   1-0.20056 0.14625 0.95402 0.80888-0.22274-0.56948
   4   2  -2   45.60    1.69   1-0.39884-0.04558-0.80293-0.98796 0.44295 0.14778
   4   2  -2   39.94    2.15   1-0.54076-0.18791 0.58895 0.40322-0.60058-0.89560
   4   2  -1   27.42    1.74   1-0.64270-0.28378 0.27825 0.05199-0.71379-0.95747
   4   2   0   29.80    1.39   1-0.50701-0.14142-0.65257-0.91810 0.56309 0.37024
  -4  -2   0   30.76    1.53   1-0.22448-0.58979-0.94204-0.67591 0.24931 0.44189
   4   2   0   29.60    1.67   1-0.66705-0.30202 0.07867-0.18637-0.74084-0.93490
   4   2   1   27.30    1.24   1-0.55780-0.18613-0.55233-0.85846 0.61950 0.47790
  -4  -2  -1   26.92    1.39   1-0.28629-0.65763-0.90384-0.59717 0.31796 0.45924
  -4  -2  -1   21.58    1.29   1-0.45702-0.82850-0.73040-0.42527-0.50757-0.36429
   4   2   1   28.00    1.31   1-0.66818-0.29682-0.05314-0.35889-0.74209-0.88492
   4   2   2   38.96    1.64   1-0.60141-0.22368-0.43835-0.78508 0.66794 0.57759
  -4  -2  -2   39.02    1.82   1-0.34158-0.71894-0.85988-0.51266 0.37936 0.46935
  -4  -2  -2   35.54    1.66   1-0.44529-0.82314-0.74641-0.40055-0.49455-0.40248
   4   2   2   38.77    1.59   1-0.66284-0.28514-0.13677-0.48323-0.73616-0.82775
   4   2   3    7.20    0.61   1-0.63512-0.25132-0.31474-0.70207 0.70537 0.66628
  -4  -2  -3    7.88    0.75   1-0.38927-0.77266-0.81335-0.42558 0.43233 0.47102
  -4  -2  -3    7.71    0.92   1-0.43136-0.81557-0.76446-0.37786-0.47908-0.43823
   4   2   3    7.93    0.70   1-0.65700-0.27298-0.18948-0.57664-0.72968-0.77003
   4   2   4   20.26    1.06   1-0.65635-0.26431-0.19449-0.62094 0.72895 0.73795
  -4  -2  -4   22.24    1.19   1-0.42824-0.81810-0.76837-0.34045 0.47561 0.46345
  -4  -2  -4   23.65    1.32   1-0.41578-0.80636-0.78350-0.35618-0.46177-0.47214
   4   2   4   21.05    1.09   1-0.65249-0.26214-0.22158-0.64944-0.72467-0.71379
   4   2   5    1.73    0.50   1-0.66764-0.26925-0.06655-0.53390 0.74149 0.80153
  -4  -2  -5    1.63    0.49   1-0.46037-0.85630-0.72569-0.25717 0.51129 0.44788
  -4  -2  -5    2.24    0.61   1-0.39885-0.79579-0.80292-0.33486-0.44297-0.50455
   4   2   5    2.08    0.47   1-0.64968-0.25299-0.23935-0.70791-0.72154-0.65943
   4   2   6    0.29    0.49   1-0.66802-0.26327 0.05757-0.45067 0.74191 0.85297
  -4  -2  -6    0.41    0.48   1-0.48552-0.88752-0.68810-0.17899 0.53923 0.42456
  -4  -2  -6    0.46    0.80   1-0.38076-0.78406-0.82230-0.31351-0.42288-0.53567
   4   2   6    0.12    0.63   1-0.64844-0.24542-0.24673-0.75599-0.72016-0.60682
   4   2   7    0.11    0.77   1-0.65878-0.24768 0.17518-0.37397 0.73165 0.89375
  -4  -2  -7    0.04    0.49   1-0.50458-0.91264-0.65677-0.10706 0.56039 0.39447
  -4  -2  -7    0.47    0.58   1-0.36162-0.77128-0.84138-0.29186-0.40162-0.56562
   4   2   7    0.07    0.69   1-0.64851-0.23916-0.24629-0.79625-0.72025-0.55567
   4   2   8   -0.10    0.59   1-0.64143-0.22398 0.28471-0.30534 0.71238 0.92552
  -4  -2  -8   -0.10    0.75   1-0.51841-0.93255-0.63225-0.04194 0.57576 0.35858
  -4  -2  -8    0.60    0.87   1-0.34149-0.75752-0.85996-0.26971-0.37926-0.59449
   4   2   8   -0.06    0.51   1-0.64961-0.23392-0.23975-0.83041-0.72147-0.50565
   4   2   9    0.27    0.65   1-0.61741-0.19361 0.38550-0.24545 0.68570 0.94987
  -4  -2  -9    0.30    0.55   1-0.52782-0.94802-0.61462 0.01628 0.58620 0.31777
  -4  -2  -9    0.10    0.63   1-0.32042-0.74281-0.87788-0.24690-0.35587-0.62230
   4   2   9    0.25    0.55   1-0.65146-0.22944-0.22828-0.85964-0.72352-0.45647
   4   2  10    1.87    0.73   1-0.58792-0.15777 0.47749-0.19436 0.65295 0.96815
  -4  -2 -10    1.18    0.61   1-0.53342-0.95969-0.60372 0.06777 0.59242 0.27274
  -4  -2 -10    1.57    0.69   1-0.29843-0.72718-0.89502-0.22331-0.33144-0.64909
   4   2  10    1.52    0.60   1-0.65381-0.22546-0.21270-0.88476-0.72613-0.40785
   4   2  11    0.95    1.10   1-0.55281-0.11765 0.56342-0.14906 0.61396 0.98180
  -4  -2 -11    0.34    0.63   1-0.53569-0.96802-0.59923 0.11287 0.59494 0.22400
  -4  -2 -11    0.92    1.00   1-0.27552-0.71064-0.91128-0.19884-0.30600-0.67487
   4   2  11    0.89    0.61   1-0.65646-0.22178-0.19361-0.90637-0.72908-0.35956
   4   3 -12    3.58    1.13   1-0.46616-0.10200 0.71739 0.95745 0.51772-0.26994
   4   3 -12    3.76    0.80   1-0.14060 0.22666-0.97767-0.74231 0.15615-0.63054
   4   3 -11   11.53    1.46   1-0.43095-0.06047 0.76498 0.96428 0.47862-0.25788
   4   3 -11   11.24    1.22   1-0.14173 0.23155-0.97730-0.78250 0.15741-0.57799
   4   3 -10   14.47    1.54   1-0.39261-0.01582 0.80976 0.96829 0.43604-0.24929
   4   3 -10   14.21    1.40   1-0.14691 0.23241-0.97560-0.82134 0.16316-0.52094
   4   3  -9   29.63    1.72   1-0.35099 0.03211 0.85138 0.96915 0.38981-0.24436
   4   3  -9   29.09    1.61   1-0.15657 0.22876-0.97223-0.85852 0.17389-0.45891
   4   3  -8   50.53    2.92   1-0.30593 0.08349 0.88935 0.96636 0.33977-0.24323
   4   3  -8   46.46    2.67   1-0.17124 0.22013-0.96669-0.89353 0.19018-0.39133
   4   3  -7   15.10    1.08   1-0.25734 0.13839 0.92308 0.95932 0.28580-0.24603
   4   3  -7   15.91    1.01   1-0.19143 0.20596-0.95820-0.92558 0.21261-0.31760
   4   3  -6    1.80    0.50   1-0.21766 0.18575-0.94561-0.95354 0.24174-0.23717
  -4  -3   6    1.39    0.55   1 0.20194-0.20150-0.95337-0.94579-0.22427 0.25469
   4   3  -5   34.42    1.48   1-0.25033 0.15911-0.92738-0.97586 0.27802-0.14959
  -4  -3   5   34.71    1.64   1 0.14639-0.26304-0.97577-0.92763-0.16258 0.26512
   4   3  -4   55.49    2.14   1-0.28957 0.12590-0.90150-0.99053 0.32160-0.05471
  -4  -3   4   57.89    2.37   1 0.08737-0.32810-0.99143-0.90241-0.09703 0.27928
   4   3  -3   20.08    1.00   1-0.33509 0.08641-0.86556-0.99514 0.37215 0.04713
  -4  -3   3   19.66    1.06   1 0.02629-0.39521-0.99922-0.86965-0.02920 0.29582
   4   3  -2    4.26    0.60   1-0.38590 0.04162-0.81693-0.98705 0.42859 0.15486
  -4  -3   2    4.00    0.54   1-0.03628-0.46382-0.99852-0.82840 0.04030 0.31403
   4   3  -1    0.11    0.34   1-0.43941-0.00563-0.75415-0.96412 0.48802 0.26537
  -4  -3   1    0.12    0.40   1-0.09908-0.53263-0.98897-0.77830 0.11004 0.33247
  -4  -3   1    0.09    0.40   1-0.27169-0.70481-0.91385-0.70515-0.30174-0.07733
   4   3  -1    0.06    0.33   1-0.66668-0.23359 0.08535-0.12411-0.74043-0.96438
   4   3   0    0.11    0.35   1-0.49448-0.05463-0.67370-0.92427 0.54918 0.37779
  -4  -3   0    0.03    0.39   1-0.16051-0.60009-0.97080-0.71958 0.17827 0.34940
   4   3   0    0.10    0.38   1-0.66647-0.22704-0.08902-0.33918-0.74019-0.91290
   4   3   1    6.90    0.68   1-0.54685-0.10093-0.57626-0.86743 0.60734 0.48720
  -4  -3  -1    6.80    0.67   1-0.21890-0.66451-0.94497-0.65320 0.24312 0.36295
  -4  -3  -1    6.19    0.85   1-0.33191-0.77776-0.86830-0.57814-0.36862-0.24664
   4   3   1    7.05    0.59   1-0.65697-0.21121-0.18972-0.48059-0.72964-0.85112
   4   3   2    1.74    0.43   1-0.59289-0.14091-0.46354-0.79531 0.65847 0.58959
  -4  -3  -2    1.81    0.55   1-0.27269-0.72432-0.91319-0.58087 0.30285 0.37139
  -4  -3  -2    1.23    0.77   1-0.33768-0.78989-0.86331-0.53242-0.37503-0.30427
   4   3   2    1.88    0.52   1-0.64795-0.19586-0.24958-0.58115-0.71962-0.78987
   4   3   3    2.30    0.60   1-0.62948-0.17142-0.33911-0.71147 0.69910 0.68147
  -4  -3  -3    2.48    0.49   1-0.32062-0.77829-0.87772-0.50485 0.35609 0.37333
  -4  -3  -3    2.32    0.85   1-0.33625-0.79483-0.86456-0.49293-0.37345-0.35390
   4   3   3    2.45    0.45   1-0.64145-0.18302-0.28464-0.65691-0.71240-0.73141
   4   3   4   10.52    0.89   1-0.65334-0.18706-0.21592-0.62727 0.72561 0.75599
  -4  -3  -4    9.82    1.07   1-0.36198-0.82567-0.84103-0.42762 0.40202 0.36796
  -4  -3  -4   10.53    1.22   1-0.33009-0.79503-0.86985-0.45749-0.36660-0.39827
   4   3   4    9.92    0.85   1-0.63756-0.17281-0.30351-0.71647-0.70808-0.67586
   4   3   5    0.38    0.64   1-0.66681-0.19418-0.08311-0.53537 0.74057 0.82199
  -4  -3  -5    0.66    0.46   1-0.39652-0.86624-0.80549-0.35154 0.44038 0.35502
  -4  -3  -5    0.34    0.64   1-0.32053-0.79184-0.87779-0.42470-0.35599-0.43887
   4   3   5    0.46    0.45   1-0.63591-0.16482-0.31115-0.76482-0.70625-0.62279
   4   3   6   26.64    1.69   1-0.66838-0.18940 0.04717-0.44598 0.74231 0.87476
  -4  -3  -6   23.99    1.66   1-0.42365-0.89991-0.77403-0.27987 0.47052 0.33439
  -4  -3  -6   29.54    1.93   1-0.30839-0.78606-0.88745-0.39363-0.34251-0.47660
   4   3   6   26.21    1.64   1-0.63603-0.15861-0.31062-0.80498-0.70638-0.57169
   4   3   7   44.79    2.39   1-0.65921-0.17387 0.17155-0.36251 0.73212 0.91561
  -4  -3  -7   37.45    1.98   1-0.44548-0.92780-0.74616-0.21141 0.49475 0.30737
  -4  -3  -7   49.27    2.51   1-0.29417-0.77820-0.89817-0.36362-0.32671-0.51203
   4   3   7   41.86    2.14   1-0.63749-0.15374-0.30385-0.83892-0.70800-0.52208
   4   3   8    6.62    0.91   1-0.64081-0.14912 0.28784-0.28712 0.71169 0.94621
  -4  -3  -8    5.14    0.64   1-0.46176-0.95015-0.72371-0.14836 0.51283 0.27420
  -4  -3  -8    7.06    1.23   1-0.27820-0.76859-0.90946-0.33418-0.30897-0.54550
   4   3   8    6.79    0.85   1-0.63993-0.14985-0.29214-0.86791-0.71072-0.47356
   4   3   9    0.41    0.66   1-0.61473-0.11669 0.39495-0.22091 0.68272 0.96828
  -4  -3  -9    0.51    0.77   1-0.47310-0.96757-0.70716-0.09121 0.52544 0.23555
  -4  -3  -9    0.59    0.72   1-0.26070-0.75745-0.92097-0.30496-0.28953-0.57728
   4   3   9    0.62    0.69   1-0.64306-0.14664-0.27638-0.89285-0.71419-0.42580
   4   3  10    2.61    1.01   1-0.58233-0.07794 0.49255-0.16422 0.64674 0.98333
  -4  -3 -10    1.40    0.81   1-0.48004-0.98057-0.69664-0.04009 0.53314 0.19200
  -4  -3 -10    3.01    0.80   1-0.24181-0.74493-0.93241-0.27566-0.26856-0.60752
   4   3  10    1.94    0.84   1-0.64662-0.14387-0.25717-0.91434-0.71814-0.37852
   4   4 -12    2.24    1.15   1-0.46863-0.03020 0.71378 0.96882 0.52047-0.24589
   4   4 -12    2.59    0.78   1-0.13676 0.30477-0.97888-0.72862 0.15189-0.61336
   4   4 -11    5.99    1.26   1-0.43595 0.00879 0.75863 0.97290 0.48417-0.23103
   4   4 -11    5.66    0.90   1-0.13853 0.30903-0.97833-0.76862 0.15385-0.56010
   4   4 -10    7.95    0.92   1-0.40067 0.05038 0.80090 0.97441 0.44499-0.21904
   4   4 -10    8.15    0.85   1-0.14421 0.30937-0.97649-0.80733 0.16016-0.50249
   4   4  -9    0.80    0.72   1-0.36270 0.09467 0.84034 0.97309 0.40281-0.21005
   4   4  -9    0.34    0.61   1-0.15424 0.30537-0.97306-0.84445 0.17130-0.44005
   4   4  -8    2.71    0.73   1-0.32194 0.14174 0.87664 0.96862 0.35756-0.20414
   4   4  -8    2.13    0.80   1-0.16909 0.29655-0.96754-0.87947 0.18779-0.37227
   4   4  -7   -0.04    0.87   1-0.27836 0.19164 0.90936 0.96057 0.30915-0.20138
   4   4  -7    0.09    0.51   1-0.18926 0.28241-0.95916-0.91164 0.21019-0.29857
   4   4  -6    1.77    0.52   1-0.21522 0.26247-0.94686-0.93988 0.23902-0.21844
   4   4  -5   24.01    1.27   1-0.24736 0.23636-0.92915-0.96273 0.27472-0.13145
  -4  -4   5   25.00    1.50   1 0.17973-0.30392-0.96324-0.93002-0.19961 0.20658
   4   4  -4    0.57    0.58   1-0.28585 0.20389-0.90415-0.97827 0.31747-0.03740
  -4  -4   4    0.81    0.52   1 0.12805-0.36160-0.98151-0.90773-0.14221 0.21272
   4   4  -3    7.34    0.71   1-0.33047 0.16530-0.86953-0.98419 0.36702 0.06344
  -4  -4   3    7.63    0.71   1 0.07393-0.42184-0.99387-0.87920-0.08211 0.22146
   4   4  -2   39.51    1.83   1-0.38039 0.12140-0.82268-0.97790 0.42247 0.17018
  -4  -4   2   41.55    1.81   1 0.01869-0.48311-0.99961-0.84439-0.02076 0.23152
   4   4  -2   37.09    2.16   1-0.66034-0.15917 0.16155 0.00767-0.73338-0.98721
   4   4  -2   42.74    2.76   1-0.06385 0.43753 0.99543 0.83909-0.07091-0.32324
   4   4  -1   14.31    0.92   1-0.43325 0.07478-0.76207-0.95708 0.48118 0.27999
  -4  -4   1   13.25    0.90   1-0.03714-0.54497-0.99845-0.80269 0.04125 0.24224
   4   4  -1   14.97    1.02   1-0.66565-0.15816-0.10179-0.29637-0.73928-0.94188
   4   4   0   27.13    1.27   1-0.48819 0.02591-0.68387-0.91948 0.54219 0.39226
  -4  -4   0   25.45    1.27   1-0.09247-0.60633-0.99040-0.75409 0.10270 0.25239
   4   4   0   27.71    1.32   1-0.65126-0.13743-0.22956-0.46483-0.72329-0.87466
   4   4   1   26.53    1.38   1-0.54111-0.02094-0.58823-0.86444 0.60097 0.50229
  -4  -4  -1   24.46    1.64   1-0.14603-0.66592-0.97589-0.69903 0.16219 0.26058
   4   4   1   26.41    1.70   1-0.63838-0.11823-0.29963-0.57560-0.70900-0.80913
   4   4   2   13.94    1.05   1-0.58839-0.06215-0.47618-0.79298 0.65348 0.60605
  -4  -4  -2   13.47    1.06   1-0.19652-0.72243-0.95589-0.63848 0.21826 0.26536
   4   4   2   13.49    1.12   1-0.62953-0.10304-0.33890-0.65557-0.69916-0.74806
   4   4   3   14.99    1.05   1-0.62663-0.09431-0.35070-0.70811 0.69594 0.69977
  -4  -4  -3   14.51    0.95   1-0.24277-0.77471-0.93185-0.57389 0.26963 0.26543
   4   4   3   15.68    0.96   1-0.62438-0.09156-0.35954-0.71692-0.69344-0.69111
   4   4   4   18.43    1.14   1-0.65202-0.11150-0.22463-0.62089 0.72415 0.77592
  -4  -4  -4   17.60    1.17   1-0.28387-0.82184-0.90554-0.50704 0.31527 0.25977
  -4  -4  -4   13.95    1.14   1-0.24193-0.78124-0.93234-0.53495-0.26870-0.32167
   4   4   4   18.88    1.11   1-0.62219-0.08303-0.36793-0.76600-0.69101-0.63744
   4   4   5    1.56    0.70   1-0.66658-0.11971-0.08705-0.52421 0.74032 0.84312
  -4  -4  -5    1.58    0.50   1-0.31925-0.86324-0.87883-0.43978 0.35457 0.24777
   4   4   5    1.70    0.53   1-0.62225-0.07677-0.36768-0.80645-0.69108-0.58628
   4   4   6   17.57    1.16   1-0.66831-0.11508 0.04935-0.42871 0.74223 0.89607
  -4  -4  -6   14.93    1.02   1-0.34869-0.89871-0.85348-0.37388 0.38727 0.22917
   4   4   6   17.72    1.11   1-0.62400-0.07218-0.36102-0.84049-0.69302-0.53698
   4   4   7   -0.10    0.79   1-0.65813-0.09855 0.18052-0.33844 0.73093 0.93580
  -4  -4  -7    0.11    0.50   1-0.37226-0.92831-0.83095-0.31080 0.41344 0.20405
   4   4   7    0.05    0.75   1-0.62696-0.06881-0.34936-0.86953-0.69631-0.48904
   4   4   8    0.33    0.61   1-0.63753-0.07160 0.30365-0.25621 0.70805 0.96396
  -4  -4  -8    0.52    0.72   1-0.39021-0.95228-0.81235-0.25165 0.43337 0.17268
   4   4   8    0.63    0.78   1-0.63078-0.06630-0.33365-0.89453-0.70055-0.44205
   4   4   9   -0.00    0.95   1-0.60813-0.03584 0.41714-0.18362 0.67539 0.98234
  -4  -4  -9    0.62    0.57   1-0.40286-0.97096-0.79843-0.19719 0.44742 0.13543
   4   4   9    0.47    0.57   1-0.63516-0.06434-0.31455-0.91613-0.70542-0.39568
   4   5 -11    0.11    0.82   1-0.44438 0.07462 0.74762 0.97687 0.49353-0.20036
   4   5 -11    0.36    0.70   1-0.14065 0.38118-0.97765-0.75303 0.15621-0.53631
   4   5 -10    4.46    0.89   1-0.41219 0.11313 0.78772 0.97621 0.45779-0.18494
   4   5 -10    4.81    0.75   1-0.14699 0.38087-0.97557-0.79150 0.16324-0.47797
   4   5  -9   17.36    1.41   1-0.37784 0.15379 0.82530 0.97302 0.41964-0.17192
   4   5  -9   15.78    1.00   1-0.15754 0.37634-0.97188-0.82836 0.17497-0.41494
   4   5  -8   15.04    1.64   1-0.34129 0.19666 0.86014 0.96710 0.37904-0.16135
   4   5  -8   13.09    1.36   1-0.17276 0.36715-0.96609-0.86311 0.19188-0.34674
   4   5  -7   30.25    2.30   1-0.30252 0.24175 0.89196 0.95815 0.33598-0.15325
   4   5  -7   28.63    2.11   1-0.19311 0.35283-0.95744-0.89502 0.21447-0.27285
   4   5  -6   43.20    2.63   1-0.26155 0.28904 0.92044 0.94587 0.29048-0.14758
   4   5  -6   43.68    2.58   1-0.21902 0.33294-0.94490-0.92302 0.24325-0.19277
   4   5  -5   11.23    0.83   1-0.25086 0.30713-0.92706-0.94572 0.27861-0.10612
  -4  -5   5   11.06    0.94   1 0.21565-0.34223-0.94664-0.92833-0.23950 0.14517
   4   5  -4    0.80    0.63   1-0.28878 0.27524-0.90207-0.96129 0.32072-0.01271
  -4  -5   4    0.48    0.78   1 0.17060-0.39327-0.96694-0.90808-0.18948 0.14394
   4   5  -3   25.64    1.36   1-0.33260 0.23744-0.86770-0.96747 0.36939 0.08725
  -4  -5   3   24.52    1.48   1 0.12389-0.44599-0.98270-0.88328-0.13759 0.14456
   4   5  -2   38.23    1.90   1-0.38161 0.19446-0.82142-0.96173 0.42382 0.19298
  -4  -5   2   38.76    1.87   1 0.07569-0.50038-0.99358-0.85326-0.08406 0.14677
   4   5  -2   40.41    1.95   1-0.66755-0.09199-0.06859-0.20757-0.74139-0.97388
   4   5  -2   43.75    2.24   1-0.21315 0.36251 0.94790 0.80625-0.23673-0.46747
   4   5  -1    9.98    0.83   1-0.43359 0.14870-0.76163-0.94169 0.48155 0.30183
  -4  -5   1    9.76    0.76   1 0.02710-0.55499-0.99917-0.81831-0.03010 0.14943
   4   5  -1   10.54    0.85   1-0.64803-0.06614-0.24913-0.42881-0.71971-0.90096
   4   5  -1    9.80    1.01   1-0.05287 0.52879 0.99687 0.81463-0.05872-0.23821
   4   5   0    5.11    0.69   1-0.48790 0.10046-0.68433-0.90498 0.54187 0.41340
  -4  -5   0    4.43    0.70   1-0.02136-0.60949-0.99949-0.77808 0.02373 0.15197
   4   5   0    5.03    0.75   1-0.63028-0.04206-0.33575-0.55613-0.70000-0.83002
   4   5   0    4.46    0.67   1 0.03761 0.62529 0.99841 0.77558 0.04178-0.08646
   4   5   1    0.42    0.42   1-0.54062 0.05381-0.58925-0.85050 0.60041 0.52320
  -4  -5  -1    0.19    0.65   1-0.06883-0.66299-0.99469-0.73273 0.07645 0.15339
   4   5   1    0.37    0.39   1-0.61846-0.02390-0.38172-0.64280-0.68687-0.76565
   4   5   2   -0.04    0.42   1-0.58814 0.01236-0.47688-0.77873 0.65319 0.62723
  -4  -5  -2    0.00    0.63   1-0.11430-0.71449-0.98530-0.68279 0.12695 0.15260
   4   5   2    0.12    0.41   1-0.61165-0.01076-0.40548-0.70727-0.67930-0.70686
   4   5   3    2.92    0.71   1-0.62689-0.02032-0.34964-0.69208 0.69624 0.72153
  -4  -5  -3    2.45    0.55   1-0.15679-0.76300-0.97215-0.62910 0.17413 0.14848
   4   5   3    2.67    0.71   1-0.60863-0.00141-0.41549-0.75797-0.67596-0.65227
   4   5   4    1.63    0.51   1-0.65270-0.03793-0.22021-0.60138 0.72490 0.79805
  -4  -5  -4    1.77    0.54   1-0.19539-0.80762-0.95641-0.57281 0.21700 0.14005
   4   5   4    1.34    0.72   1-0.60842 0.00512-0.41619-0.79937-0.67572-0.60080
   4   5   5    0.17    0.71   1-0.66712-0.04600-0.07740-0.49947 0.74091 0.86510
  -4  -5  -5    0.22    0.72   1-0.22938-0.84764-0.93940-0.51525 0.25475 0.12651
   4   5   5    0.30    0.74   1-0.61025 0.00963-0.41016-0.83404-0.67775-0.55160
   4   5   6    5.87    0.81   1-0.66768-0.04022 0.06558-0.39738 0.74154 0.91676
  -4  -5  -6    4.54    0.65   1-0.25825-0.88254-0.92251-0.45782 0.28682 0.10728
   4   5   6    5.93    0.79   1-0.61355 0.01265-0.39900-0.86358-0.68142-0.50404
   4   5   7    2.73    0.66   1-0.65504-0.02122 0.20407-0.29980 0.72750 0.95376
  -4  -5  -7    3.06    0.83   1-0.28172-0.91204-0.90704-0.40180 0.31288 0.08205
   4   5   7    2.85    0.62   1-0.61790 0.01464-0.38373-0.88902-0.68625-0.45763
   4   5   8   13.08    1.53   1-0.63056 0.00960 0.33457-0.21020 0.70031 0.97760
  -4  -5  -8   11.47    1.21   1-0.29965-0.93600-0.89411-0.34832 0.33280 0.05066
   4   5   8   12.31    1.24   1-0.62295 0.01593-0.36505-0.91104-0.69185-0.41200
   4   6 -10    3.31    1.20   1-0.42665 0.17294 0.77034 0.97381 0.47384-0.14758
   4   6 -10    3.19    0.74   1-0.15463 0.44750-0.97293-0.77395 0.17174-0.44803
   4   6  -9    4.67    0.89   1-0.39586 0.21005 0.80622 0.96892 0.43964-0.13061
   4   6  -9    3.42    0.94   1-0.16585 0.44231-0.96879-0.81036 0.18420-0.38428
   4   6  -8   13.22    1.08   1-0.36338 0.24884 0.83969 0.96162 0.40357-0.11552
   4   6  -8   12.44    1.06   1-0.18160 0.43259-0.96246-0.84458 0.20168-0.31549
   4   6  -7    0.63    0.97   1-0.32922 0.28931 0.87058 0.95175 0.36564-0.10228
   4   6  -7    0.75    0.57   1-0.20229 0.41792-0.95320-0.87587 0.22466-0.24121
   4   6  -6    2.53    0.84   1-0.29345 0.33140 0.89869 0.93910 0.32591-0.09084
   4   6  -6    3.48    0.80   1-0.22833 0.39790-0.93997-0.90318 0.25359-0.16099
   4   6  -5    0.23    0.59   1-0.25616 0.37501 0.92382 0.92346 0.28449-0.08110
   4   6  -5    0.02    0.48   1-0.26005 0.37222-0.92138-0.92515 0.28881-0.07447
   4   6  -4    0.39    0.47   1-0.29757 0.34072-0.89567-0.93998 0.33048 0.01849
  -4  -6   4    0.17    0.61   1 0.21490-0.42320-0.94702-0.90306-0.23867 0.07323
   4   6  -3    7.27    0.85   1-0.34072 0.30359-0.86064-0.94550 0.37841 0.11772
  -4  -6   3    6.31    0.96   1 0.17503-0.46907-0.96518-0.88067-0.19439 0.06625
   4   6  -3    8.50    0.79   1-0.66252-0.01883 0.14019 0.05680-0.73580-0.99820
   4   6  -3    9.51    0.82   1-0.55478 0.08938 0.55907 0.47300-0.61615-0.87651
   4   6  -2    0.19    0.62   1-0.38885 0.26150-0.81381-0.93921 0.43186 0.22246
  -4  -6   2    0.30    0.56   1 0.13429-0.51580-0.97965-0.85458-0.14915 0.06022
   4   6  -2    0.21    0.33   1-0.65052-0.00056-0.23415-0.35824-0.72248-0.93362
   4   6  -2    0.26    0.44   1-0.30740 0.34255 0.88822 0.76126-0.34140-0.55057
   4   6  -1    7.42    0.73   1-0.43984 0.21670-0.75359-0.91868 0.48850 0.33023
  -4  -6   1    7.49    0.84   1 0.09311-0.56299-0.99027-0.82464-0.10341 0.05471
   4   6  -1    7.57    0.98   1-0.62623 0.03005-0.35228-0.51707-0.69550-0.85541
   4   6  -1    7.71    1.03   1-0.16493 0.49101 0.96914 0.80159-0.18318-0.34109
   4   6   0   14.24    1.05   1-0.49320 0.16942-0.67580-0.88149 0.54775 0.44074
  -4  -6   0   12.43    1.17   1 0.05190-0.61050-0.99698-0.79048-0.05764 0.04916
   4   6   0   13.55    1.35   1-0.61035 0.05226-0.40983-0.61532-0.67786-0.78654
   4   6   0   13.27    1.10   1-0.07274 0.58921 0.99407 0.78593-0.08079-0.18745
   4   6   1   12.81    1.20   1-0.54513 0.12356-0.57990-0.82618 0.60542 0.54967
  -4  -6  -1   10.36    1.03   1 0.01156-0.65686-0.99985-0.75280-0.01284 0.04265
   4   6   1   11.79    1.12   1-0.60117 0.06778-0.43909-0.68528-0.66767-0.72510
   4   6   1   10.42    0.99   1-0.01130 0.65664 0.99985 0.75112-0.01255-0.06797
   4   6   2   11.41    1.04   1-0.59207 0.08268-0.46588-0.75277 0.65756 0.65306
  -4  -6  -2    8.43    0.95   1-0.02730-0.70176-0.99916-0.71157 0.03032 0.03453
   4   6   2    9.47    0.93   1-0.59681 0.07847-0.45218-0.73907-0.66282-0.66903
   4   6   2    7.97    0.82   1 0.02996 0.70392 0.99899 0.70967 0.03328 0.02911
   4   6   3   13.11    1.11   1-0.63030 0.05051-0.33566-0.66314 0.70002 0.74678
  -4  -6  -3   10.62    1.09   1-0.06393-0.74442-0.99542-0.66727 0.07101 0.02392
   4   6   3   11.02    0.89   1-0.59590 0.08571-0.45485-0.78244-0.66181-0.61679
   4   6   4    6.10    0.82   1-0.65535 0.03365-0.20185-0.56793 0.72784 0.82238
  -4  -6  -4    5.97    0.88   1-0.09753-0.78404-0.98931-0.62062 0.10831 0.00993
   4   6   4    6.06    0.81   1-0.59747 0.09047-0.45023-0.81852-0.66356-0.56729
   4   6   5    5.65    0.75   1-0.66820 0.02715-0.05266-0.45964 0.74211 0.88768
  -4  -6  -5    4.31    0.87   1-0.12733-0.81987-0.98172-0.57248 0.14142-0.00826
   4   6   5    5.59    0.73   1-0.60081 0.09346-0.44018-0.84917-0.66727-0.51977
   4   6   6    7.11    1.09   1-0.66589 0.03581 0.09815-0.34972 0.73955 0.93616
  -4  -6  -6    6.09    0.84   1-0.15267-0.85124-0.97362-0.52383 0.16956-0.03141
   4   6   6    5.83    0.91   1-0.60542 0.09519-0.42585-0.87554-0.67238-0.47365
   4   6   7    0.63    0.91   1-0.64868 0.05937 0.24530-0.24348 0.72043 0.96808
  -4  -6  -7    0.18    1.01   1-0.17296-0.87756-0.96601-0.47567 0.19210-0.06018
   4   6   7    0.75    0.74   1-0.61089 0.09605-0.40802-0.89841-0.67846-0.42850
   4   7  -9    0.81    0.82   1-0.41624 0.26393 0.78296 0.96063 0.46228-0.08667
   4   7  -9    0.35    0.91   1-0.17865 0.50378-0.96369-0.79035 0.19842-0.34861
   4   7  -8    2.87    1.11   1-0.38770 0.29879 0.81503 0.95194 0.43058-0.06720
   4   7  -8    3.83    0.70   1-0.19504 0.49342-0.95657-0.82378 0.21661-0.27912
   4   7  -7   13.79    1.62   1-0.35798 0.33482 0.84485 0.94100 0.39758-0.04904
   4   7  -7   14.77    1.62   1-0.21621 0.47827-0.94635-0.85411 0.24013-0.20430
   4   7  -6    7.62    1.14   1-0.32717 0.37195 0.87231 0.92769 0.36336-0.03210
   4   7  -6    9.27    0.80   1-0.24254 0.45798-0.93199-0.88030 0.26936-0.12377
   4   7  -5   19.72    1.77   1-0.29537 0.41006 0.89729 0.91191 0.32805-0.01624
   4   7  -5   19.51    1.85   1-0.27428 0.43226-0.91212-0.90098 0.30462-0.03722
   4   7  -4   20.36    1.74   1-0.26275 0.44900 0.91967 0.89352 0.29182-0.00131
   4   7  -4   24.95    2.04   1-0.31155 0.40101-0.88498-0.91439 0.34602 0.05546
   4   7  -3    7.45    0.74   1-0.35416 0.36443-0.84844-0.91839 0.39333 0.15408
   4   7  -3    6.65    0.86   1-0.66288 0.05516-0.13633-0.20483-0.73620-0.97724
   4   7  -2    0.62    0.50   1-0.40146 0.32316-0.80001-0.91051 0.44586 0.25791
  -4  -7   2    0.59    0.65   1 0.19357-0.53076-0.95724-0.84708-0.21498-0.02711
   4   7  -2    0.76    0.56   1-0.62955 0.09480-0.33881-0.44801-0.69919-0.88898
   4   7  -1   13.06    0.97   1-0.45142 0.27939-0.73814-0.88827 0.50135 0.36455
  -4  -7   1   12.30    1.08   1 0.15989-0.57043-0.97103-0.82031-0.17758-0.04097
   4   7  -1   13.03    1.39   1-0.60770 0.12298-0.41853-0.56843-0.67492-0.81348
   4   7  -1   13.94    1.09   1-0.25228 0.47796 0.92620 0.77334-0.28018-0.41652
   4   7   0   20.96    1.75   1-0.50359 0.23328-0.65846-0.84919 0.55929 0.47375
  -4  -7   0   17.66    1.75   1 0.12659-0.60973-0.98194-0.79067-0.14059-0.05524
   4   7   0   16.51    1.64   1-0.59496 0.14206-0.45760-0.64820-0.66077-0.74809
   4   7   0   18.34    1.85   1-0.16499 0.57125 0.96912 0.77567-0.18324-0.26832
   4   7   1    3.05    0.73   1-0.55428 0.18866-0.56018-0.79151 0.61559 0.58130
  -4  -7  -1    2.48    0.72   1 0.09416-0.64816-0.99004-0.75822-0.10457-0.07049
   4   7   1    2.69    0.58   1-0.58841 0.15493-0.47612-0.70742-0.65350-0.68959
   4   7   1    2.40    0.57   1-0.10237 0.63986 0.98822 0.75418-0.11369-0.14753
   4   7   2    7.14    0.91   1-0.59993 0.14908-0.44287-0.71480 0.66628 0.68325
  -4  -7  -2    3.99    1.05   1 0.06326-0.68546-0.99552-0.72282-0.07026-0.08750
   4   7   2    4.58    0.64   1-0.58617 0.16351-0.48227-0.75427-0.65100-0.63586
   4   7   2    4.05    0.76   1-0.05756 0.69067 0.99629 0.72166-0.06393-0.04651
   4   7   3    0.06    0.57   1-0.63661 0.11846-0.30792-0.62044 0.70703 0.77525
  -4  -7  -3    0.44    0.70   1 0.03450-0.72025-0.99866-0.68542-0.03832-0.10685
   4   7   3    0.08    0.53   1-0.58695 0.16906-0.48014-0.79284-0.65187-0.58550
   4   7   3    0.12    0.50   1-0.02588 0.72835 0.99925 0.68403-0.02874 0.03991
   4   7   4    0.17    0.88   1-0.65962 0.10362-0.16793-0.51892 0.73259 0.84851
  -4  -7  -4   -0.42    0.88   1 0.00860-0.75218-0.99991-0.64612-0.00955-0.12938
   4   7   4    0.17    0.56   1-0.58989 0.17245-0.47201-0.82541-0.65514-0.53753
   4   7   4    0.12    0.76   1-0.00411 0.75613 0.99998 0.64417-0.00456 0.11535
   4   7   5    0.71    0.89   1-0.66909 0.10050-0.01019-0.40208 0.74310 0.91006
  -4  -7  -5    0.54    0.98   1-0.01362-0.78044-0.99979-0.60545 0.01513-0.15599
   4   7   5    0.62    0.59   1-0.59438 0.17430-0.45928-0.85338-0.66012-0.49128
   4   7   5    0.35    0.87   1 0.01001 0.77625 0.99988 0.60348 0.01111 0.18228
   4   7   6    0.92    0.62   1-0.59994 0.17506-0.44282-0.87762-0.66630-0.44623
   4   7   6    0.48    0.68   1 0.01808 0.79033 0.99963 0.56264 0.02008 0.24250
   4   8  -8    3.37    0.86   1-0.41380 0.34695 0.78584 0.93772 0.45958-0.01691
   4   8  -8    2.47    0.71   1-0.21266 0.55007-0.94814-0.80045 0.23619-0.23810
   4   8  -7    1.98    1.06   1-0.38833 0.37874 0.81435 0.92548 0.43129 0.00596
   4   8  -7    2.61    0.92   1-0.23442 0.53434-0.93662-0.82947 0.26035-0.16264
   4   8  -6    9.92    1.16   1-0.36225 0.41114 0.84077 0.91113 0.40232 0.02816
   4   8  -6   11.67    1.19   1-0.26114 0.51365-0.92070-0.85410 0.29002-0.08167
   4   8  -5    0.85    0.89   1-0.33570 0.44400 0.86504 0.89463 0.37283 0.04984
   4   8  -5    0.18    0.71   1-0.29304 0.48777-0.89900-0.87295 0.32545 0.00505
   4   8  -4    1.76    0.64   1-0.30886 0.47716 0.88709 0.87592 0.34302 0.07120
   4   8  -4    1.90    0.82   1-0.33018 0.45666-0.86977-0.88427 0.36670 0.09759
   4   8  -3    0.18    0.81   1-0.28195 0.51039 0.90688 0.85495 0.31314 0.09247
   4   8  -3    0.02    0.55   1-0.37234 0.42052-0.83087-0.88591 0.41353 0.19572
   4   8  -2    1.42    0.58   1-0.25524 0.54341 0.92438 0.83168 0.28347 0.11398
   4   8  -2    1.85    0.59   1-0.41807 0.38093-0.78078-0.87535 0.46431 0.29772
   4   8  -2    0.81    0.35   1-0.61279 0.18434-0.40160-0.49572-0.68058-0.84868
   4   8  -1    1.09    0.81   1-0.46777 0.33729-0.71504-0.85021 0.51951 0.40417
   4   8  -1    0.84    0.54   1-0.59524 0.20984-0.45678-0.59178-0.66108-0.77829
   4   8  -1    1.33    0.80   1-0.32311 0.48141 0.87568 0.73751-0.35885-0.47360
   4   8   0   -0.16    0.85   1-0.51858 0.29255-0.63195-0.80772 0.57594 0.51185
  -4  -8   0   -0.28    0.80   1 0.20188-0.60866-0.95339-0.77704-0.22421-0.16038
   4   8   0    0.09    0.66   1-0.58524 0.22617-0.48478-0.66048-0.64998-0.71596
   4   8   0   -0.24    0.63   1-0.24315 0.56737 0.93163 0.75288-0.27005-0.33355
   4   8   1    5.42    0.75   1-0.56763 0.24957-0.52948-0.74585 0.63042 0.61759
  -4  -8  -1    4.31    1.24   1 0.17807-0.63847-0.96393-0.74702-0.19777-0.18520
   4   8   1    4.18    0.87   1-0.58073 0.23702-0.49675-0.71315-0.64496-0.65971
   4   8   1    4.22    0.78   1-0.18239 0.63412 0.96213 0.74278-0.20257-0.21482
   4   8   2    2.99    0.87   1-0.61127 0.21199-0.40675-0.66371 0.67889 0.71731
  -4  -8  -2    2.50    0.95   1 0.15629-0.66625-0.97233-0.71486-0.17358-0.21227
   4   8   2    1.67    0.88   1-0.58000 0.24407-0.49864-0.75574-0.64416-0.60767
   4   8   2    2.06    0.62   1-0.13670 0.68582 0.97890 0.71897-0.15182-0.11283
   4   8   3    8.44    1.28   1-0.64529 0.18404-0.26450-0.56207 0.71667 0.80635
  -4  -8  -3    6.90    1.21   1 0.13726-0.69128-0.97873-0.68070-0.15245-0.24240
   4   8   3    5.37    1.03   1-0.58196 0.24845-0.49353-0.79134-0.64633-0.55861
   4   8   3    5.58    0.80   1-0.10282 0.72570 0.98812 0.68759-0.11420-0.02395
   4   8   4    2.75    0.66   1-0.58582 0.25092-0.48321-0.82172-0.65062-0.51166
   4   8   4    1.86    0.62   1-0.07828 0.75624 0.99313 0.65201-0.08694 0.05454
   4   9  -6    1.85    0.76   1-0.39831 0.44935 0.80352 0.88885 0.44237 0.08951
   4   9  -6    3.06    0.94   1-0.28375 0.56531-0.90563-0.82412 0.31514-0.03511
   4   9  -5    6.63    1.15   1-0.37675 0.47722 0.82642 0.87099 0.41842 0.11673
   4   9  -5    8.97    1.03   1-0.31590 0.53919-0.88154-0.84058 0.35084 0.05188
   4   9  -4    4.77    0.83   1-0.35543 0.50486 0.84725 0.85106 0.39474 0.14422
   4   9  -4    6.10    0.86   1-0.35301 0.50810-0.84951-0.84910 0.39206 0.14439
   4   9  -3    6.99    1.12   1-0.33460 0.53200 0.86598 0.82903 0.37161 0.17226
   4   9  -3   10.28    1.10   1-0.39481 0.47233-0.80737-0.84751 0.43848 0.24211
   4   9  -2    6.29    0.89   1-0.31460 0.55832 0.88257 0.80485 0.34940 0.20121
   4   9  -2    8.68    1.03   1-0.43983 0.43342-0.75360-0.83321 0.48849 0.34336
   4   9  -1    3.11    0.73   1-0.29583 0.58341 0.89696 0.77847 0.32855 0.23152
   4   9  -1    5.02    0.87   1-0.48842 0.39090-0.68351-0.80372 0.54244 0.44857
   4   9   0    0.79    0.91   1-0.27877 0.60678 0.90907 0.74983 0.30961 0.26375
   4   9   0    1.25    0.72   1-0.53768 0.34771-0.59522-0.75603 0.59716 0.55453
   4   9   0    1.26    0.88   1-0.58114 0.30467-0.49568-0.65650-0.64542-0.69005
   4   9   0    1.70    0.76   1-0.31074 0.57406 0.88562 0.72155-0.34512-0.38704
   4   9   1    2.49    0.77   1-0.26406 0.62781 0.91883 0.71881 0.29327 0.29858
   4   9   1    4.68    0.99   1-0.58468 0.30678-0.48630-0.68770 0.64935 0.65798
   4   9   1    3.83    0.97   1-0.57794 0.31420-0.50396-0.70548-0.64187-0.63527
   4   9   1    3.75    0.78   1-0.25338 0.63742 0.92552 0.72087-0.28141-0.27209
  -5  11  -1    4.24    0.70   1-0.61224-0.07103 0.40346 0.97709-0.67997-0.20058
   5 -11   1    3.90    0.92   1-0.12668-0.66749 0.98191 0.40934-0.14069-0.62199
   5 -11   2    2.81    0.91   1-0.45720-0.99008 0.73015 0.11634 0.50777 0.07877
  -5  11  -2    3.79    0.83   1-0.51433 0.01901-0.63965-0.02457 0.57122 0.99951
  -5  11  -2    2.69    0.87   1-0.62821-0.09307 0.34430 0.95844-0.69770-0.26966
   5 -11   2    2.44    0.99   1-0.16796-0.70278 0.96798 0.35482-0.18654-0.61660
   5 -11   3    0.92    0.83   1-0.46186-0.98842 0.72357 0.06900 0.51295 0.13511
  -5  11  -3    1.75    0.61   1-0.55607-0.02880-0.55620 0.09946 0.61758 0.99462
  -5  11  -3    1.30    0.60   1-0.64234-0.11325 0.28011 0.93478-0.71339-0.33668
   5 -11   3    1.32    0.69   1-0.20689-0.73570 0.95099 0.29724-0.22977-0.60858
  -5  10   3   -0.02    0.74   1-0.53535-0.04421 0.59988 0.99665-0.59457 0.06865
   5 -10  -3   -0.03    0.71   1 0.01962-0.47091 0.99957 0.60405 0.02179-0.64293
  -5  10   2    0.27    0.85   1-0.55422-0.06914 0.56031 0.99760-0.61553-0.00364
   5 -10  -2   -0.59    0.69   1-0.03002-0.51456 0.99899 0.56288-0.03334-0.64682
  -5  10   1    0.41    0.79   1-0.57367-0.09465 0.51475 0.99256-0.63712-0.07656
   5 -10  -1   -0.12    0.66   1-0.07905-0.55758 0.99299 0.51629-0.08779-0.65002
   5 -10   0   -0.07    0.86   1-0.52019-0.99143 0.62898 0.11168 0.57773 0.06770
  -5  10   0    0.18    0.51   1-0.40496 0.06681-0.79606-0.27708 0.44975 0.95851
  -5  10   0   -0.02    0.60   1-0.59304-0.12009 0.46313 0.98145-0.65864-0.14942
   5 -10   0   -0.01    0.81   1-0.12684-0.59937 0.98186 0.46458-0.14087-0.65185
   5 -10   1    1.40    0.79   1-0.52538-0.99031 0.61926 0.06119 0.58350 0.12463
  -5  10  -1    2.09    0.70   1-0.47918-0.01402-0.69796-0.13844 0.53218 0.99027
  -5  10  -1    1.70    0.60   1-0.61163-0.14475 0.40553 0.96437-0.67929-0.22141
   5 -10   1    2.54    0.94   1-0.17279-0.63932 0.96608 0.40820-0.19190-0.65163
   5 -10   2    5.39    0.87   1-0.52557-0.98418 0.61891 0.02008 0.58371 0.17601
  -5  10  -2    7.05    0.84   1-0.53169-0.07260-0.60712-0.00700 0.59050 0.99733
  -5  10  -2    7.60    1.04   1-0.62870-0.16789 0.34230 0.94165-0.69825-0.29170
   5 -10   2    7.31    0.95   1-0.21633-0.67686 0.94629 0.34782-0.24026-0.64874
   5 -10   3    3.93    0.87   1-0.52229-0.97458 0.62508-0.01451 0.58006 0.22353
  -5  10  -3    5.22    0.69   1-0.56841-0.11539-0.52762 0.11309 0.63128 0.98686
  -5  10  -3    4.25    0.80   1-0.64352-0.18877 0.27397 0.91384-0.71471-0.35950
   5 -10   3    4.19    0.73   1-0.25697-0.71150 0.92331 0.28425-0.28539-0.64262
   5 -10   4    3.97    1.20   1-0.51638-0.96235 0.63596-0.04439 0.57349 0.26813
  -5  10  -4    5.31    0.82   1-0.59406-0.14710-0.46021 0.22109 0.65977 0.96409
  -5  10  -4    5.34    0.74   1-0.65537-0.20700 0.20170 0.88197-0.72787-0.42339
   5 -10   4    4.63    0.83   1-0.29430-0.74283 0.89807 0.21842-0.32686-0.63283
   5 -10   5    1.79    1.21   1-0.50832-0.94798 0.65030-0.07082 0.56454 0.31034
  -5  10  -5    2.76    0.70   1-0.61195-0.17107-0.40445 0.31745 0.67964 0.93271
  -5  10  -5    2.61    0.57   1-0.66384-0.22180 0.12550 0.84647-0.73726-0.48402
   5 -10   5    2.26    0.99   1-0.32807-0.77060 0.87155 0.15131-0.36436-0.61909
   5 -10   6    6.36    1.12   1-0.49841-0.93176 0.66720-0.09468 0.55354 0.35051
  -5  10  -6    7.85    0.99   1-0.62441-0.18960-0.35940 0.40309 0.69348 0.89530
  -5  10  -6    7.19    0.82   1-0.66839-0.23268 0.04697 0.80864-0.74232-0.54031
   5 -10   6    6.94    0.99   1-0.35914-0.79569 0.84374 0.08232-0.39887-0.60007
   5 -10   7   12.08    1.20   1-0.48686-0.91388 0.68599-0.11665 0.54071 0.38884
  -5  10  -7   14.66    1.15   1-0.63304-0.20429-0.32395 0.47914 0.70306 0.85362
  -5  10  -7   13.68    0.86   1-0.66877-0.23939-0.03279 0.76958-0.74274-0.59197
   5 -10   7   12.14    1.26   1-0.38544-0.81593 0.81741 0.01547-0.42808-0.57794
  -5   9   5    2.12    0.81   1-0.49229-0.06335 0.67727 0.97822-0.54675 0.19764
  -5   9   4    2.90    1.07   1-0.51039-0.08751 0.64666 0.98813-0.56684 0.12621
   5  -9  -4    4.69    0.86   1 0.04065-0.38159 0.99815 0.65791 0.04515-0.64924
  -5   9   3    7.98    1.05   1-0.53013-0.11332 0.61016 0.99214-0.58877 0.05295
   5  -9  -3    8.70    1.07   1-0.01307-0.42932 0.99980 0.61898-0.01452-0.65767
   5  -9  -2    1.83    0.68   1-0.58834-0.99653 0.47633 0.05603 0.65342 0.06148
  -5   9   2    2.45    0.64   1-0.21591 0.19365-0.94651-0.52353 0.23979 0.82970
  -5   9   2    2.70    0.95   1-0.55099-0.14025 0.56738 0.98988-0.61194-0.02155
   5  -9  -2    1.95    0.94   1-0.06668-0.47693 0.99502 0.57360-0.07406-0.66596
   5  -9  -1    5.19    0.82   1-0.59139-0.99323 0.46780 0.00660 0.65681 0.11591
  -5   9   1    8.50    0.88   1-0.33857 0.06495-0.86253-0.39901 0.37602 0.91464
  -5   9   1    8.08    0.81   1-0.57232-0.16764 0.51808 0.98110-0.63563-0.09657
   5  -9  -1    8.20    1.06   1-0.11944-0.52368 0.98394 0.52193-0.13265-0.67330
   5  -9   0    8.64    0.89   1-0.59021-0.98570 0.47113-0.03097 0.65549 0.16563
  -5   9   0   11.57    0.91   1-0.42875-0.03179-0.76773-0.26377 0.47618 0.96406
  -5   9   0   11.11    0.98   1-0.59334-0.19473 0.46225 0.96578-0.65898-0.17126
   5  -9   0   12.05    1.10   1-0.17056-0.56881 0.96696 0.46437-0.18943-0.67883
   5  -9   1    1.33    0.69   1-0.58619-0.97533 0.48221-0.06080 0.65103 0.21220
  -5   9  -1    1.54    0.50   1-0.49488-0.10398-0.67305-0.12850 0.54962 0.98624
  -5   9  -1    1.39    0.55   1-0.61323-0.22069 0.40009 0.94414-0.68107-0.24469
   5  -9   1    1.66    0.77   1-0.21930-0.61155 0.94476 0.40157-0.24356-0.68171
   5  -9   2    4.70    1.05   1-0.58001-0.96280 0.49861-0.08530 0.64417 0.25638
  -5   9  -2    5.63    0.85   1-0.54219-0.15736-0.58601-0.00085 0.60217 0.98754
  -5   9  -2    5.40    0.89   1-0.63114-0.24466 0.33212 0.91669-0.70095-0.31591
   5  -9   2    5.50    0.83   1-0.26498-0.65123 0.91824 0.33446-0.29429-0.68119
   5  -9   3    8.61    0.96   1-0.57204-0.94848 0.51877-0.10604 0.63532 0.29856
  -5   9  -3   10.48    0.99   1-0.57571-0.19695-0.50962 0.11612 0.63939 0.97351
  -5   9  -3    8.68    0.96   1-0.64627-0.26586 0.25911 0.88420-0.71776-0.38405
   5  -9   3    9.06    0.83   1-0.30704-0.68729 0.88850 0.26413-0.34100-0.67665
   5  -9   4    4.12    0.87   1-0.56120-0.93291 0.54457-0.12081 0.62328 0.33922
  -5   9  -4    5.26    0.76   1-0.59930-0.22660-0.44478 0.22156 0.66558 0.94845
  -5   9  -4    5.08    0.81   1-0.65787-0.28390 0.18263 0.84801-0.73064-0.44751
   5  -9   4    4.43    0.88   1-0.34509-0.71933 0.85675 0.19179-0.38326-0.66766
   5  -9   5    0.79    1.15   1-0.55017-0.91556 0.56917-0.13697 0.61102 0.37812
  -5   9  -5    0.71    0.64   1-0.61580-0.24918-0.39118 0.31576 0.68392 0.91553
  -5   9  -5    0.53    0.69   1-0.66560-0.29796 0.10251 0.80859-0.73922-0.50733
   5  -9   5    0.85    0.92   1-0.37996-0.74824 0.82313 0.11701-0.42199-0.65302
   5  -9   6    0.90    0.84   1-0.53775-0.89683 0.59508-0.15182 0.59723 0.41550
  -5   9  -6    0.76    0.96   1-0.62730-0.26674-0.34800 0.39954 0.69669 0.87704
  -5   9  -6    0.90    0.51   1-0.66898-0.30768 0.02076 0.76754-0.74298-0.56232
   5  -9   6    0.98    0.70   1-0.40947-0.77168 0.79089 0.04426-0.45476-0.63445
   5  -9   7    0.84    0.88   1-0.52401-0.87677 0.62186-0.16581 0.58197 0.45141
  -5   9  -7    0.33    0.71   1-0.63524-0.28075-0.31420 0.47393 0.70550 0.83460
  -5   9  -7    0.76    0.51   1-0.66786-0.31289-0.06141 0.72606-0.74174-0.61231
   5  -9   7    0.14    1.03   1-0.43481-0.79096 0.76008-0.02706-0.48291-0.61126
   5  -9   8    0.63    1.30   1-0.50898-0.85543 0.64913-0.17930 0.56528 0.48588
  -5   9  -8    1.01    0.74   1-0.64062-0.29220-0.28876 0.53997 0.71148 0.78933
  -5   9  -8    1.01    0.52   1-0.66226-0.31361-0.14293 0.68525-0.73551-0.65732
   5  -9   8    0.80    0.79   1-0.45619-0.80627 0.73156-0.09610-0.50665-0.58367
  -5   8   6    4.13    1.14   1-0.46754-0.10686 0.71538 0.96102-0.51925 0.25497
  -5   8   5    4.35    0.84   1-0.48554-0.13093 0.68807 0.97423-0.53925 0.18364
  -5   8   4    1.50    0.51   1 0.02913 0.37577-0.99905-0.67273-0.03235 0.63735
  -5   8   4    3.95    1.06   1-0.50575-0.15721 0.65475 0.98143-0.56169 0.10986
   5  -8  -4    5.37    0.79   1 0.01314-0.33482 0.99980 0.67426 0.01459-0.65822
   5  -8  -3    1.74    0.82   1-0.64811-0.98841 0.24863-0.11567 0.71980 0.09822
  -5   8   3    3.10    0.81   1-0.12464 0.21667-0.98249-0.61497 0.13842 0.75819
  -5   8   3    2.45    0.71   1-0.52767-0.18519 0.61491 0.98210-0.58604 0.03418
   5  -8  -3    2.88    0.67   1-0.04516-0.38713 0.99771 0.63158-0.05016-0.67173
   5  -8  -2   -0.01    0.79   1-0.64527-0.97922 0.26461-0.14059 0.71665 0.14610
  -5   8   2   -0.03    0.49   1-0.25633 0.07895-0.92371-0.51563 0.28469 0.85316
  -5   8   2   -0.32    0.82   1-0.55065-0.21423 0.56813 0.97584-0.61155-0.04267
   5  -8  -2    0.08    0.59   1-0.10323-0.43920 0.98802 0.58130-0.11465-0.68497
   5  -8  -1    0.16    0.55   1-0.64086-0.96846 0.28758-0.15852 0.71174 0.19223
  -5   8   1   -0.08    0.42   1-0.36199-0.03273-0.84102-0.39240 0.40203 0.91921
  -5   8   1    0.13    0.69   1-0.57387-0.24353 0.51423 0.96246-0.63735-0.11980
   5  -8  -1   -0.17    0.57   1-0.16009-0.49006 0.97095 0.52364-0.17780-0.69687
   5  -8   0    0.20    0.58   1-0.63501-0.95625 0.31524-0.17177 0.70525 0.23677
  -5   8   0   -0.11    0.42   1-0.44248-0.11977-0.75013-0.26113 0.49142 0.95784
  -5   8   0   -0.13    0.51   1-0.59643-0.27215 0.45329 0.94203-0.66241-0.19619
   5  -8   0   -0.25    0.54   1-0.21476-0.53873 0.94709 0.45918-0.23852-0.70633
   5  -8   1    0.23    0.85   1-0.62778-0.94268 0.34605-0.18186 0.69722 0.27978
  -5   8  -1    0.28    0.45   1-0.50305-0.18641-0.65938-0.12978 0.55870 0.97386
  -5   8  -1    0.31    0.50   1-0.61734-0.29913 0.38572 0.91499-0.68563-0.27076
   5  -8   1   -0.31    0.55   1-0.26629-0.58425 0.91739 0.38890-0.29574-0.71231
   5  -8   2   -0.13    0.63   1-0.61921-0.92775 0.37899-0.18983 0.68770 0.32130
  -5   8  -2    0.00    0.71   1-0.54716-0.23659-0.57560-0.00541 0.60768 0.97159
  -5   8  -2   -0.03    0.46   1-0.63566-0.32351 0.31230 0.88208-0.70597-0.34243
   5  -8   2    0.42    0.57   1-0.31388-0.62584 0.88314 0.31406-0.34860-0.71391
   5  -8   3    4.04    1.04   1-0.60931-0.91150 0.41327-0.19644 0.67671 0.36133
  -5   8  -3    4.77    0.86   1-0.57878-0.27427-0.50181 0.10898 0.64280 0.95545
  -5   8  -3    4.36    0.57   1-0.65053-0.34445 0.23410 0.84439-0.72249-0.41029
   5  -8   3    4.63    0.70   1-0.35806-0.66414 0.84477 0.23447-0.39767-0.70987
   5  -8   4   14.99    1.23   1-0.59810-0.89394 0.44835-0.20227 0.66426 0.39992
  -5   8  -4   16.41    1.14   1-0.60120-0.30276-0.43900 0.21238 0.66770 0.92910
  -5   8  -4   15.56    1.04   1-0.66123-0.36166 0.15316 0.80364-0.73437-0.47259
   5  -8   4   15.60    1.12   1-0.39620-0.69621 0.80585 0.15504-0.44002-0.70089
   5  -8   5    7.05    1.19   1-0.58561-0.87510 0.48379-0.20773 0.65038 0.43708
  -5   8  -5    7.49    0.96   1-0.61696-0.32460-0.38708 0.30490 0.68521 0.89535
  -5   8  -5    7.12    0.80   1-0.66752-0.37428 0.06916 0.76035-0.74136-0.53081
   5  -8   5    7.13    1.12   1-0.42935-0.72330 0.76698 0.07565-0.47684-0.68637
   5  -8   6    6.84    1.07   1-0.57184-0.85498 0.51927-0.21316 0.63509 0.47283
  -5   8  -6    7.63    1.19   1-0.62796-0.34166-0.34531 0.38726 0.69743 0.85632
  -5   8  -6    7.94    0.92   1-0.66904-0.38214-0.01550 0.71638-0.74305-0.58374
   5  -8   6    6.85    0.95   1-0.45765-0.74553 0.72952-0.00232-0.50827-0.66646
   5  -8   7    6.24    0.96   1-0.55560-0.83409 0.55725-0.21544 0.61706 0.50780
  -5   8  -7    5.47    0.81   1-0.63555-0.35532-0.31277 0.46040 0.70585 0.81349
  -5   8  -7    6.21    0.77   1-0.66580-0.38523-0.09956 0.67302-0.73945-0.63137
   5  -8   7    5.27    0.94   1-0.48137-0.76318 0.69458-0.07777-0.53462-0.64147
   5  -8   8    8.54    1.21   1-0.53927-0.81145 0.59200-0.22146 0.59892 0.54083
  -5   8  -8    8.18    1.08   1-0.64068-0.36651-0.28847 0.52530 0.71155 0.76793
  -5   8  -8    8.15    1.01   1-0.65796-0.38372-0.18192 0.63136-0.73074-0.67389
   5  -8   9   14.33    1.56   1-0.52170-0.78756 0.62618-0.22804 0.57941 0.57248
  -5   8  -9   13.51    1.60   1-0.64400-0.37590-0.27147 0.58289 0.71523 0.72036
  -5   8  -9   15.49    1.43   1-0.64580-0.37789-0.26172 0.59226-0.71724-0.71162
  -5   7   8   -0.08    1.14   1-0.42969-0.13121 0.76656 0.91638-0.47722 0.37818
  -5   7   7    0.84    0.78   1-0.44413-0.15173 0.74794 0.93828-0.49326 0.31080
  -5   7   6   -0.21    0.73   1-0.46160-0.17525 0.72395 0.95480-0.51266 0.24007
   5  -7  -5    1.48    0.58   1-0.66824-0.94700-0.05130-0.31871 0.74216 0.03989
  -5   7   5    2.62    0.95   1 0.10837 0.38697-0.98679-0.71562-0.12036 0.58149
  -5   7   5    2.31    0.74   1-0.48182-0.20155 0.69389 0.96526-0.53512 0.16627
   5  -7  -4    1.19    0.64   1-0.66904-0.94145-0.01608-0.32440 0.74304 0.09181
  -5   7   4    2.13    0.62   1-0.03281 0.24025-0.99879-0.68672 0.03644 0.68606
  -5   7   4    1.68    0.67   1-0.50439-0.23018 0.65710 0.96898-0.56018 0.08987
   5  -7  -4    2.01    0.61   1-0.01300-0.28669 0.99981 0.68896-0.01444-0.66568
   5  -7  -3    1.80    0.54   1-0.66892-0.93498 0.02451-0.32469 0.74292 0.14272
  -5   7   3    2.72    0.65   1-0.16373 0.10330-0.96960-0.61698 0.18184 0.78016
  -5   7   3    1.83    0.64   1-0.52867-0.26052 0.61299 0.96539-0.58715 0.01156
   5  -7  -3    2.08    0.61   1-0.07660-0.34428 0.99342 0.64198-0.08507-0.68506
   5  -7  -2   10.93    1.04   1-0.66754-0.92725 0.06878-0.32133 0.74138 0.19222
  -5   7   2   12.56    1.22   1-0.27852-0.01751-0.90925-0.51608 0.30933 0.85635
  -5   7   2   13.29    1.50   1-0.55384-0.29176 0.56116 0.95409-0.61510-0.06771
   5  -7  -2   12.34    1.13   1-0.13975-0.40143 0.97794 0.58591-0.15521-0.70395
   5  -7  -1   24.19    1.58   1-0.66466-0.91801 0.11539-0.31562 0.73818 0.24005
  -5   7   1   27.62    1.73   1-0.37353-0.11854-0.82968-0.39596 0.41485 0.91058
  -5   7   1   26.61    2.10   1-0.57889-0.32288 0.50153 0.93497-0.64292-0.14687
   5  -7  -1   27.02    1.77   1-0.20117-0.45685 0.95373 0.52111-0.22342-0.72091
   5  -7   0    5.17    0.87   1-0.66014-0.90714 0.16331-0.30860 0.73316 0.28607
  -5   7   0    4.85    0.56   1-0.44779-0.19934-0.74306-0.26902 0.49732 0.94227
  -5   7   0    4.43    0.77   1-0.60270-0.35275 0.43438 0.90834-0.66937-0.22466
   5  -7   0    4.97    0.66   1-0.25957-0.50925 0.92168 0.44847-0.28828-0.73452
   5  -7   1   10.75    1.00   1-0.65395-0.89460 0.21178-0.30104 0.72628 0.33023
  -5   7  -1   11.09    0.98   1-0.50493-0.26254-0.65617-0.14153 0.56078 0.95448
  -5   7  -1   10.37    0.94   1-0.62414-0.38027 0.36045 0.87493-0.69318-0.29981
   5  -7   1    9.51    0.90   1-0.31378-0.55746 0.88322 0.36942-0.34849-0.74347
   5  -7   2   31.79    2.09   1-0.64608-0.88038 0.26020-0.29352 0.71754 0.37252
  -5   7  -2   31.87    2.08   1-0.54724-0.31092-0.57544-0.02020 0.60777 0.95021
  -5   7  -2   29.12    1.85   1-0.64219-0.40438 0.28088 0.83587-0.71322-0.37119
   5  -7   2   31.21    1.95   1-0.36406-0.60187 0.83902 0.28403-0.40433-0.74637
   5  -7   3    1.46    0.65   1-0.63656-0.86451 0.30817-0.28645 0.70697 0.41298
  -5   7  -3    1.84    0.78   1-0.57796-0.34771-0.50391 0.09191 0.64189 0.93308
  -5   7  -3    1.50    0.50   1-0.65583-0.42433 0.19834 0.79323-0.72838-0.43671
   5  -7   3    1.48    0.60   1-0.40743-0.63918 0.79324 0.19773-0.45250-0.74320
   5  -7   4   13.57    1.47   1-0.62545-0.84705 0.35537-0.28015 0.69463 0.45168
  -5   7  -4   14.42    1.28   1-0.59995-0.37577-0.44279 0.19362 0.66631 0.90625
  -5   7  -4   13.28    1.12   1-0.66493-0.43976 0.11176 0.74736-0.73848-0.49805
   5  -7   4   12.52    1.18   1-0.44491-0.67059 0.74691 0.11089-0.49412-0.73348
   5  -7   5   16.36    1.48   1-0.61280-0.82804 0.40159-0.27484 0.68058 0.48866
  -5   7  -5   17.40    1.48   1-0.61553-0.39741-0.39215 0.28486 0.68361 0.87230
  -5   7  -5   18.60    1.45   1-0.66893-0.45009 0.02427 0.70057-0.74292-0.55372
   5  -7   5   15.13    1.59   1-0.47662-0.69623 0.70187 0.02533-0.52934-0.71736
   5  -7   6    4.01    0.84   1-0.59866-0.80756 0.44667-0.27066 0.66488 0.52400
  -5   7  -6    4.39    0.97   1-0.62644-0.41440-0.35143 0.36618 0.69574 0.83317
  -5   7  -6    4.77    0.57   1-0.66781-0.45530-0.06261 0.65438-0.74168-0.60372
   5  -7   6    3.44    0.85   1-0.50292-0.71647 0.65960-0.05745-0.55855-0.69524
   5  -7   7    0.49    1.06   1-0.58310-0.78564 0.49052-0.26772 0.64759 0.55775
  -5   7  -7   -0.07    0.65   1-0.63399-0.42801-0.31978 0.43843 0.70412 0.79029
  -5   7  -7    0.32    0.46   1-0.66179-0.45561-0.14764 0.61004-0.73500-0.64826
   5  -7   8    0.93    0.80   1-0.56500-0.76290 0.53574-0.26274 0.62749 0.59070
  -5   7  -8    0.02    0.69   1-0.63908-0.43917-0.29628 0.50253 0.70977 0.74470
  -5   7  -8    0.44    0.48   1-0.65121-0.45137-0.22983 0.56855-0.72324-0.68775
   5  -7   9    1.30    1.18   1-0.54660-0.73819 0.57679-0.26245 0.60706 0.62143
  -5   7  -9    1.42    0.74   1-0.64235-0.44851-0.28003 0.55938 0.71341 0.69708
  -5   7  -9    0.98    0.52   1-0.63649-0.44298-0.30847 0.53061-0.70690-0.72263
   5  -7  10    1.05    0.88   1-0.52686-0.71214 0.61645-0.26355 0.58514 0.65068
  -5   7 -10    1.10    1.13   1-0.64423-0.45646-0.27021 0.60979 0.71549 0.64791
  -5   7 -10    1.49    0.55   1-0.61807-0.43089-0.38311 0.49668-0.68644-0.75341
  -5   6   9    3.92    0.94   1-0.27981-0.04682-0.90836-0.81723-0.31076 0.57439
  -5   6   9    4.04    0.92   1-0.41000-0.17979 0.79028 0.88480-0.45535 0.42988
  -5   6   8    1.91    1.14   1-0.42299-0.19885 0.77484 0.90987-0.46978 0.36412
   5  -6  -7    7.80    1.17   1-0.29241-0.51079 0.89945 0.72740 0.32476-0.45822
   5  -6  -7    5.74    0.92   1-0.62471-0.84138-0.35825-0.53315 0.69381-0.08845
  -5   6   7    5.26    0.89   1-0.43945-0.22137 0.75410 0.92965-0.48806 0.29450
   5  -6  -6    2.93    0.66   1-0.63418-0.84478-0.31894-0.53444 0.70433-0.02668
  -5   6   6    3.46    1.11   1 0.17391 0.38428-0.96563-0.74993-0.19314 0.53844
  -5   6   6    3.23    0.77   1-0.45923-0.24722 0.72730 0.94337-0.51002 0.22120
   5  -6  -5   10.49    1.11   1-0.64389-0.84842-0.27203-0.52813 0.71511 0.03535
  -5   6   5   13.45    1.49   1 0.05260 0.25742-0.99690-0.74028-0.05842 0.62105
  -5   6   5   10.89    1.08   1-0.48199-0.27605 0.69362 0.95020-0.53531 0.14457
   5  -6  -5   12.06    0.95   1 0.03149-0.17390 0.99889 0.74332 0.03498-0.64592
   5  -6  -4    7.26    0.92   1-0.65200-0.85017-0.22476-0.51798 0.72412 0.09428
  -5   6   4    9.51    1.02   1-0.06889 0.12989-0.99468-0.69752 0.07651 0.70469
  -5   6   4    9.15    1.26   1-0.50719-0.30731 0.65226 0.94936-0.56329 0.06525
   5  -6  -4    9.05    0.93   1-0.03752-0.23692 0.99842 0.70226-0.04167-0.67133
   5  -6  -3   14.98    1.47   1-0.65972-0.85154-0.16707-0.50119 0.73269 0.15389
  -5   6   3   19.10    1.42   1-0.18446 0.00830-0.96125-0.62353 0.20486 0.78174
  -5   6   3   17.98    1.48   1-0.53399-0.34018 0.60261 0.94022-0.59305-0.01583
   5  -6  -3   17.90    1.49   1-0.10733-0.30073 0.98705 0.65030-0.11920-0.69761
   5  -6  -2   12.61    1.05   1-0.66535-0.85081-0.10614-0.48116 0.73894 0.21117
  -5   6   2   14.66    1.14   1-0.28800-0.10126-0.90262-0.52436 0.31986 0.84544
  -5   6   2   13.67    1.06   1-0.56131-0.37357 0.54432 0.92245-0.62340-0.09752
   5  -6  -2   14.37    1.17   1-0.17635-0.36375 0.96464 0.58730-0.19586-0.72301
   5  -6  -1    2.30    0.57   1-0.66850-0.84761-0.04336-0.45929 0.74244 0.26570
  -5   6   1    2.54    0.64   1-0.37577-0.19505-0.82742-0.40861 0.41733 0.89161
  -5   6   1    2.97    0.62   1-0.58790-0.40623 0.47753 0.89618-0.65293-0.17839
   5  -6  -1    2.75    0.62   1-0.24284-0.42423 0.93181 0.51389-0.26970-0.74561
   5  -6   0    0.02    0.47   1-0.66899-0.84175 0.02005-0.43677 0.74299 0.31729
  -5   6   0   -0.07    0.40   1-0.44592-0.27173-0.74557-0.28649 0.49524 0.91873
  -5   6   0    0.03    0.46   1-0.61241-0.43680 0.40290 0.86207-0.68015-0.25694
   5  -6   0    0.19    0.49   1-0.30510-0.48050 0.88999 0.43147-0.33885-0.76351
   5  -6   1    0.18    0.71   1-0.66681-0.83322 0.08317-0.41455 0.74057 0.36590
  -5   6  -1   -0.18    0.43   1-0.50107-0.33295-0.66274-0.16306 0.55650 0.92873
  -5   6  -1    0.14    0.44   1-0.63357-0.46402 0.32165 0.82133-0.70365-0.33178
   5  -6   1    0.00    0.51   1-0.36294-0.53248 0.84011 0.34042-0.40309-0.77496
   5  -6   2    0.06    0.52   1-0.66203-0.82209 0.14527-0.39335 0.73526 0.41162
  -5   6  -2    0.25    0.68   1-0.54264-0.38059-0.58507-0.04480 0.60267 0.92365
  -5   6  -2    0.11    0.44   1-0.65032-0.48684 0.23542 0.77562-0.72225-0.40172
   5  -6   2   -0.16    0.51   1-0.41286-0.57634 0.78694 0.24674-0.45853-0.77906
   5  -6   3   -0.16    0.56   1-0.65479-0.80850 0.20586-0.37367 0.72722 0.45462
  -5   6  -3    0.20    0.50   1-0.57328-0.41729-0.51570 0.06516 0.63670 0.90643
  -5   6  -3    0.22    0.42   1-0.66180-0.50469 0.14755 0.72755-0.73501-0.46468
   5  -6   3   -0.17    0.53   1-0.45571-0.61312 0.73222 0.15151-0.50612-0.77531
   5  -6   4    0.82    0.88   1-0.64527-0.79263 0.26461-0.35583 0.71665 0.49509
  -5   6  -4    0.57    0.54   1-0.59549-0.44556-0.45606 0.16540 0.66136 0.87983
  -5   6  -4    0.49    0.43   1-0.66804-0.51727 0.05682 0.67752-0.74194-0.52285
   5  -6   4    0.25    0.55   1-0.49156-0.64291 0.67846 0.05722-0.54594-0.76380
   5  -6   5    5.40    0.78   1-0.63364-0.77464 0.32132-0.34001 0.70373 0.53320
  -5   6  -5    5.39    0.84   1-0.61137-0.46751-0.40643 0.25562 0.67899 0.84621
  -5   6  -5    5.49    0.56   1-0.66876-0.52431-0.03323 0.62817-0.74273-0.57488
   5  -6   5    5.85    0.73   1-0.52088-0.66616 0.62769-0.03405-0.57850-0.74502
   5  -6   6   18.81    1.60   1-0.62005-0.75470 0.37591-0.32633 0.68863 0.56914
  -5   6  -6   18.69    1.53   1-0.62258-0.48479-0.36644 0.33621 0.69145 0.80742
  -5   6  -6   19.23    1.46   1-0.66420-0.52609-0.12114 0.58096-0.73767-0.62105
   5  -6   6   18.10    1.73   1-0.54438-0.68359 0.58145-0.12081-0.60460-0.71978
   5  -6   7    9.25    1.23   1-0.60464-0.73294 0.42833-0.31482 0.67152 0.60306
  -5   6  -7    8.95    1.11   1-0.63038-0.49866-0.33536 0.40789 0.70010 0.76482
  -5   6  -7    9.35    0.74   1-0.65480-0.52303-0.20578 0.53701-0.72723-0.66185
   5  -6   7    9.04    0.91   1-0.56288-0.69602 0.54070-0.20208-0.62514-0.68899
   5  -6   8    6.86    1.04   1-0.58752-0.70947 0.47858-0.30546 0.65251 0.63508
  -5   6  -8    6.89    0.97   1-0.63565-0.51000-0.31234 0.47151 0.70596 0.71942
  -5   6  -8    7.26    0.81   1-0.64109-0.51565-0.28641 0.49708-0.71201-0.69785
   5  -6   9    8.39    1.24   1-0.56769-0.68501 0.52935-0.29492 0.63048 0.66616
  -5   6  -9    7.12    1.08   1-0.63903-0.51944-0.29654 0.52791 0.70971 0.67192
  -5   6  -9    8.86    1.06   1-0.62359-0.50448-0.36258 0.46162-0.69257-0.72965
   5  -6  10    6.18    1.32   1-0.54732-0.65833 0.57526-0.28977 0.60786 0.69471
  -5   6 -10    6.19    0.98   1-0.64094-0.52742-0.28717 0.57787 0.71184 0.62279
  -5   6 -10    6.49    0.98   1-0.60280-0.49002-0.43407 0.43083-0.66948-0.75779
   5  -6  11    8.63    1.05   1-0.52546-0.63015 0.61911-0.28668 0.58359 0.72160
  -5   6 -11    8.01    0.94   1-0.64167-0.53422-0.28353 0.62211 0.71264 0.57234
  -5   6 -11    8.56    0.96   1-0.57915-0.47270-0.50085 0.40475-0.64321-0.78276
   5  -5  -9    3.63    0.88   1-0.40934-0.56608 0.79105 0.71550 0.45462-0.40938
   5  -5  -9    2.74    0.98   1-0.53989-0.69443-0.59074-0.66948 0.59961-0.26370
  -5   5   9    2.17    0.87   1-0.28599-0.12737-0.90405-0.82789-0.31762 0.54622
  -5   5   9    1.63    0.81   1-0.40514-0.24927 0.79586 0.87558-0.44995 0.41377
   5  -5  -8    2.99    0.97   1-0.32844-0.47887 0.87123 0.75492 0.36478-0.44806
   5  -5  -8    3.37    1.01   1-0.55144-0.69992-0.56641-0.68575 0.61243-0.19962
  -5   5   8    2.69    0.81   1-0.42015-0.27034 0.77828 0.89852-0.46662 0.34577
   5  -5  -7    1.39    0.64   1-0.56600-0.70841-0.53336-0.69330 0.62861-0.13219
  -5   5   7    1.56    0.87   1-0.43901-0.29527 0.75467 0.91543-0.48757 0.27348
   5  -5  -6    0.09    0.76   1-0.58267-0.71901-0.49164-0.69218 0.64712-0.06242
  -5   5   6    0.02    0.60   1 0.12957 0.26573-0.98107-0.78027-0.14391 0.56617
  -5   5   6   -0.19    0.62   1-0.46152-0.32384 0.72406 0.92533-0.51257 0.19715
   5  -5  -5    0.79    0.51   1-0.60035-0.73062-0.44158-0.68272 0.66676 0.00846
  -5   5   5    1.17    0.55   1 0.02106 0.15161-0.99950-0.75779-0.02339 0.63463
  -5   5   5    1.21    0.63   1-0.48720-0.35559 0.68545 0.92725-0.54109 0.11729
   5  -5  -5    1.17    0.52   1 0.01640-0.11471 0.99969 0.75882 0.01821-0.64111
   5  -5  -4    0.24    0.45   1-0.61785-0.74206-0.38391-0.66564 0.68619 0.07915
  -5   5   4    0.22    0.45   1-0.08769 0.03682-0.99137-0.70911 0.09739 0.70412
  -5   5   4    0.53    0.79   1-0.51527-0.38973 0.63795 0.92026-0.57227 0.03477
   5  -5  -4    0.38    0.68   1-0.05998-0.18509 0.99597 0.71451-0.06661-0.67469
   5  -5  -3   12.58    0.88   1-0.63399-0.75213-0.31976-0.64209 0.70412 0.14833
  -5   5   3   12.55    0.90   1-0.19225-0.07376-0.95783-0.63502 0.21352 0.76896
  -5   5   3   12.21    1.15   1-0.54462-0.42515 0.58095 0.90378-0.60487-0.04915
   5  -5  -3   12.17    0.91   1-0.13724-0.25636 0.97873 0.65668-0.15242-0.70925
   5  -5  -2    0.18    0.61   1-0.64777-0.75984-0.25064-0.61356 0.71942 0.21488
  -5   5   2    0.20    0.55   1-0.28757-0.17510-0.90293-0.53958 0.31938 0.82352
  -5   5   2    0.17    0.59   1-0.57383-0.46042 0.51434 0.87768-0.63731-0.13293
   5  -5  -2    0.49    0.47   1-0.21315-0.32626 0.94790 0.58526-0.23672-0.74230
   5  -5  -1    2.81    0.68   1-0.65759-0.76247-0.18484-0.58568 0.73033 0.27498
  -5   5   1    2.38    0.47   1-0.37008-0.26364-0.83312-0.42922 0.41102 0.86386
  -5   5   1    2.69    0.62   1-0.60131-0.49397 0.43867 0.84253-0.66782-0.21478
   5  -5  -1    2.39    0.70   1-0.28528-0.39239 0.90455 0.50132-0.31683-0.77116
   5  -5   0   30.32    1.94   1-0.66501-0.76353-0.11080-0.55253 0.73856 0.33425
  -5   5   0   31.88    2.25   1-0.43748-0.33755-0.75665-0.31253 0.48587 0.88790
  -5   5   0   32.72    2.41   1-0.62549-0.52421 0.35522 0.79960-0.69467-0.29297
   5  -5   0   28.49    2.04   1-0.35142-0.45253 0.85098 0.40715-0.39029-0.79337
   5  -5   1   47.49    2.81   1-0.66868-0.76085-0.03649-0.51913 0.74264 0.38936
  -5   5  -1   49.15    2.95   1-0.49165-0.39779-0.67831-0.19359 0.54604 0.89681
  -5   5  -1   46.69    3.17   1-0.64503-0.54983 0.26591 0.75080-0.71639-0.36602
   5  -5   1   49.43    3.04   1-0.41110-0.50631 0.78900 0.30410-0.45658-0.80694
   5  -5   2    9.56    1.10   1-0.66867-0.75449 0.03692-0.48662 0.74263 0.44038
  -5   5  -2    8.89    0.70   1-0.53330-0.44550-0.60396-0.07864 0.59229 0.89181
  -5   5  -2    9.41    1.10   1-0.65880-0.56976 0.17502 0.69943-0.73167-0.43146
   5  -5   2    8.29    0.77   1-0.46092-0.55006 0.72490 0.19949-0.51191-0.81094
   5  -5   3   11.00    1.01   1-0.66517-0.74463 0.10857-0.45587 0.73875 0.48753
  -5   5  -3   11.13    0.97   1-0.56453-0.48280-0.53684 0.02907 0.62697 0.87524
  -5   5  -3   11.24    1.04   1-0.66695-0.58424 0.08050 0.64561-0.74073-0.49175
   5  -5   3   10.11    0.98   1-0.50208-0.58516 0.66102 0.09509-0.55762-0.80531
   5  -5   4   48.50    2.31   1-0.65845-0.73157 0.17789-0.42746 0.73129 0.53111
  -5   5  -4   50.27    2.21   1-0.58750-0.51184-0.47862 0.12787 0.65249 0.84950
  -5   5  -4   50.18    2.22   1-0.66907-0.59269-0.01309 0.59271-0.74308-0.54534
   5  -5   4   44.48    2.19   1-0.53515-0.61216 0.60029-0.00615-0.59435-0.79070
   5  -5   5    0.88    0.87   1-0.64881-0.71558 0.24451-0.40174 0.72058 0.57144
  -5   5  -5    1.12    0.79   1-0.60415-0.53455-0.42987 0.21723 0.67097 0.81673
  -5   5  -5    1.26    0.52   1-0.66549-0.59545-0.10406 0.54245-0.73910-0.59260
   5  -5   5    1.11    0.55   1-0.56109-0.63203 0.54483-0.10213-0.62316-0.76817
   5  -5   6   18.83    1.40   1-0.63654-0.69695 0.30826-0.37889 0.70695 0.60884
  -5   5  -6   17.75    1.30   1-0.61603-0.55250-0.39039 0.29730 0.68417 0.77868
  -5   5  -6   17.74    1.16   1-0.65679-0.59308-0.19114 0.49606-0.72944-0.63417
   5  -5   6   16.64    1.32   1-0.58104-0.64591 0.49595-0.19153-0.64531-0.73899
   5  -5   7   16.99    1.49   1-0.62188-0.67594 0.36907-0.35898 0.69067 0.64360
  -5   5  -7   18.30    1.50   1-0.62436-0.56690-0.35962 0.36867 0.69342 0.73667
  -5   5  -7   19.45    1.50   1-0.64360-0.58622-0.27357 0.45434-0.71479-0.67075
   5  -5   8    2.54    1.04   1-0.60507-0.65278 0.42697-0.34199 0.67199 0.67595
  -5   5  -8    1.73    0.95   1-0.63003-0.57863-0.33681 0.43208 0.69972 0.69172
  -5   5  -8    2.04    0.67   1-0.62657-0.57552-0.35093 0.41767-0.69588-0.70307
   5  -5   9    2.01    0.78   1-0.58626-0.62762 0.48200-0.32785 0.65111 0.70611
  -5   5  -9    2.43    0.75   1-0.63367-0.58835-0.32118 0.48830 0.70376 0.64451
  -5   5  -9    2.89    0.75   1-0.60628-0.56156-0.42311 0.38619-0.67334-0.73177
   5  -5  10    0.02    0.77   1-0.56452-0.60126 0.53686-0.31319 0.62696 0.73511
  -5   5 -10   -0.04    0.72   1-0.63573-0.59647-0.31199 0.53810 0.70605 0.59554
  -5   5 -10    0.05    0.79   1-0.58322-0.54484-0.49017 0.35983-0.64774-0.75740
   5  -5  11    1.77    1.05   1-0.54203-0.57245 0.58635-0.30447 0.60198 0.76130
  -5   5 -11    1.06    0.79   1-0.63648-0.60329-0.30855 0.58213 0.70688 0.54512
  -5   5 -11    2.17    0.62   1-0.55780-0.52643-0.55233 0.33846-0.61950-0.77994
   5  -4 -10    0.04    1.14   1-0.42973-0.51852 0.76651 0.74670 0.47726-0.41660
   5  -4 -10    0.13    0.90   1-0.46331-0.54966-0.72150-0.74469 0.51455-0.37854
  -5   4  10    0.33    0.59   1-0.35671-0.26609-0.84605-0.82558-0.39617 0.49759
  -5   4  10    0.13    0.99   1-0.39181-0.30420 0.81063 0.83504-0.43515 0.45841
   5  -4  -9    9.82    1.17   1-0.36253-0.44501 0.84050 0.77993 0.40263-0.44006
   5  -4  -9    8.74    1.35   1-0.47348-0.55377-0.70659-0.77037 0.52586-0.31599
  -5   4   9    7.76    0.92   1-0.29965-0.21540-0.89411-0.83292-0.33280 0.50974
  -5   4   9    6.55    1.15   1-0.40494-0.32341 0.79608 0.86101-0.44974 0.39249
   5  -4  -8    7.39    1.10   1-0.28606-0.36223 0.90400 0.80267 0.31771-0.47382
   5  -4  -8    8.71    1.06   1-0.48786-0.56208-0.68439-0.78877 0.54183-0.24876
  -5   4   8    6.49    1.33   1-0.42244-0.34697 0.77551 0.88096-0.46916 0.32172
   5  -4  -7   10.60    1.10   1-0.50600-0.57415-0.65432-0.79930 0.56197-0.17736
  -5   4   7   10.42    1.12   1 0.19579 0.26372-0.95623-0.81090-0.21745 0.52237
  -5   4   7    9.40    1.09   1-0.44422-0.37481 0.74784 0.89381-0.49335 0.24620
   5  -4  -6   13.04    1.18   1-0.52720-0.58928-0.61580-0.80138 0.58552-0.10257
  -5   4   6   13.87    1.34   1 0.10330 0.16523-0.98800-0.80213-0.11473 0.57383
  -5   4   6   12.48    1.70   1-0.46994-0.40661 0.71185 0.89833-0.52193 0.16629
   5  -4  -5   10.89    0.97   1-0.55048-0.60649-0.56850-0.79467 0.61137-0.02546
  -5   4   5   10.38    1.07   1 0.00480 0.06107-0.99997-0.77316-0.00533 0.63125
  -5   4   5   11.30    1.02   1-0.49892-0.44165 0.66635 0.89335-0.55411 0.08277
   5  -4  -5   10.77    1.12   1 0.00572-0.05110 0.99996 0.77378 0.00636-0.63138
   5  -4  -4    9.67    0.84   1-0.57459-0.62454-0.51244-0.77921 0.63815 0.05256
  -5   4   4   10.24    0.79   1-0.09405-0.04381-0.99007-0.72271 0.10446 0.68975
  -5   4   4    9.40    0.80   1-0.53001-0.47881 0.61039 0.87791-0.58864-0.00309
   5  -4  -4   10.11    0.82   1-0.07975-0.13058 0.99287 0.72609-0.08857-0.67507
   5  -4  -3   23.40    1.56   1-0.59815-0.64203-0.44820-0.75557 0.66431 0.12999
  -5   4   3   23.82    1.64   1-0.18999-0.14577-0.95884-0.65094 0.21100 0.74499
  -5   4   3   24.32    1.74   1-0.56165-0.51651 0.54354 0.85157-0.62378-0.08957
   5  -4  -3   24.24    1.79   1-0.16619-0.21102 0.96866 0.66130-0.18457-0.71982
   5  -4  -2   11.04    0.78   1-0.61978-0.65759-0.37690-0.72486 0.68834 0.20526
  -5   4   2   11.44    0.93   1-0.27881-0.24062-0.90905-0.56060 0.30965 0.79235
  -5   4   2   12.30    0.94   1-0.59196-0.55289 0.46620 0.81476-0.65744-0.17456
   5  -4  -2   11.10    0.79   1-0.25031-0.28914 0.92739 0.57944-0.27800-0.76200
   5  -4  -1   46.28    1.92   1-0.63828-0.67002-0.30013-0.68869 0.70888 0.27706
  -5   4   1   49.22    2.02   1-0.35726-0.32510-0.84553-0.45653 0.39678 0.82818
  -5   4   1   49.83    2.26   1-0.61900-0.58599 0.37976 0.76883-0.68747-0.25593
   5  -4  -1   44.91    2.34   1-0.32870-0.36153 0.87102 0.48247-0.36506-0.79781
   5  -4   0   24.44    1.26   1-0.65171-0.67598-0.22669-0.65333 0.72379 0.34086
  -5   4   0   25.55    1.56   1-0.42274-0.39706-0.77514-0.34598 0.46950 0.85007
  -5   4   0   26.42    1.33   1-0.64108-0.61414 0.28646 0.71605-0.71200-0.33180
   5  -4   0   26.31    1.40   1-0.39977-0.42671 0.80190 0.37231-0.44399-0.82419
   5  -4   1    0.98    0.46   1-0.66209-0.68001-0.14467-0.61222 0.73532 0.40342
  -5   4  -1    1.16    0.60   1-0.47660-0.45699-0.70189-0.23214 0.52932 0.85864
  -5   4  -1    0.96    0.42   1-0.65670-0.63573 0.19182 0.66064-0.72934-0.39924
   5  -4   1    0.79    0.51   1-0.45904-0.47991 0.72757 0.25746-0.50982-0.83868
   5  -4   2    0.41    0.47   1-0.66781-0.67939-0.06256-0.57102 0.74168 0.46082
  -5   4  -2    0.41    0.62   1-0.51891-0.50537-0.63133-0.12098 0.57631 0.85437
  -5   4  -2    0.44    0.54   1-0.66624-0.65159 0.09283 0.60235-0.73993-0.46107
   5  -4   2    0.08    0.66   1-0.50738-0.52219 0.65192 0.14130-0.56351-0.84103
   5  -4   3    0.27    0.48   1-0.66901-0.67424 0.01828-0.53106 0.74302 0.51319
  -5   4  -3    0.06    0.62   1-0.55127-0.54380-0.56677-0.01582 0.61225 0.83906
  -5   4  -3    0.40    0.52   1-0.66912-0.66081-0.00471 0.54550-0.74313-0.51550
   5  -4   3    0.07    0.68   1-0.54541-0.55415 0.57930 0.02816-0.60574-0.83193
   5  -4   4    0.26    0.72   1-0.66598-0.66485 0.09689-0.49336 0.73964 0.56085
  -5   4  -4    0.06    0.68   1-0.57551-0.57410-0.51014 0.08140 0.63917 0.81472
  -5   4  -4    0.25    0.51   1-0.66585-0.66387-0.09881 0.49210-0.73950-0.56311
   5  -4   4   -0.08    0.65   1-0.57444-0.57712 0.51281-0.07884-0.63799-0.81284
   5  -4   5    0.29    0.79   1-0.65909-0.65161 0.17257-0.45858 0.73199 0.60423
  -5   4  -5    0.25    0.51   1-0.59334-0.59800-0.46225 0.16988 0.65898 0.78327
  -5   4  -5   -0.04    0.52   1-0.65718-0.66153-0.18812 0.44349-0.72987-0.60471
   5  -4   5    0.15    0.49   1-0.59609-0.59269 0.45431-0.17786-0.66202-0.78553
   5  -4   6    0.54    0.85   1-0.64874-0.63491 0.24494-0.42711 0.72050 0.64378
  -5   4  -6    1.04    0.80   1-0.60625-0.61698-0.42319 0.24954 0.67331 0.74636
  -5   4  -6    1.23    0.57   1-0.64391-0.65460-0.27191 0.40041-0.71514-0.64121
   5  -4   7    4.25    0.74   1-0.63532-0.61514 0.31382-0.39914 0.70560 0.67991
  -5   4  -7    3.87    0.68   1-0.61541-0.63221-0.39256 0.32077 0.68348 0.70527
  -5   4  -7    4.35    0.67   1-0.62683-0.64385-0.34988 0.36313-0.69617-0.67348
   5  -4   8   13.10    1.12   1-0.61916-0.59263 0.37915-0.37471 0.68765 0.71300
  -5   4  -8   12.56    1.04   1-0.62170-0.64456-0.36976 0.38417 0.69047 0.66101
  -5   4  -8   13.77    1.08   1-0.60660-0.62996-0.42206 0.33165-0.67370-0.70225
   5  -4   9    8.49    1.11   1-0.60055-0.56766 0.44098-0.35378 0.66698 0.74336
  -5   4  -9    8.68    1.27   1-0.62578-0.65471-0.35407 0.44045 0.69500 0.61428
  -5   4  -9    8.27    1.05   1-0.58378-0.61347-0.48869 0.30572-0.64836-0.72813
   5  -4  10    5.48    1.17   1-0.57970-0.54047 0.49941-0.33625 0.64383 0.77124
  -5   4 -10    5.71    1.10   1-0.62809-0.66309-0.34481 0.49031 0.69756 0.56559
  -5   4 -10    6.23    0.68   1-0.55880-0.59543-0.55007 0.28502-0.62061-0.75114
   5  -4  11    6.50    1.06   1-0.55567-0.51183 0.55709-0.31875 0.61714 0.79776
  -5   4 -11    7.00    1.27   1-0.62894-0.67000-0.34134 0.53438 0.69851 0.51528
  -5   4 -11    8.15    0.95   1-0.53198-0.57498-0.60655 0.26927-0.59083-0.77257
   5  -3 -10    0.41    0.73   1-0.39484-0.40937 0.80733 0.80250 0.43852-0.43404
   5  -3 -10    0.14    0.71   1-0.40435-0.41644-0.79676-0.80498 0.44907-0.42256
  -5   3  10    0.19    0.82   1-0.38187-0.36562-0.82115-0.81566-0.42411 0.44834
  -5   3  10    0.23    0.78   1-0.39535-0.38208 0.80678 0.81641-0.43908 0.43298
   5  -3  -9   15.58    1.22   1-0.33048-0.33869 0.86951 0.82392 0.36704-0.45435
   5  -3  -9   13.96    1.08   1-0.41542-0.42145-0.78393-0.83275 0.46137-0.35901
  -5   3   9   13.91    1.20   1-0.32306-0.31317-0.87572-0.82949-0.35879 0.46244
  -5   3   9   12.88    1.53   1-0.41106-0.40386 0.78905 0.83920-0.45653 0.36419
   5  -3  -8   12.61    1.24   1-0.25858-0.26047 0.92231 0.83595 0.28718-0.48304
   5  -3  -8   13.53    1.52   1-0.43100-0.43096-0.76492-0.85434 0.47867-0.29046
  -5   3   8   12.40    1.21   1-0.25610-0.25257-0.92385-0.83689-0.28442 0.48559
  -5   3   8   11.42    1.85   1-0.43168-0.43055 0.76405 0.85472-0.47943 0.28995
   5  -3  -7    8.58    0.94   1-0.45086-0.44475-0.73891-0.86892 0.50073-0.21715
  -5   3   7    8.61    1.19   1 0.17490 0.16861-0.96523-0.83482-0.19425 0.52406
  -5   3   7    8.12    1.16   1-0.45704-0.46197 0.73038 0.86156-0.50759 0.21045
   5  -3  -6    4.62    0.78   1-0.47454-0.46236-0.70501-0.87563 0.52703-0.13959
  -5   3   6    4.48    0.64   1 0.08907 0.07710-0.99109-0.81974-0.09893 0.56751
  -5   3   6    4.46    0.70   1-0.48655-0.49755 0.68648 0.85818-0.54037 0.12634
   5  -3  -5    5.04    0.72   1-0.50126-0.48302-0.66242-0.87364 0.55670-0.05866
  -5   3   5    5.46    0.87   1-0.00011-0.01812-1.00000-0.78810 0.00013 0.61527
  -5   3   5    5.57    0.92   1-0.51909-0.53615 0.63100 0.84322-0.57651 0.03886
   5  -3  -5    5.03    0.87   1 0.00129 0.01874 0.99999 0.78850 0.00143-0.61473
   5  -3  -4    0.08    0.41   1-0.52990-0.50559-0.61061-0.86242 0.58851 0.02439
  -5   3   4   -0.07    0.40   1-0.09073-0.11476-0.99076-0.73831 0.10077 0.66461
  -5   3   4    0.26    0.66   1-0.55295-0.57607 0.56312 0.81585-0.61411-0.05006
   5  -3  -4   -0.05    0.40   1-0.09581-0.07236 0.98969 0.73761-0.10641-0.67133
   5  -3  -3    1.78    0.45   1-0.55904-0.52866-0.54952-0.84192 0.62088 0.10801
  -5   3   3    1.62    0.58   1-0.17943-0.20948-0.96337-0.67038 0.19928 0.71183
  -5   3   3    1.82    0.50   1-0.58588-0.61508 0.48304 0.77629-0.65069-0.13798
   5  -3  -3    1.63    0.44   1-0.19392-0.16447 0.95708 0.66441-0.21537-0.72904
   5  -3  -2    0.57    0.41   1-0.58711-0.55067-0.47970-0.81270 0.65205 0.19044
  -5   3   2    0.65    0.40   1-0.26277-0.29885-0.91966-0.58612 0.29183 0.75309
  -5   3   2    0.48    0.42   1-0.61549-0.65076 0.39227 0.72603-0.68358-0.22221
   5  -3  -2    0.57    0.57   1-0.28805-0.25260 0.90259 0.56933-0.31991-0.78233
   5  -3  -1   38.53    1.44   1-0.61256-0.57005-0.40238-0.77598 0.68032 0.26996
  -5   3   1   37.98    1.79   1-0.33780-0.37991-0.86321-0.48912 0.37517 0.78512
  -5   3   1   40.22    1.64   1-0.63964-0.68097 0.29359 0.66787-0.71039-0.30036
   5  -3  -1   40.22    1.76   1-0.37468-0.33335 0.82852 0.45423-0.41612-0.82616
   5  -3   0    4.34    0.55   1-0.63409-0.58552-0.31932-0.73351 0.70423 0.34513
  -5   3   0    4.04    0.52   1-0.40260-0.45073-0.79873-0.38409 0.44713 0.80579
  -5   3   0    4.34    0.52   1-0.65639-0.70348 0.19416 0.60739-0.72900-0.36901
   5  -3   0    4.59    0.59   1-0.44732-0.39993 0.74369 0.32889-0.49680-0.85550
   5  -3   1    3.07    0.53   1-0.65078-0.59613-0.23256-0.68736 0.72276 0.41491
  -5   3  -1    2.65    0.48   1-0.45571-0.51036-0.73222-0.27743 0.50612 0.81397
  -5   3  -1    2.58    0.55   1-0.66642-0.71984 0.08987 0.54380-0.74013-0.43138
   5  -3   1    2.53    0.67   1-0.50593-0.45247 0.65444 0.19912-0.56190-0.86926
   5  -3   2   59.65    1.94   1-0.66141-0.59874-0.15146-0.64481 0.73457 0.47509
  -5   3  -2   57.36    1.98   1-0.49906-0.55977-0.66612-0.17073 0.55426 0.81086
  -5   3  -2   58.40    2.00   1-0.66908-0.72883-0.01192 0.48270-0.74309-0.48557
   5  -3   2   58.86    2.45   1-0.55098-0.49145 0.56740 0.07157-0.61193-0.86795
   5  -3   3   42.93    1.83   1-0.66778-0.59876-0.06337-0.59763 0.74165 0.53320
  -5   3  -3   40.74    1.80   1-0.53295-0.59973-0.60465-0.06867 0.59190 0.79724
  -5   3  -3   41.66    1.63   1-0.66514-0.73123-0.10894 0.42638-0.73872-0.53244
   5  -3   3   42.79    1.97   1-0.58426-0.51866 0.48742-0.04893-0.64888-0.85357
   5  -3   4   15.42    1.19   1-0.66895-0.59358 0.02307-0.55209 0.74294 0.58553
  -5   3  -4   14.90    1.13   1-0.55884-0.63169-0.54996 0.02662 0.62066 0.77475
  -5   3  -4   14.91    1.02   1-0.65562-0.72804-0.19987 0.37615-0.72815-0.57310
   5  -3   4   14.94    1.21   1-0.60809-0.53643 0.41725-0.15961-0.67536-0.82870
   5  -3   5    6.97    0.73   1-0.66530-0.58358 0.10680-0.50926 0.73889 0.63252
  -5   3  -5    7.12    0.85   1-0.57826-0.65717-0.50315 0.11402 0.64222 0.74506
  -5   3  -5    6.80    0.54   1-0.64155-0.72030-0.28411 0.33261-0.71252-0.60870
   5  -3   5    7.19    0.74   1-0.62478-0.54705 0.35800-0.25937-0.69388-0.79589
   5  -3   6   42.76    2.15   1-0.65731-0.56924 0.18710-0.46986 0.73001 0.67468
  -5   3  -6   42.71    1.98   1-0.59254-0.67752-0.46456 0.19321 0.65808 0.70966
  -5   3  -6   42.52    1.84   1-0.62383-0.70892-0.36164 0.29577-0.69284-0.64026
   5  -3   6   41.42    1.98   1-0.63624-0.55245 0.30963-0.34827-0.70662-0.75729
   5  -3   7    1.21    0.89   1-0.64546-0.55104 0.26358-0.43428 0.71686 0.71256
  -5   3  -7    0.63    0.82   1-0.60281-0.69387-0.43403 0.26434 0.66949 0.66982
  -5   3  -7    1.12    0.62   1-0.60323-0.69464-0.43275 0.26537-0.66995-0.66860
   5  -3   8   14.53    1.35   1-0.63021-0.52944 0.33604-0.40273 0.69992 0.74665
  -5   3  -8   14.16    1.25   1-0.60997-0.70709-0.41110 0.32786 0.67744 0.62651
  -5   3  -8   14.14    1.08   1-0.58030-0.67805-0.49786 0.24096-0.64449-0.69438
   5  -3   9   13.26    1.39   1-0.61195-0.50482 0.40447-0.37521 0.67964 0.77740
  -5   3  -9   13.28    1.35   1-0.61466-0.71784-0.39519 0.38437 0.68265 0.58047
  -5   3  -9   14.08    1.29   1-0.55551-0.66016-0.55745 0.22194-0.61696-0.71758
   5  -3   9   12.17    1.31   1-0.65240-0.54832 0.22217-0.55736-0.72457-0.62344
   5  -3  10    0.96    0.77   1-0.59100-0.47752 0.46892-0.35166 0.65637 0.80517
  -5   3 -10    0.68    0.71   1-0.61736-0.72661-0.38568 0.43448 0.68564 0.53221
  -5   3 -10    0.89    0.57   1-0.52915-0.64016-0.61206 0.20807-0.58768-0.73952
   5  -3  10    0.93    0.71   1-0.65441-0.54399 0.20860-0.61162-0.72679-0.57443
   5  -3  11    4.06    0.90   1-0.56655-0.44843 0.53207-0.32879 0.62921 0.83113
  -5   3 -11    3.83    0.82   1-0.61839-0.73371-0.38198 0.47878 0.68679 0.48210
  -5   3 -11    4.91    0.80   1-0.50145-0.61882-0.66210 0.19875-0.55691-0.75997
   5  -3  11    2.94    0.82   1-0.65541-0.53866 0.20144-0.65948-0.72791-0.52432
   5  -2 -11    2.77    1.11   1-0.42551-0.37208 0.77175 0.82266 0.47257-0.42984
   5  -2 -11    2.14    0.76   1-0.34947-0.29335-0.85277-0.80647 0.38813-0.51335
  -5   2  11    1.41    0.91   1-0.46879-0.52055-0.71354-0.76375-0.52065 0.38171
   5  -2 -10    0.56    0.67   1-0.37069-0.31095 0.83252 0.84267 0.41169-0.43956
   5  -2 -10    1.02    0.67   1-0.35622-0.29407-0.84651-0.84076 0.39562-0.45456
  -5   2  10    0.85    0.58   1-0.41857-0.47669-0.78018-0.78965-0.46487 0.38627
   5  -2  -9    0.54    0.60   1-0.30962-0.24356 0.88650 0.85588 0.34387-0.45622
   5  -2  -9    0.04    0.59   1-0.36750-0.29933-0.83567-0.87047 0.40815-0.39073
  -5   2   9    0.15    0.52   1-0.35943-0.42391-0.84347-0.81221-0.39918 0.40074
  -5   2   9    0.27    0.94   1-0.42599-0.49312 0.77116 0.80652-0.47311 0.32611
   5  -2  -8    0.23    0.54   1-0.24230-0.16992 0.93213 0.86075 0.26910-0.47982
   5  -2  -8    0.08    0.77   1-0.38341-0.30921-0.81955-0.89490 0.42582-0.32177
  -5   2   8   -0.06    0.69   1-0.28987-0.36072-0.90129-0.82929-0.32193 0.42678
  -5   2   8   -0.22    0.62   1-0.45063-0.52382 0.73922 0.81510-0.50047 0.24741
   5  -2  -7   12.68    1.06   1-0.40390-0.32368-0.79726-0.91316 0.44858-0.24771
  -5   2   7   12.80    1.27   1 0.16471 0.08419-0.96922-0.85373-0.18293 0.51386
  -5   2   7   11.83    1.54   1-0.48036-0.55962 0.69615 0.81254-0.53349 0.16305
   5  -2  -6   13.83    1.05   1-0.42794-0.34151-0.76874-0.92439 0.47528-0.16988
  -5   2   6   13.61    1.03   1 0.08573-0.00050-0.99175-0.83531-0.09522 0.54977
  -5   2   6   12.76    1.45   1-0.51411-0.59944 0.64006 0.79696-0.57097 0.07423
   5  -2  -5   15.54    0.99   1-0.45655-0.36405-0.73106-0.92731 0.50705-0.08686
  -5   2   5   15.69    1.23   1 0.00387-0.08840-0.99998-0.80299-0.00430 0.58939
  -5   2   5   14.63    1.41   1-0.54995-0.64135 0.56963 0.76705-0.61079-0.01691
   5  -2  -5   16.17    1.51   1 0.00624 0.09798 0.99995 0.80315 0.00694-0.58765
   5  -2  -4   29.32    1.89   1-0.48798-0.38942-0.68421-0.92106 0.54196-0.00069
  -5   2   4   28.40    1.91   1-0.07950-0.17781-0.99291-0.75537 0.08830 0.63070
  -5   2   4   28.75    2.05   1-0.58522-0.68269 0.48482 0.72276-0.64996-0.10742
   5  -2  -4   25.97    2.15   1-0.10639-0.00865 0.98727 0.74989-0.11816-0.66150
   5  -2  -3   14.26    0.91   1-0.52095-0.41631-0.62758-0.90503 0.57857 0.08716
  -5   2   3   14.67    0.97   1-0.16180-0.26613-0.97032-0.69223 0.17970 0.67080
  -5   2   3   14.16    1.06   1-0.61686-0.72039 0.38744 0.66590-0.68509-0.19389
   5  -2  -3   13.03    1.01   1-0.22003-0.11629 0.94438 0.66641-0.24437-0.73645
   5  -2  -2   20.26    1.06   1-0.55383-0.44313-0.56117-0.87921 0.61509 0.17494
  -5   2   2   19.45    1.22   1-0.24019-0.35054-0.93335-0.61471 0.26675 0.70657
  -5   2   2   20.49    1.19   1-0.64212-0.75172 0.28120 0.60018-0.71315-0.27328
   5  -2  -2   19.47    1.34   1-0.32667-0.21693 0.87273 0.55416-0.36280-0.80364
   5  -2  -1   31.25    1.27   1-0.58491-0.46814-0.48567-0.84431 0.64961 0.26071
  -5   2   1   31.45    1.34   1-0.31207-0.42845-0.88457-0.52539 0.34659 0.73510
  -5   2   1   30.86    1.63   1-0.65873-0.77389 0.17556 0.53320-0.73160-0.34173
   5  -2  -1   31.17    1.51   1-0.42055-0.30489 0.77780 0.41830-0.46707-0.85560
   5  -2   0   10.87    0.72   1-0.61253-0.48969-0.40250-0.80174 0.68028 0.34264
  -5   2   0   10.01    0.92   1-0.37552-0.49793-0.82767-0.42794 0.41706 0.75427
  -5   2   0   10.89    0.74   1-0.66770-0.78920 0.06514 0.46347-0.74156-0.40292
   5  -2   0    9.96    0.86   1-0.49475-0.37302 0.67327 0.27326-0.54947-0.88666
   5  -2   1   79.80    2.20   1-0.63536-0.50646-0.31363-0.75347 0.70564 0.41925
  -5   2  -1   77.43    2.47   1-0.42874-0.55764-0.76775-0.32791 0.47617 0.76256
  -5   2  -1   75.26    2.16   1-0.66857-0.79639-0.04077 0.39826-0.74252-0.45512
   5  -2   1   79.25    3.05   1-0.55045-0.42265 0.56855 0.12802-0.61134-0.89719
   5  -2   2   28.39    1.22   1-0.65140-0.51449-0.22863-0.70690 0.72346 0.48536
  -5   2  -2   28.14    1.46   1-0.47326-0.60823-0.70692-0.22649 0.52561 0.76075
  -5   2  -2   27.38    1.08   1-0.66256-0.79671-0.13979 0.33994-0.73584-0.49968
   5  -2   2   28.23    1.26   1-0.59004-0.45618 0.47159-0.00944-0.65531-0.88983
   5  -2   3    0.50    0.46   1-0.66298-0.51972-0.13519-0.65436 0.73632 0.54926
  -5   2  -3    0.51    0.60   1-0.50890-0.64994-0.64928-0.12825 0.56519 0.74908
  -5   2  -3    0.46    0.34   1-0.65105-0.79154-0.23084 0.28959-0.72307-0.53813
   5  -2   3    0.18    0.42   1-0.61703-0.47710 0.38686-0.13470-0.68528-0.86846
   5  -2   4    0.57    0.48   1-0.66852-0.51891-0.04236-0.60244 0.74247 0.60645
  -5   2  -4    0.63    0.45   1-0.53675-0.68385-0.59710-0.03548 0.59612 0.72875
  -5   2  -4    0.50    0.36   1-0.63532-0.78214-0.31381 0.24732-0.70560-0.57190
   5  -2   4    0.43    0.43   1-0.63485-0.48885 0.31595-0.24612-0.70507-0.83692
   5  -2   5    0.46    0.51   1-0.66834-0.51238 0.04831-0.55265 0.74227 0.65728
  -5   2  -5    0.40    0.49   1-0.55804-0.71122-0.55177 0.05044 0.61977 0.70115
  -5   2  -5    0.46    0.37   1-0.61639-0.76955-0.38910 0.21272-0.68457-0.60211
   5  -2   5    0.51    0.63   1-0.64635-0.49429 0.25866-0.34393-0.71785-0.79836
   5  -2   6    0.36    0.55   1-0.66293-0.50062 0.13577-0.50610 0.73626 0.70230
  -5   2  -6    0.11    0.65   1-0.57401-0.73325-0.51390 0.12891 0.63750 0.66762
  -5   2  -6    0.29    0.41   1-0.59503-0.75451-0.45739 0.18514-0.66085-0.62962
   5  -2   6    0.27    0.48   1-0.65349-0.49401 0.21489-0.42764-0.72578-0.75701
   5  -2   7    1.00    0.60   1-0.65284-0.48417 0.21930-0.46347 0.72505 0.74213
  -5   2  -7    0.14    0.57   1-0.58568-0.75099-0.48358 0.19983 0.65047 0.62934
  -5   2  -7    0.16    0.45   1-0.57179-0.73761-0.51939 0.16384-0.63504-0.65504
   5  -2   7    0.31    0.70   1-0.65808-0.49227 0.18092-0.50231-0.73088-0.71087
   5  -2   8    0.31    0.65   1-0.63861-0.46360 0.29852-0.42515 0.70925 0.77737
  -5   2  -8    0.62    0.62   1-0.59394-0.76532-0.46054 0.26346 0.65964 0.58725
  -5   2  -8    0.72    0.70   1-0.54708-0.71973-0.57578 0.14791-0.60759-0.67831
   5  -2   8    0.05    0.69   1-0.66087-0.48873 0.15656-0.56737-0.73398-0.66274
   5  -2   9    2.35    0.76   1-0.62076-0.43939 0.37327-0.39131 0.68943 0.80858
  -5   2  -9    2.67    0.71   1-0.59944-0.77688-0.44435 0.32025 0.66574 0.54210
  -5   2  -9    2.28    0.58   1-0.52112-0.70014-0.62725 0.13718-0.57877-0.70070
   5  -2   9    2.28    0.68   1-0.66249-0.48401 0.14047-0.62416-0.73577-0.61330
   5  -2  10    7.27    1.15   1-0.59970-0.41198 0.44355-0.36193 0.66604 0.83622
  -5   2 -10    6.77    1.12   1-0.60267-0.78618-0.43448 0.37072 0.66933 0.49444
  -5   2 -10    6.87    0.74   1-0.49411-0.67949-0.67431 0.13085-0.54877-0.72191
   5  -2  10    5.13    0.80   1-0.66332-0.47850 0.13148-0.67385-0.73669-0.56298
   5  -2  11    4.71    1.25   1-0.57577-0.38170 0.50947-0.33692 0.63946 0.86068
  -5   2 -11    4.17    1.12   1-0.60398-0.79356-0.43040 0.41539 0.67078 0.44464
  -5   2 -11    4.55    1.02   1-0.46615-0.65788-0.71740 0.12848-0.51771-0.74207
   5  -2  11    4.09    0.81   1-0.66356-0.47242 0.12865-0.71738-0.73696-0.51203
   5  -1 -11   20.54    1.16   1-0.40746-0.27977 0.79320 0.85909 0.45253-0.42858
   5  -1 -11   18.96    1.26   1-0.30996-0.17957-0.88623-0.82503 0.34425-0.53579
  -5   1  11   20.34    1.21   1-0.51586-0.64198-0.63690-0.70207-0.57292 0.30813
  -5   1  11   14.85    1.82   1-0.41269-0.54202 0.78715 0.72668-0.45834 0.42206
   5  -1 -10   21.33    2.23   1-0.35519-0.22118 0.84748 0.87260 0.39447-0.43547
   5  -1 -10   20.26    2.18   1-0.31673-0.18031-0.88087-0.86022 0.35177-0.47697
  -5   1  10   20.48    2.30   1-0.46986-0.60235-0.71197-0.73641-0.52184 0.30800
  -5   1  10   19.06    2.99   1-0.43006-0.56546 0.76610 0.74615-0.47763 0.35143
   5  -1  -9    1.76    0.62   1-0.29765-0.15732 0.89561 0.87997 0.33057-0.44821
   5  -1  -9    1.91    0.86   1-0.32796-0.18552-0.87164-0.89153 0.36424-0.41320
  -5   1   9    1.37    0.55   1-0.41340-0.55225-0.78631-0.77002-0.45913 0.31949
  -5   1   9    1.58    0.69   1-0.45378-0.59525 0.73490 0.75547-0.50397 0.27374
   5  -1  -8    1.69    0.70   1-0.34384-0.19537-0.85787-0.91831 0.38187-0.34427
  -5   1   8    1.84    0.61   1-0.34378-0.48899-0.85792-0.80089-0.38180 0.34560
  -5   1   8    1.67    0.61   1-0.48359-0.63112 0.69113 0.75222-0.53708 0.18930
   5  -1  -7   30.15    1.90   1-0.36443-0.20993-0.83867-0.93966 0.40474-0.27011
  -5   1   7   30.25    2.27   1 0.16301 0.00827-0.96987-0.86928-0.18104 0.49423
  -5   1   7   25.94    1.84   1-0.25807-0.40965-0.92263-0.82487-0.28661 0.38958
  -5   1   7   26.33    2.67   1-0.51842-0.67202 0.63224 0.73384-0.57576 0.09928
   5  -1  -6   16.83    1.23   1-0.38963-0.22911-0.81297-0.95451 0.43273-0.19082
  -5   1   6   16.39    1.15   1 0.09034-0.07017-0.99084-0.84930-0.10033 0.52321
  -5   1   6   15.89    1.32   1-0.55606-0.71573 0.55622 0.69834-0.61757 0.00613
   5  -1  -5   19.18    1.35   1-0.41828-0.25153-0.78052-0.96181 0.46455-0.10789
  -5   1   5   19.40    1.44   1 0.01514-0.15140-0.99974-0.81765-0.01681 0.55544
  -5   1   5   18.83    1.49   1-0.59314-0.75887 0.46284 0.64548-0.65875-0.08637
   5  -1  -5   19.74    1.76   1 0.02673 0.19275 0.99920 0.81709 0.02968-0.54332
   5  -1  -4    5.54    0.58   1-0.45127-0.27844-0.73835-0.96024 0.50118-0.02001
  -5   1   4    5.31    0.71   1-0.06165-0.23423-0.99574-0.77311 0.06847 0.58943
  -5   1   4    5.53    0.69   1-0.62562-0.79742 0.35469 0.57785-0.69482-0.17378
   5  -1  -4    5.16    0.81   1-0.10813 0.06389 0.98685 0.76416-0.12009-0.64185
   5  -1  -3   10.01    0.72   1-0.48662-0.30773-0.68637-0.94885 0.54045 0.07050
  -5   1   3   10.07    0.75   1-0.13802-0.31662-0.97849-0.71531 0.15329 0.62295
  -5   1   3   10.10    0.89   1-0.65001-0.82787 0.23733 0.50101-0.72191-0.25220
   5  -1  -3   10.03    0.75   1-0.24379-0.06576 0.93126 0.66798-0.27075-0.74126
   5  -1  -2    0.27    0.39   1-0.52284-0.33788-0.62406-0.92714 0.58067 0.16198
  -5   1   2    0.37    0.40   1-0.21169-0.39631-0.94863-0.64490 0.23510 0.65347
  -5   1   2    0.17    0.32   1-0.66398-0.84720 0.12377 0.42581-0.73743-0.31767
   5  -1  -2    0.25    0.35   1-0.36809-0.18416 0.83508 0.53089-0.40881-0.82718
   5  -1  -1    4.03    0.52   1-0.55813-0.36710-0.55159-0.89527 0.61986 0.25242
  -5   1   1    3.22    0.65   1-0.28041-0.47107-0.90795-0.56367 0.31143 0.67850
  -5   1   1    3.64    0.58   1-0.66911-0.85867 0.00705 0.34979-0.74312-0.37460
   5  -1  -1    3.45    0.63   1-0.46758-0.27758 0.71531 0.37061-0.51930-0.88633
   5  -1   0    2.44    0.47   1-0.59064-0.39355-0.46992-0.85419 0.65597 0.33979
  -5   1   0    2.62    0.63   1-0.34235-0.53903-0.85919-0.47437 0.38022 0.69599
  -5   1   0    2.76    0.50   1-0.66568-0.86157-0.10134 0.28209-0.73931-0.42202
   5  -1   0    2.64    0.49   1-0.54082-0.34476 0.58883 0.20360-0.60065-0.91634
   5  -1   1   63.37    1.87   1-0.61873-0.41557-0.38073-0.80561 0.68717 0.42224
  -5   1  -1   63.63    2.12   1-0.39631-0.59902-0.80572-0.38035 0.44015 0.70462
  -5   1  -1   60.59    1.86   1-0.65567-0.85789-0.19955 0.22459-0.72819-0.46214
   5  -1   1   63.30    2.05   1-0.59068-0.38855 0.46982 0.04408-0.65601-0.92037
   5  -1   2   15.81    0.84   1-0.64113-0.43190-0.28625-0.75172 0.71204 0.49837
  -5   1  -2   16.53    0.90   1-0.44109-0.65032-0.75195-0.28648 0.48988 0.70356
  -5   1  -2   16.56    0.78   1-0.64089-0.84944-0.28744 0.17740-0.71178-0.49696
   5  -1   2   16.68    0.93   1-0.62265-0.41446 0.36617-0.10008-0.69153-0.90454
   5  -1   3    1.82    0.49   1-0.65609-0.43859-0.19639-0.70047 0.72867 0.56299
  -5   1  -3    1.61    0.64   1-0.47849-0.69379-0.69902-0.19295 0.53142 0.69384
  -5   1  -3    1.95    0.41   1-0.62275-0.83763-0.36581 0.13973-0.69163-0.52804
   5  -1   3    1.41    0.44   1-0.64226-0.42800 0.28049-0.22628-0.71331-0.87499
   5  -1   4   70.85    4.11   1-0.66587-0.44202-0.09855-0.64353 0.73952 0.62489
  -5   1  -4   71.26    4.24   1-0.50840-0.72977-0.65015-0.10348 0.56464 0.67581
  -5   1  -4   73.71    4.18   1-0.60224-0.82346-0.43579 0.11044-0.66886-0.55651
   5  -1   4   65.53    3.92   1-0.65361-0.43239 0.21407-0.33216-0.72591-0.83827
   5  -1   5   19.20    1.24   1-0.66912-0.43892-0.00196-0.58785 0.74314 0.67954
  -5   1  -5   18.32    1.11   1-0.53179-0.75922-0.60693-0.01967 0.59061 0.65053
  -5   1  -5   18.55    1.15   1-0.58004-0.80759-0.49855 0.08838-0.64420-0.58308
   5  -1   5   17.94    1.38   1-0.66038-0.43283 0.16111-0.42583-0.73343-0.79455
   5  -1   6   18.57    1.29   1-0.66630-0.42974 0.09185-0.53493 0.74000 0.72743
  -5   1  -6   18.05    1.28   1-0.54967-0.78317-0.57025 0.05760 0.61047 0.61913
  -5   1  -6   17.44    1.02   1-0.55656-0.79086-0.55510 0.07216-0.61813-0.60772
   5  -1   6   18.15    1.20   1-0.66416-0.43028 0.12160-0.50604-0.73763-0.74751
   5  -1   7    2.86    0.89   1-0.65797-0.41506 0.18186-0.48582 0.73075 0.76921
  -5   1  -7    3.37    0.66   1-0.56299-0.80255-0.54044 0.12801 0.62526 0.58267
  -5   1  -7    3.45    0.57   1-0.53207-0.77272-0.60638 0.06162-0.59092-0.63173
   5  -1   7    3.33    0.78   1-0.66620-0.42598 0.09339-0.57494-0.73989-0.69854
   5  -1   8   25.11    1.69   1-0.64475-0.39550 0.26743-0.44115 0.71607 0.80557
  -5   1  -8   24.81    1.50   1-0.57257-0.81820-0.51747 0.19158 0.63590 0.54206
  -5   1  -8   24.84    1.50   1-0.50673-0.75374-0.65307 0.05566-0.56278-0.65480
   5  -1   8   22.23    1.65   1-0.66726-0.42071 0.07464-0.63439-0.74107-0.64848
   5  -1   9    1.23    1.01   1-0.62725-0.37164 0.34821-0.40127 0.69663 0.83717
  -5   1  -9    0.61    0.93   1-0.57906-0.83077-0.50107 0.24858 0.64312 0.49802
  -5   1  -9    0.78    0.72   1-0.48062-0.73400-0.69575 0.05370-0.53378-0.67702
   5  -1   9    0.71    0.62   1-0.66776-0.41488 0.06382-0.68592-0.74163-0.59781
   5  -1  10    8.44    1.35   1-0.60597-0.34401 0.42410-0.36629 0.67300 0.86457
  -5   1 -10    6.95    1.19   1-0.58297-0.84074-0.49084 0.29940 0.64746 0.45110
  -5   1 -10    7.24    0.93   1-0.45379-0.71353-0.73489 0.05530-0.50398-0.69843
   5  -1  10    6.90    0.94   1-0.66793-0.40872 0.05970-0.73074-0.74181-0.54676
   5  -1  11    7.12    1.24   1-0.58134-0.31303 0.49514-0.33616 0.64565 0.88826
  -5   1 -11    6.79    1.02   1-0.58465-0.84849-0.48635 0.34448 0.64933 0.40172
  -5   1 -11    6.90    1.02   1-0.42624-0.69234-0.77085 0.06007-0.47339-0.71905
   5  -1  11    6.97    0.85   1-0.66787-0.40232 0.06130-0.76983-0.74174-0.49546
   5   0 -11    1.48    0.73   1-0.39629-0.19432 0.80575 0.88661 0.44012-0.41969
   5   0 -11    1.74    0.98   1-0.27910-0.07443-0.90885-0.83274 0.30997-0.54862
   5   0 -10    0.89    0.65   1-0.34684-0.13857 0.85516 0.89526 0.38521-0.42343
   5   0 -10    1.40    0.90   1-0.28587-0.07518-0.90414-0.86858 0.31749-0.48980
  -5   0  10    0.74    0.53   1-0.53884-0.74569-0.59288-0.63229-0.59844 0.21009
   5   0  -9    0.25    0.73   1-0.29295-0.07835 0.89906 0.89840 0.32535-0.43212
   5   0  -9    0.74    0.60   1-0.29700-0.08028-0.89609-0.90108 0.32985-0.42614
  -5   0   9    0.41    0.48   1-0.49150-0.70472-0.67856-0.67724-0.54586 0.21145
  -5   0   9    0.48    0.61   1-0.50164-0.71745 0.66177 0.66755-0.55713 0.19908
   5   0  -8    0.34    0.54   1-0.31272-0.08997-0.88407-0.92960 0.34731-0.35739
  -5   0   8   -0.02    0.59   1-0.42857-0.64815-0.76796-0.72590-0.47598 0.23012
  -5   0   8    0.06    0.49   1-0.53774-0.75961 0.59510 0.64140-0.59722 0.10765
   5   0  -7    0.90    0.71   1-0.33317-0.10440-0.86722-0.95330 0.37002-0.28338
  -5   0   7    0.49    0.78   1 0.16823-0.06073-0.96787-0.88220-0.18684 0.46693
  -5   0   7    0.52    0.48   1-0.34377-0.56972-0.85792-0.77513-0.38180 0.27308
  -5   0   7    0.73    0.59   1-0.57696-0.80490 0.50645 0.59326-0.64078 0.01275
   5   0  -6    0.71    0.48   1-0.35837-0.12357-0.84448-0.97111 0.39801-0.20410
  -5   0   6    1.08    0.52   1 0.10212-0.13284-0.98828-0.86205-0.11341 0.48909
  -5   0   6    0.80    0.40   1-0.61450-0.84851 0.39572 0.52305-0.68248-0.08027
   5   0  -5   10.01    0.96   1-0.38807-0.14725-0.81463-0.98181 0.43100-0.11981
  -5   0   5    8.79    0.73   1 0.03247-0.20834-0.99882-0.83164-0.03606 0.51474
  -5   0   5    9.39    0.96   1-0.64463-0.88470 0.26811 0.43595-0.71593-0.16506
   5   0  -4   20.48    1.13   1-0.42096-0.17387-0.77731-0.98424 0.46752-0.03221
  -5   0   4   19.19    1.13   1-0.03815-0.28500-0.99837-0.79064 0.04237 0.54189
  -5   0   4   19.46    1.25   1-0.66219-0.90715 0.14360 0.34935-0.73544-0.23456
   5   0  -4   16.73    1.54   1-0.09348 0.15282 0.99019 0.78218-0.10382-0.60400
   5   0  -3   17.91    0.95   1-0.45766-0.20451-0.72950-0.97703 0.50828 0.05980
  -5   0   3   17.76    1.33   1-0.10886-0.36174-0.98667-0.73839 0.12090 0.56913
  -5   0   3   17.93    1.45   1-0.66908-0.92037 0.01200 0.25845-0.74309-0.29344
   5   0  -3   18.49    1.10   1-0.26378-0.01147 0.91901 0.67042-0.29295-0.74188
   5   0  -2   34.64    1.27   1-0.49600-0.23678-0.67121-0.95933 0.55086 0.15363
  -5   0   2   33.88    1.66   1-0.17783-0.43674-0.96403-0.67521 0.19750 0.59443
  -5   0   2   34.19    1.49   1-0.66527-0.92289-0.10725 0.17989-0.73885-0.34044
   5   0  -2   34.04    1.64   1-0.40982-0.15156 0.79048 0.50108-0.45515-0.85202
   5   0  -1   17.57    0.88   1-0.53423-0.26894-0.60213-0.93085 0.59332 0.24734
  -5   0   1   17.51    0.95   1-0.24319-0.50812-0.93161-0.60224 0.27009 0.61572
  -5   0   1   17.38    1.00   1-0.65401-0.91796-0.21138 0.11646-0.72635-0.37917
   5   0  -1   15.86    1.28   1-0.51512-0.25079 0.63823 0.30831-0.57210-0.91763
   5   0   0   24.59    1.04   1-0.57042-0.29907-0.52274-0.89205 0.63352 0.33880
  -5   0   0   24.39    1.22   1-0.30326-0.57421-0.89139-0.52147 0.33680 0.63113
  -5   0   0   25.06    1.09   1-0.63807-0.90836-0.30111 0.06743-0.70865-0.41271
   5   0   0   22.96    1.43   1-0.58350-0.31310 0.48945 0.11901-0.64804-0.94223
   5   0   1   23.45    1.12   1-0.60271-0.32529-0.43434-0.84426 0.66938 0.42591
  -5   0  -1   24.72    1.17   1-0.35677-0.63375-0.84599-0.43552 0.39624 0.63927
  -5   0  -1   25.44    1.09   1-0.61931-0.89594-0.37860 0.03064-0.68782-0.44311
   5   0   1   23.72    1.24   1-0.62427-0.34781 0.35996-0.05098-0.69332-0.93617
   5   0   2    8.00    0.78   1-0.62951-0.34603-0.33897-0.78948 0.69914 0.50693
  -5   0  -2    8.43    0.67   1-0.40303-0.68604-0.79824-0.34722 0.44762 0.63935
  -5   0  -2    8.71    0.63   1-0.59884-0.88179-0.44614 0.00380-0.66508-0.47161
   5   0   2    7.25    0.98   1-0.64706-0.36453 0.25466-0.19680-0.71864-0.91015
   5   0   3   71.58    2.56   1-0.64973-0.36017-0.23905-0.73015 0.72159 0.58063
  -5   0  -3   76.03    2.74   1-0.44115-0.73071-0.75187-0.26076 0.48995 0.63091
  -5   0  -3   81.17    2.94   1-0.57726-0.86654-0.50571-0.01505-0.64111-0.49887
   5   0   3   69.23    3.17   1-0.65881-0.36953 0.17490-0.31574-0.73168-0.87392
   5   0   4   19.89    1.38   1-0.66207-0.36397-0.14486-0.67474 0.73530 0.64205
  -5   0  -4   19.99    1.49   1-0.47305-0.76867-0.70725-0.17554 0.52537 0.61508
  -5   0  -4   19.92    1.46   1-0.55487-0.85081-0.55887-0.02803-0.61625-0.52472
   5   0   4   18.33    1.39   1-0.66490-0.36928 0.11226-0.41908-0.73844-0.82945
   5   0   5   -0.28    0.48   1-0.66850-0.36405-0.04332-0.61411 0.74244 0.70023
  -5   0  -5    0.15    0.49   1-0.49855-0.80024-0.66697-0.09467 0.55370 0.59215
  -5   0  -5    0.47    0.48   1-0.53187-0.83416-0.60678-0.03521-0.59070-0.55038
   5   0   5    0.29    0.44   1-0.66766-0.36571 0.06623-0.50581-0.74151-0.78128
   5   0   6    0.64    0.54   1-0.66807-0.35727 0.05611-0.55557 0.74197 0.75079
  -5   0  -6    0.20    0.73   1-0.51846-0.82622-0.63216-0.01926 0.57581 0.56301
  -5   0  -6    0.28    0.70   1-0.50830-0.81696-0.65033-0.03802-0.56453-0.57543
   5   0   6    0.48    0.48   1-0.66875-0.36046 0.03368-0.57906-0.74272-0.73126
   5   0   7    0.60    0.59   1-0.66134-0.34419 0.15206-0.50052 0.73450 0.79435
  -5   0  -7    0.63    0.58   1-0.53359-0.84741-0.60339 0.05010 0.59261 0.52855
  -5   0  -7    0.89    0.55   1-0.48420-0.79922-0.69018-0.03714-0.53776-0.59987
   5   0   7    1.16    0.73   1-0.66908-0.35446 0.01203-0.64141-0.74309-0.68039
   5   0   8    0.72    0.92   1-0.64897-0.32547 0.24358-0.44991 0.72076 0.83164
  -5   0  -8    0.29    0.87   1-0.54466-0.86456-0.58087 0.11322 0.60491 0.48960
  -5   0  -8    0.04    0.57   1-0.45956-0.78094-0.72684-0.03307-0.51039-0.62372
   5   0   8   -0.39    0.77   1-0.66913-0.34818-0.00072-0.69487-0.74314-0.62921
   5   0   9    0.09    1.00   1-0.63162-0.30177 0.33010-0.40430 0.70148 0.86341
  -5   0  -9    0.43    0.93   1-0.55231-0.87827-0.56451 0.17017 0.61340 0.44684
  -5   0  -9    0.15    0.83   1-0.43434-0.76209-0.76068-0.02618-0.48239-0.64693
   5   0   9    0.05    0.83   1-0.66911-0.34183-0.00615-0.74101-0.74313-0.57796
   5   0  10   -0.03    1.06   1-0.60988-0.27368 0.41137-0.36393 0.67735 0.89030
  -5   0 -10   -0.00    0.68   1-0.55702-0.88905-0.55408 0.22120 0.61863 0.40082
  -5   0 -10   -0.07    0.62   1-0.40853-0.74264-0.79198-0.01675-0.45372-0.66947
   5   0  10    0.46    0.91   1-0.66912-0.33550-0.00545-0.78101-0.74313-0.52673
   5   1 -11    2.31    1.02   1-0.39095-0.11472 0.81155 0.90739 0.43419-0.40431
   5   1 -11    2.24    0.74   1-0.25595 0.02298-0.92394-0.83293 0.28426-0.55289
   5   1 -10    8.08    1.21   1-0.34452-0.06197 0.85726 0.91233 0.38262-0.40472
   5   1 -10    8.47    1.14   1-0.26279 0.02216-0.91964-0.86918 0.29186-0.49399
   5   1  -9   24.93    2.15   1-0.29431-0.00545 0.89806 0.91237 0.32687-0.40930
   5   1  -9   24.80    2.17   1-0.27387 0.01711-0.91239-0.90248 0.30417-0.43039
   5   1  -8   26.20    1.56   1-0.24039 0.05478 0.93323 0.90678 0.26698-0.41802
   5   1  -8   28.22    1.73   1-0.28945 0.00756-0.90159-0.93222 0.32146-0.36179
  -5  -1   8   25.24    1.82   1-0.56476-0.85872-0.53628-0.50919-0.62724 0.05756
  -5  -1   8   20.50    1.80   1-0.62482-0.92102 0.35784 0.38935-0.69393-0.01054
   5   1  -7    6.09    0.67   1-0.30971-0.00667-0.88643-0.95760 0.34397-0.28799
  -5  -1   7    5.15    0.90   1 0.17919-0.12398-0.96347-0.89271-0.19902 0.43323
  -5  -1   7    4.62    1.05   1-0.50472-0.80504-0.65652-0.58870-0.56055 0.07303
  -5  -1   7    4.54    0.85   1-0.65602-0.95829 0.19694 0.26896-0.72859-0.09653
   5   1  -6    5.87    0.78   1-0.33474-0.02567-0.86587-0.97759 0.37176-0.20890
  -5  -1   6    4.75    0.84   1 0.11862-0.19056-0.98416-0.87284-0.13174 0.44925
  -5  -1   6    4.50    0.82   1-0.39739-0.70407-0.80453-0.69598-0.44135 0.14102
  -5  -1   6    4.65    0.60   1-0.66851-0.97521 0.04291 0.15237-0.74246-0.16045
   5   1  -5   44.20    1.86   1-0.36440-0.04930-0.83869-0.99097 0.40471-0.12465
  -5  -1   5   43.04    2.25   1 0.05491-0.26017-0.99662-0.84435-0.06099 0.46837
  -5  -1   5   35.64    1.95   1-0.66463-0.97765-0.11579 0.03436-0.73814-0.20737
   5   1  -4   11.85    0.93   1-0.39828-0.07716-0.80355-0.99637 0.44234-0.03573
  -5  -1   4   12.36    1.16   1-0.00982-0.33094-0.99989-0.80706 0.01091 0.48899
  -5  -1   4   11.15    1.03   1-0.64970-0.96906-0.23921-0.04835-0.72156-0.24203
   5   1  -4    9.43    1.69   1-0.03966 0.28093 0.99824 0.80492-0.04404-0.52265
   5   1  -3   28.96    1.39   1-0.43482-0.10741-0.76007-0.99264 0.48291 0.05589
  -5  -1   3   29.02    1.54   1-0.07500-0.40215-0.99369-0.76032 0.08329 0.51007
  -5  -1   3   26.58    1.61   1-0.63114-0.95683-0.33211-0.10055-0.70096-0.27266
   5   1  -3   28.67    1.79   1-0.27671 0.04987 0.91048 0.67658-0.30732-0.73467
   5   1  -2    7.15    0.71   1-0.47437-0.14090-0.70526-0.97842 0.52684 0.15107
  -5  -1   2    6.87    0.64   1-0.13918-0.47236-0.97812-0.70420 0.15458 0.53006
  -5  -1   2    6.66    0.63   1-0.61187-0.94390-0.40472-0.13246-0.67956-0.30249
   5   1  -2    6.50    0.74   1-0.45401-0.12141 0.73459 0.45998-0.50423-0.87958
   5   1  -1   10.04    0.81   1-0.51450-0.17496-0.63935-0.95311 0.57141 0.24689
  -5  -1   1   10.85    0.79   1-0.20085-0.54005-0.95388-0.63941 0.22306 0.54725
  -5  -1   1   10.39    0.74   1-0.59257-0.93092-0.46447-0.15151-0.65811-0.33228
   5   1  -1    9.65    0.86   1-0.56150-0.22283 0.54389 0.22876-0.62361-0.94763
   5   1   0    1.44    0.59   1-0.55328-0.20767-0.56239-0.91675 0.61448 0.34122
  -5  -1   0    1.90    0.49   1-0.25852-0.60375-0.92234-0.56733 0.28712 0.56001
  -5  -1   0    1.47    0.51   1-0.57325-0.91794-0.51578-0.16212-0.63666-0.36207
   5   1   0    1.32    0.39   1-0.61991-0.27518 0.37642 0.02078-0.68848-0.96116
   5   1   1    4.48    0.54   1-0.58871-0.23704-0.47529-0.87024 0.65383 0.43183
  -5  -1  -1    4.54    0.57   1-0.31098-0.66224-0.88543-0.48987 0.34538 0.56697
  -5  -1  -1    4.55    0.71   1-0.55371-0.90493-0.56144-0.16776-0.61496-0.39109
   5   1   1    3.85    0.82   1-0.64903-0.29822 0.24326-0.15290-0.72082-0.94216
   5   1   2    3.69    0.53   1-0.61899-0.26125-0.37977-0.81532 0.68746 0.51671
  -5  -1  -2    3.98    0.56   1-0.35738-0.71466-0.84542-0.40931 0.39691 0.56720
  -5  -1  -2    4.18    0.59   1-0.53402-0.89160-0.60253-0.16812-0.59309-0.42044
   5   1   2    3.94    0.50   1-0.66201-0.30466 0.14546-0.28959-0.73523-0.90736
   5   1   3   51.24    2.96   1-0.64272-0.27891-0.27817-0.75432 0.71381 0.59431
  -5  -1  -3   53.53    3.12   1-0.39731-0.76062-0.80462-0.32796 0.44126 0.56025
  -5  -1  -3   54.75    3.37   1-0.51399-0.87793-0.64026-0.16512-0.57084-0.44940
   5   1   3   52.61    3.25   1-0.66747-0.30378 0.07038-0.40537-0.74130-0.86219
   5   1   4   19.30    1.20   1-0.65808-0.28574-0.18094-0.69573 0.73087 0.65901
  -5  -1  -4   19.83    1.21   1-0.43003-0.79991-0.76614-0.24939 0.47759 0.54584
  -5  -1  -4   19.29    1.15   1-0.49353-0.86383-0.67527-0.15939-0.54812-0.47789
   5   1   4   18.51    1.17   1-0.66904-0.29902 0.01636-0.50009-0.74304-0.81270
   5   1   5    1.43    0.73   1-0.66723-0.28854-0.07520-0.63090 0.74103 0.72020
  -5  -1  -5    1.11    0.53   1-0.45746-0.83341-0.72978-0.17244 0.50806 0.52505
  -5  -1  -5    0.94    0.79   1-0.47257-0.84924-0.70795-0.15134-0.52485-0.50584
   5   1   5    1.20    0.47   1-0.66897-0.29263-0.02131-0.57847-0.74297-0.76140
   5   1   6   52.09    2.92   1-0.66884-0.28380 0.02925-0.56734 0.74282 0.77302
  -5  -1  -6   51.10    3.15   1-0.47934-0.86135-0.69772-0.09978 0.53236 0.49810
  -5  -1  -6   54.48    3.03   1-0.45108-0.83411-0.73860-0.14126-0.50098-0.53319
   5   1   6   52.77    2.97   1-0.66841-0.28573-0.04627-0.64413-0.74234-0.70954
   5   1   7    3.71    0.85   1-0.66339-0.27200 0.13067-0.50682 0.73677 0.81800
  -5  -1  -7    4.73    0.69   1-0.49629-0.88437-0.67073-0.03220 0.55118 0.46567
  -5  -1  -7    4.76    0.92   1-0.42901-0.81840-0.76741-0.12934-0.47647-0.55989
   5   1   7    4.27    0.62   1-0.66787-0.27886-0.06118-0.69975-0.74175-0.65771
   5   1   8   13.91    1.38   1-0.65153-0.25379 0.22779-0.45061 0.72360 0.85588
  -5  -1  -8   12.75    1.42   1-0.50892-0.90307-0.64925 0.02988 0.56521 0.42844
  -5  -1  -8   15.73    1.48   1-0.40632-0.80207-0.79451-0.11571-0.45126-0.58590
   5   1   8   13.95    1.32   1-0.66757-0.27223-0.06804-0.74731-0.74142-0.60614
   5   1   9    1.16    0.71   1-0.63399-0.22990 0.31979-0.39952 0.70412 0.88742
  -5  -1  -9    0.62    0.91   1-0.51779-0.91801-0.63339 0.08633 0.57506 0.38704
  -5  -1  -9    1.12    0.92   1-0.38297-0.78508-0.82001-0.10048-0.42533-0.61118
   5   1   9    1.29    0.63   1-0.66756-0.26589-0.06832-0.78828-0.74140-0.55489
   5   1  10    8.88    1.26   1-0.61142-0.20098 0.40623-0.35397 0.67906 0.91340
  -5  -1 -10    7.79    1.00   1-0.52335-0.92963-0.62310 0.13722 0.58124 0.34196
  -5  -1 -10    9.85    1.10   1-0.35891-0.76739-0.84396-0.08370-0.39861-0.63568
   5   1  10    8.85    1.03   1-0.66779-0.25978-0.06309-0.82375-0.74166-0.50392
   5   2 -11   16.33    1.72   1-0.39063-0.04013 0.81190 0.92272 0.43383-0.38337
   5   2 -11   17.04    1.66   1-0.23968 0.11353-0.93364-0.82772 0.26619-0.54952
   5   2 -10    4.27    0.81   1-0.34730 0.00951 0.85475 0.92480 0.38571-0.38032
   5   2 -10    4.78    0.76   1-0.24669 0.11253-0.92955-0.86418 0.27398-0.49043
   5   2  -9    3.00    0.73   1-0.30079 0.06233 0.89326 0.92255 0.33406-0.38080
   5   2  -9    3.66    0.70   1-0.25783 0.10743-0.92277-0.89795 0.28635-0.42676
   5   2  -8    5.18    0.78   1-0.25116 0.11828 0.92688 0.91540 0.27894-0.38476
   5   2  -8    4.71    0.79   1-0.27334 0.09794-0.91275-0.92847 0.30358-0.35823
   5   2  -7    0.27    0.64   1-0.29346 0.08385-0.89869-0.95497 0.32592-0.28460
  -5  -2   7    0.32    0.58   1 0.19499-0.18241-0.95659-0.90074-0.21656 0.39417
   5   2  -6    0.23    0.48   1-0.31828 0.06505-0.87962-0.97644 0.35349-0.20573
  -5  -2   6    0.13    0.54   1 0.13970-0.24370-0.97795-0.88155-0.15516 0.40431
   5   2  -5    0.89    0.47   1-0.34777 0.04159-0.85432-0.99169 0.38623-0.12169
  -5  -2   5    0.93    0.55   1 0.08169-0.30767-0.99251-0.85514-0.09073 0.41719
   5   2  -4    3.45    0.67   1-0.38159 0.01380-0.82144-0.99936 0.42380-0.03282
  -5  -2   4    3.83    0.60   1 0.02264-0.37275-0.99942-0.82151-0.02514 0.43148
   5   2  -3    2.60    0.47   1-0.41829-0.01663-0.78051-0.99811 0.46456 0.05900
  -5  -2   3    2.55    0.55   1-0.03704-0.43846-0.99846-0.78000 0.04114 0.44647
  -5  -2   3    2.40    0.53   1-0.43681-0.83694-0.75752-0.54173-0.48512-0.07770
   5   2  -3    2.92    0.51   1-0.27219 0.12868 0.91352 0.69431-0.30229-0.70807
   5   2  -2   22.48    1.47   1-0.45842-0.05069-0.72843-0.98663 0.50913 0.15483
  -5  -2   2   23.31    1.59   1-0.09629-0.50374-0.98959-0.73057 0.10694 0.46097
  -5  -2   2   15.09    1.42   1-0.46612-0.87262-0.71744-0.46092-0.51768-0.16148
   5   2  -2   20.07    1.47   1-0.50112-0.09418 0.66265 0.40283-0.55655-0.91041
   5   2  -1   16.65    0.91   1-0.49964-0.08584-0.66514-0.96394 0.55491 0.25186
  -5  -2   1   17.38    0.99   1-0.15387-0.56734-0.97320-0.67364 0.17089 0.47363
   5   2  -1   14.61    1.20   1-0.60356-0.19056 0.43170 0.13136-0.67032-0.97284
   5   2   0   23.37    1.10   1-0.54008-0.12022-0.59034-0.92974 0.59982 0.34803
   5   2   0   15.27    1.51   1-0.64707-0.22800 0.25461-0.08623-0.71865-0.96983
   5   2   1   16.39    1.26   1-0.57771-0.15178-0.50455-0.88454 0.64161 0.44107
  -5  -2  -1   16.48    1.20   1-0.25920-0.68473-0.92191-0.54126 0.28788 0.48802
  -5  -2  -1   11.87    1.11   1-0.45994-0.88552-0.72630-0.34759-0.51081-0.30825
   5   2   1   15.55    1.27   1-0.66341-0.23799 0.13047-0.24899-0.73679-0.93880
   5   2   2   16.70    1.25   1-0.61055-0.17855-0.40916-0.82975 0.67809 0.52880
  -5  -2  -2   17.02    1.23   1-0.30495-0.73650-0.89011-0.46890 0.33868 0.48752
  -5  -2  -2   16.12    1.31   1-0.44877-0.88071-0.74174-0.32230-0.49841-0.34706
   5   2   2   17.59    1.33   1-0.66863-0.23688 0.03838-0.38178-0.74259-0.89337
   5   2   3   11.45    0.81   1-0.63696-0.19889-0.30634-0.76752 0.70741 0.60937
  -5  -2  -3   12.74    0.95   1-0.34520-0.78278-0.85664-0.39489 0.38339 0.48093
  -5  -2  -3   11.75    1.14   1-0.43546-0.87377-0.75925-0.29908-0.48363-0.38350
   5   2   3   12.07    0.86   1-0.66890-0.23082-0.02597-0.48684-0.74289-0.84244
   5   2   4    6.36    0.64   1-0.65469-0.20811-0.20659-0.70629 0.72711 0.67663
  -5  -2  -4    5.32    0.80   1-0.37973-0.82334-0.82336-0.32106 0.42174 0.46799
  -5  -2  -4    6.47    0.78   1-0.42048-0.86515-0.77788-0.27698-0.46699-0.41807
   5   2   4    6.11    0.67   1-0.66748-0.22307-0.07002-0.57159-0.74132-0.78963
   5   2   5   48.78    2.82   1-0.66596-0.21303-0.09716-0.63776 0.73962 0.74018
  -5  -2  -5   47.21    2.66   1-0.40780-0.85800-0.79282-0.25043 0.45291 0.44844
  -5  -2  -5   53.69    3.06   1-0.40411-0.85514-0.79703-0.25539-0.44881-0.45111
   5   2   5   47.45    2.89   1-0.66584-0.21509-0.09897-0.64124-0.73949-0.73657
   5   2   6    9.38    1.02   1-0.66908-0.20980 0.01189-0.56961 0.74309 0.79468
  -5  -2  -6    8.54    0.98   1-0.43133-0.88760-0.76450-0.18152 0.47904 0.42332
  -5  -2  -6   10.00    1.16   1-0.38652-0.84391-0.81628-0.23391-0.42927-0.48278
   5   2   6    9.49    0.81   1-0.66457-0.20750-0.11644-0.69941-0.73808-0.68393
   5   2   7    0.08    0.59   1-0.66442-0.19878 0.11844-0.50396 0.73791 0.84053
  -5  -2  -7   -0.14    0.55   1-0.44990-0.91224-0.74021-0.11663 0.49967 0.39269
  -5  -2  -7    0.11    0.65   1-0.36782-0.83158-0.83535-0.21225-0.40851-0.51323
   5   2   7   -0.00    0.52   1-0.66388-0.20047-0.12497-0.74864-0.73731-0.63192
   5   2   8    0.37    0.64   1-0.65259-0.18061 0.22091-0.44239 0.72478 0.87844
  -5  -2  -8    0.36    0.57   1-0.46397-0.93237-0.72055-0.05638 0.51529 0.35706
  -5  -2  -8    0.51    0.67   1-0.34809-0.81821-0.85403-0.19020-0.38659-0.54254
   5   2   8    0.92    0.58   1-0.66376-0.19402-0.12639-0.79076-0.73718-0.58056
   5   2   9    0.51    0.70   1-0.63434-0.15601 0.31821-0.38600 0.70451 0.90920
  -5  -2  -9    0.40    0.87   1-0.47397-0.94845-0.70586-0.00109 0.52640 0.31692
  -5  -2  -9    0.93    0.99   1-0.32736-0.80385-0.87214-0.16758-0.36357-0.57073
   5   2   9    0.45    0.61   1-0.66413-0.18805-0.12197-0.82704-0.73759-0.52973
   5   3 -11   -0.08    0.77   1-0.39462 0.03014 0.80758 0.93337 0.43827-0.35763
   5   3 -11   -0.32    0.99   1-0.22954 0.19794-0.93931-0.81849 0.25493-0.53933
   5   3 -10    2.38    0.80   1-0.35444 0.07663 0.84817 0.93320 0.39365-0.35108
   5   3 -10    2.97    0.97   1-0.23684 0.19666-0.93525-0.85498 0.26304-0.47992
   5   3  -9    5.30    0.89   1-0.31161 0.12578 0.88494 0.92920 0.34608-0.34749
   5   3  -9    4.63    0.75   1-0.24815 0.19138-0.92869-0.88896 0.27560-0.41607
   5   3  -8   16.07    1.53   1-0.26616 0.17754 0.91748 0.92097 0.29560-0.34680
   5   3  -8   15.75    1.43   1-0.26371 0.18184-0.91906-0.91987 0.29288-0.34749
   5   3  -7   20.22    1.34   1-0.28376 0.16782-0.90562-0.94699 0.31515-0.27393
  -5  -3   7   17.37    1.33   1 0.21486-0.23676-0.94704-0.90610-0.23863 0.35059
   5   3  -6   25.46    1.60   1-0.30843 0.14918-0.88742-0.96934 0.34254-0.19523
  -5  -3   6   23.59    1.91   1 0.16467-0.29295-0.96924-0.88775-0.18289 0.35507
   5   3  -5   12.51    0.97   1-0.33770 0.12593-0.86329-0.98576 0.37506-0.11142
  -5  -3   5   12.06    1.09   1 0.11258-0.35104-0.98574-0.86369-0.12504 0.36166
   5   3  -4    7.36    0.62   1-0.37133 0.09833-0.83188-0.99489 0.41241-0.02277
  -5  -3   4    7.96    1.12   1 0.05864-0.41102-0.99615-0.83314-0.06513 0.37005
   5   3  -3   40.42    1.75   1-0.40794 0.06797-0.79265-0.99529 0.45307 0.06897
  -5  -3   3   41.09    2.16   1 0.00442-0.47126-0.99997-0.79641-0.00491 0.37897
   5   3  -2    3.86    0.61   1-0.44822 0.03375-0.74248-0.98572 0.49780 0.16496
  -5  -3   2    3.81    0.81   1-0.04970-0.53142-0.99723-0.75313 0.05519 0.38779
   5   3  -1   27.99    1.77   1-0.48994-0.00188-0.68107-0.96491 0.54413 0.26254
  -5  -3   1   28.66    1.86   1-0.10279-0.59053-0.98812-0.70347 0.11416 0.39545
  -5  -3   1   29.12    1.99   1-0.30491-0.79214-0.89013-0.60785-0.33864-0.05496
   5   3   0    9.98    0.73   1-0.53131-0.03718-0.60787-0.93230 0.59008 0.35974
  -5  -3   0    9.70    0.74   1-0.15383-0.64761-0.97321-0.64801 0.17085 0.40085
  -5  -3   0    8.58    1.15   1-0.33451-0.82810-0.86606-0.54305-0.37151-0.13905
   5   3   0    9.70    0.83   1-0.66271-0.16922 0.13816-0.18571-0.73601-0.96792
   5   3   1    3.56    0.60   1-0.57029-0.07010-0.52305-0.88808 0.63338 0.45429
  -5  -3  -1    3.62    0.64   1-0.20186-0.70166-0.95340-0.58765 0.22419 0.40289
  -5  -3  -1    2.75    0.66   1-0.34672-0.84666-0.85528-0.49153-0.38507-0.20381
   5   3   1    3.87    0.59   1-0.66898-0.16917 0.02070-0.34386-0.74298-0.92365
   5   3   2    2.10    0.66   1-0.60484-0.09858-0.42770-0.83332 0.67174 0.54391
  -5  -3  -2    1.67    0.52   1-0.24601-0.75184-0.92995-0.52365 0.27323 0.40063
  -5  -3  -2    1.14    0.60   1-0.34950-0.85581-0.85274-0.44826-0.38816-0.25812
   5   3   2    2.14    0.45   1-0.66800-0.16185-0.05795-0.46323-0.74189-0.87133
   5   3   3    3.33    0.55   1-0.63309-0.12076-0.32374-0.76997 0.70312 0.62654
  -5  -3  -3    3.33    0.74   1-0.28564-0.79750-0.90430-0.45745 0.31724 0.39335
  -5  -3  -3    2.77    0.69   1-0.34641-0.85908-0.85555-0.41034-0.38473-0.30590
   5   3   3    3.66    0.52   1-0.66504-0.15255-0.11040-0.55638-0.73860-0.81680
   5   3   4    3.10    0.58   1-0.65248-0.13166-0.22169-0.70630 0.72465 0.69555
  -5  -3  -4    3.30    0.59   1-0.32034-0.83822-0.87795-0.39056 0.35577 0.38058
  -5  -3  -4    2.86    0.99   1-0.33927-0.85831-0.86192-0.37598-0.37680-0.34919
   5   3   4    3.51    0.55   1-0.66211-0.14329-0.14446-0.63114-0.73534-0.76231
   5   3   5   26.49    1.56   1-0.66516-0.13798-0.10878-0.63429 0.73873 0.76067
  -5  -3  -5   24.81    1.46   1-0.34993-0.87384-0.85235-0.32440 0.38864 0.36215
  -5  -3  -5   28.23    1.90   1-0.32913-0.85453-0.87065-0.34398-0.36554-0.38914
   5   3   5   27.85    1.79   1-0.65994-0.13479-0.16516-0.69254-0.73293-0.70867
   5   3   6   12.49    1.33   1-0.66912-0.13560 0.00465-0.56176 0.74313 0.81611
  -5  -3  -6   10.26    1.13   1-0.37447-0.90440-0.82873-0.26024 0.41589 0.33810
  -5  -3  -6   12.92    1.36   1-0.31664-0.84840-0.88094-0.31354-0.35167-0.42649
   5   3   6   11.58    1.23   1-0.65870-0.12722-0.17582-0.74390-0.73156-0.65606
   5   3   7    0.43    0.61   1-0.66459-0.12472 0.11620-0.49111 0.73811 0.86211
  -5  -3  -7    0.50    0.67   1-0.39414-0.93010-0.80809-0.19906 0.43774 0.30866
  -5  -3  -7    0.98    0.75   1-0.30221-0.84033-0.89219-0.28406-0.33563-0.46167
   5   3   7    0.38    0.77   1-0.65836-0.12055-0.17869-0.78746-0.73118-0.60444
   5   3   8   22.87    1.98   1-0.65213-0.10591 0.22394-0.42428 0.72427 0.89931
  -5  -3  -8   19.55    1.73   1-0.40841-0.95108-0.79211-0.14290 0.45359 0.27390
  -5  -3  -8   25.25    2.33   1-0.28610-0.83059-0.90397-0.25511-0.31775-0.49500
   5   3   8   23.53    2.20   1-0.65876-0.11462-0.17533-0.82481-0.73163-0.55366
   5   3   9    1.36    0.93   1-0.63246-0.07988 0.32649-0.36263 0.70242 0.92850
  -5  -3  -9    0.43    0.61   1-0.41921-0.96794-0.77941-0.08960 0.46558 0.23463
   5   3   9    0.37    0.87   1-0.65974-0.10927-0.16686-0.85704-0.73272-0.50352
   5   4 -10    5.10    0.98   1-0.36533 0.14001 0.83779 0.93779 0.40574-0.31769
   5   4 -10    5.33    1.08   1-0.23260 0.27517-0.93763-0.84245 0.25833-0.46319
   5   4  -9   19.02    2.23   1-0.32611 0.18554 0.87319 0.93242 0.36219-0.31007
   5   4  -9   18.61    1.97   1-0.24418 0.26962-0.93103-0.87639 0.27119-0.39903
   5   4  -8    5.79    1.17   1-0.28475 0.23322 0.90492 0.92340 0.31625-0.30485
   5   4  -8    5.05    0.74   1-0.25991 0.25992-0.92147-0.90739 0.28866-0.33027
   5   4  -7    4.16    0.86   1-0.24135 0.28293 0.93268 0.91039 0.26805-0.30188
   5   4  -7    4.81    0.91   1-0.27999 0.24586-0.90824-0.93470 0.31096-0.25667
   5   4  -6    9.04    0.81   1-0.30458 0.22730-0.89039-0.95740 0.33827-0.17806
  -5  -4   6    9.63    0.95   1 0.19292-0.33893-0.95753-0.89095-0.21425 0.30219
   5   4  -5    1.36    0.69   1-0.33367 0.20424-0.86679-0.97435 0.37058-0.09446
  -5  -4   5    1.00    0.62   1 0.14607-0.39178-0.97588-0.86874-0.16222 0.30296
   5   4  -4    0.36    0.45   1-0.36706 0.17688-0.83610-0.98421 0.40766-0.00608
  -5  -4   4    0.62    0.56   1 0.09801-0.44584-0.98921-0.84152-0.10885 0.30507
   5   4  -3    0.69    0.44   1-0.40343 0.14674-0.79779-0.98547 0.44806 0.08542
  -5  -4   3    0.57    0.76   1 0.04888-0.50108-0.99732-0.80867-0.05429 0.30815
   5   4  -2    4.26    0.54   1-0.44358 0.11265-0.74867-0.97695 0.49265 0.18127
  -5  -4   2    4.85    0.82   1 0.00004-0.55595-1.00000-0.77079-0.00004 0.31110
   5   4  -2    2.70    1.45   1 0.00537 0.56082 0.99996 0.76955 0.00597-0.30539
   5   4  -1    0.14    0.42   1-0.48537 0.07693-0.68834-0.95722 0.53906 0.27893
  -5  -4   1    0.22    0.61   1-0.04816-0.61018-0.99740-0.72765 0.05349 0.31334
   5   4  -1    0.06    0.45   1-0.65746-0.09591 0.18593-0.08235-0.73018-0.99197
   5   4   0   18.86    1.08   1-0.52709 0.04128-0.61601-0.92548 0.58540 0.37652
  -5  -4   0   16.97    1.06   1-0.09494-0.66299-0.98988-0.67958 0.10545 0.31400
   5   4   0   19.50    1.26   1-0.66892-0.10103 0.02493-0.28405-0.74291-0.95346
   5   4   1   11.88    0.92   1-0.56675 0.00769-0.53158-0.88165 0.62944 0.47182
  -5  -4  -1   10.27    0.90   1-0.13949-0.71357-0.97802-0.62718 0.15492 0.31218
   5   4   1   11.54    1.02   1-0.66722-0.09300-0.07542-0.42511-0.74102-0.90034
   5   4   2    9.70    0.97   1-0.60222-0.02171-0.43586-0.82653 0.66883 0.56247
  -5  -4  -2    8.90    0.98   1-0.18104-0.76114-0.96270-0.57130 0.20106 0.30702
  -5  -4  -2    7.57    0.91   1-0.24415-0.82483-0.93105-0.54154-0.27115-0.16242
   5   4   2   10.45    0.88   1-0.66256-0.08201-0.13974-0.53013-0.73585-0.84394
   5   4   3    9.02    1.03   1-0.63152-0.04494-0.33052-0.76178 0.70137 0.64626
  -5  -4  -3    8.06    0.94   1-0.21893-0.80506-0.94495-0.51301 0.24314 0.29780
  -5  -4  -3    6.35    0.93   1-0.25226-0.83930-0.92621-0.49596-0.28016-0.22265
   5   4   3    9.05    0.97   1-0.65810-0.07122-0.18077-0.61185-0.73090-0.78775
   5   4   4    8.45    0.80   1-0.65180-0.05674-0.22607-0.69558 0.72390 0.71619
  -5  -4  -4    7.66    0.78   1-0.25266-0.84481-0.92597-0.45348 0.28060 0.28397
  -5  -4  -4    5.17    0.86   1-0.25375-0.84715-0.92530-0.45433-0.28181-0.27551
   5   4   4    9.00    0.80   1-0.65480-0.06159-0.20580-0.67759-0.72723-0.73285
   5   4   5    4.17    0.66   1-0.66509-0.06368-0.10960-0.62002 0.73866 0.78199
  -5  -4  -5    3.70    0.82   1-0.28190-0.88008-0.90692-0.39388 0.31308 0.26515
  -5  -4  -5    3.41    0.83   1-0.25046-0.85023-0.92730-0.41559-0.27816-0.32308
   5   4   5    4.61    0.63   1-0.65284-0.05329-0.21930-0.73179-0.72505-0.67943
   5   4   6    3.41    0.92   1-0.66910-0.06134 0.00830-0.54301 0.74311 0.83747
  -5  -4  -6    2.73    0.63   1-0.30649-0.91070-0.88892-0.33533 0.34040 0.24116
  -5  -4  -6    3.26    0.88   1-0.24355-0.84968-0.93140-0.37896-0.27049-0.36662
   5   4   6    2.75    0.62   1-0.65210-0.04622-0.22414-0.77733-0.72423-0.62738
   5   4   7   20.15    1.79   1-0.66388-0.04976 0.12496-0.46726 0.73732 0.88271
  -5  -4  -7   15.06    1.45   1-0.32642-0.93665-0.87294-0.27880 0.36252 0.21199
   5   4   7   18.57    1.66   1-0.65239-0.04018-0.22223-0.81612-0.72456-0.57647
   5   4   8    3.19    0.79   1-0.64988-0.02941 0.23811-0.39502 0.72177 0.91820
  -5  -4  -8    2.26    0.86   1-0.34173-0.95800-0.85974-0.22506 0.37953 0.17771
   5   4   8    2.79    0.66   1-0.65349-0.03495-0.21489-0.84947-0.72578-0.52646
   5   5 -10    0.89    1.23   1-0.37942 0.20019 0.82369 0.93867 0.42139-0.28074
   5   5 -10    0.24    0.96   1-0.23341 0.34864-0.93718-0.82709 0.25923-0.44085
   5   5  -9    0.47    1.00   1-0.34377 0.24216 0.85793 0.93215 0.38179-0.26917
   5   5  -9    0.12    0.64   1-0.24537 0.34270-0.93033-0.86079 0.27251-0.37627
   5   5  -8    1.88    0.82   1-0.30638 0.28586 0.88900 0.92246 0.34027-0.25952
   5   5  -8    2.13    0.64   1-0.26136 0.33274-0.92056-0.89156 0.29027-0.30722
   5   5  -7    8.10    0.95   1-0.26737 0.33118 0.91669 0.90938 0.29695-0.25168
   5   5  -7    7.66    1.00   1-0.28158 0.31855-0.90714-0.91870 0.31272-0.23346
   5   5  -6   16.07    1.46   1-0.30616 0.29999-0.88918-0.94128 0.34003-0.15486
   5   5  -5    8.67    0.93   1-0.33512 0.27706-0.86554-0.95819 0.37219-0.07140
  -5  -5   5    6.58    1.06   1 0.18216-0.42991-0.96223-0.87000-0.20230 0.24136
   5   5  -4   16.48    1.08   1-0.36827 0.24994-0.83491-0.96811 0.40900 0.01670
  -5  -5   4   16.51    1.18   1 0.13943-0.47863-0.97804-0.84526-0.15486 0.23754
   5   5  -3   15.01    1.21   1-0.40434 0.22009-0.79677-0.96949 0.44906 0.10789
  -5  -5   3   15.16    1.31   1 0.09612-0.52794-0.98962-0.81629-0.10676 0.23438
   5   5  -2    5.85    0.61   1-0.44418 0.18631-0.74788-0.96120 0.49331 0.20339
  -5  -5   2    5.53    0.90   1 0.05242-0.57784-0.99692-0.78263-0.05822 0.23148
   5   5  -2    5.22    1.08   1-0.18159 0.44814 0.96247 0.74674-0.20167-0.49146
   5   5  -1   29.13    2.08   1-0.48574 0.15082-0.68776-0.94168 0.53947 0.30080
  -5  -5   1   24.64    2.05   1 0.00944-0.62685-0.99989-0.74505-0.01048 0.22792
   5   5  -1   30.97    2.33   1-0.66763-0.03168 0.06681-0.18658-0.74148-0.98192
   5   5  -1   24.04    2.50   1-0.01933 0.61640 0.99958 0.74326-0.02147-0.26000
   5   5   0    0.27    0.47   1-0.52738 0.11525-0.61546-0.90998 0.58571 0.39830
  -5  -5   0    0.49    0.54   1-0.03248-0.67481-0.99882-0.70342 0.03608 0.22319
   5   5   0    0.36    0.48   1-0.66742-0.02513-0.07145-0.36554-0.74124-0.93045
   5   5   1   20.86    1.23   1-0.56713 0.08157-0.53068-0.86579 0.62986 0.49370
  -5  -5  -1   18.70    1.25   1-0.07272-0.72107-0.99407-0.65813 0.08076 0.21658
   5   5   1   22.46    1.38   1-0.66113-0.01252-0.15412-0.48891-0.73426-0.87224
   5   5   2   10.93    1.02   1-0.60285 0.05192-0.43393-0.80963 0.66953 0.58462
  -5  -5  -2    9.14    1.00   1-0.11060-0.76498-0.98624-0.60975 0.12284 0.20735
   5   5   2   10.97    0.85   1-0.65487 0.00006-0.20529-0.58078-0.72731-0.81405
   5   5   3    0.21    0.64   1-0.63242 0.02841-0.32666-0.74296 0.70237 0.66872
  -5  -5  -3    0.11    0.54   1-0.14552-0.80593-0.97606-0.55902 0.16162 0.19484
   5   5   3    0.13    0.48   1-0.65015 0.01112-0.23645-0.65265-0.72207-0.75757
   5   5   4    1.57    0.58   1-0.65282 0.01647-0.21939-0.67381 0.72504 0.73871
  -5  -5  -4    1.09    0.80   1-0.17695-0.84338-0.96439-0.50681 0.19652 0.17844
   5   5   4    1.63    0.75   1-0.64719 0.02041-0.25394-0.71084-0.71878-0.70305
   5   5   5    1.59    0.89   1-0.66584 0.00980-0.09893-0.59426 0.73949 0.80421
  -5  -5  -5    1.15    0.61   1-0.20445-0.87691-0.95217-0.45404 0.22707 0.15769
   5   5   5    1.84    0.80   1-0.64583 0.02810-0.26155-0.75914-0.71727-0.65031
   5   5   6    2.37    0.73   1-0.66894 0.01306 0.02388-0.51234 0.74293 0.85867
  -5  -5  -6    1.81    0.90   1-0.22772-0.90620-0.94030-0.40162 0.25291 0.13223
   5   5   6    1.68    0.83   1-0.64581 0.03445-0.26167-0.79996-0.71725-0.59905
   5   5   7    9.41    0.90   1-0.66194 0.02640 0.14610-0.43103 0.73517 0.90195
  -5  -5  -7    7.16    0.79   1-0.24652-0.93103-0.92965-0.35042 0.27379 0.10182
   5   5   7    8.46    0.98   1-0.64685 0.03975-0.25590-0.83489-0.71840-0.54897
   5   6  -9    9.69    1.07   1-0.36408 0.29611 0.83900 0.92819 0.40435-0.22530
   5   6  -9    8.66    0.85   1-0.25122 0.41113-0.92684-0.84239 0.27901-0.34833
   5   6  -8    5.99    1.31   1-0.33057 0.33593 0.86943 0.91786 0.36714-0.21135
   5   6  -8    6.32    0.89   1-0.26756 0.40082-0.91657-0.87267 0.29715-0.27889
   5   6  -7   11.78    1.33   1-0.29582 0.37700 0.89696 0.90462 0.32854-0.19878
   5   6  -7   11.91    1.33   1-0.28800 0.38640-0.90263-0.89928 0.31986-0.20489
   5   6  -6    5.13    0.85   1-0.25996 0.41918 0.92144 0.88834 0.28872-0.18744
   5   6  -6    5.99    0.70   1-0.31266 0.36777-0.88411-0.92131 0.34725-0.12620
   5   6  -5    4.28    0.85   1-0.34155 0.34491-0.85991-0.93765 0.37933-0.04282
   5   6  -4    8.06    0.98   1-0.37448 0.31800-0.82872-0.94701 0.41590 0.04504
  -5  -6   4    7.91    1.14   1 0.18292-0.50937-0.96190-0.84403-0.20316 0.16773
   5   6  -3    0.28    0.50   1-0.41021 0.28847-0.79003-0.94779 0.45559 0.13587
  -5  -6   3    0.65    0.64   1 0.14505-0.55324-0.97621-0.81779-0.16110 0.15853
   5   6  -2    0.59    0.51   1-0.44964 0.25512-0.74057-0.93893 0.49937 0.23091
  -5  -6   2    0.55    0.88   1 0.10716-0.59713-0.98709-0.78811-0.11901 0.14935
   5   6  -1    0.08    0.50   1-0.49074 0.22008-0.67979-0.91874 0.54502 0.32782
  -5  -6   1    0.08    0.72   1 0.06950-0.64106-0.99458-0.75465-0.07719 0.13977
   5   6  -1    0.31    0.44   1-0.66879 0.04155-0.03184-0.27034-0.74276-0.96186
   5   6  -1    0.23    0.54   1-0.14729 0.56272 0.97547 0.73384-0.16359-0.38054
   5   6   0    2.48    0.58   1-0.53195 0.18494-0.60662-0.88617 0.59079 0.42484
  -5  -6   0    1.90    0.65   1 0.03294-0.68365-0.99878-0.71830-0.03658 0.12908
   5   6   0    2.57    0.52   1-0.66185 0.05482-0.14708-0.42628-0.73506-0.90292
   5   6   0    1.97    0.75   1-0.05374 0.66227 0.99676 0.71455-0.05968-0.22539
   5   6   1    0.17    0.53   1-0.57132 0.15164-0.52056-0.84071 0.63451 0.51981
  -5  -6  -1    0.01    0.84   1-0.00219-0.72482-0.99999-0.67896 0.00244 0.11681
   5   6   1    0.71    0.49   1-0.65358 0.06942-0.21428-0.53418-0.72588-0.84251
   5   6   1   -0.06    0.69   1 0.00585 0.72787 0.99996 0.67715 0.00650-0.10794
   5   6   2   11.47    1.04   1-0.60666 0.12236-0.42189-0.78264 0.67376 0.61032
  -5  -6  -2    8.74    0.84   1-0.03537-0.76402-0.99860-0.63701 0.03928 0.10235
   5   6   2   11.05    0.94   1-0.64707 0.08226-0.25462-0.61522-0.71864-0.78404
   5   6   2    7.56    0.93   1 0.04490 0.77293 0.99774 0.63435 0.04987-0.01332
   5   6   3    5.97    0.75   1-0.63576 0.09933-0.31184-0.71319 0.70608 0.69389
  -5  -6  -3    4.55    0.96   1-0.06602-0.80069-0.99511-0.59299 0.07332 0.08510
   5   6   3    5.54    0.67   1-0.64276 0.09290-0.27792-0.67922-0.71386-0.72802
   5   6   4    2.83    0.71   1-0.65547 0.08807-0.20098-0.64032 0.72798 0.76304
  -5  -6  -4    2.23    0.71   1-0.09362-0.83432-0.99016-0.54748 0.10398 0.06446
   5   6   4    2.74    0.62   1-0.64047 0.10153-0.28948-0.73149-0.71132-0.67425
   5   6   5    3.76    1.01   1-0.66721 0.08268-0.07568-0.55592 0.74101 0.82710
  -5  -6  -5    2.33    0.96   1-0.11769-0.86442-0.98441-0.50118 0.13070 0.03988
   5   6   5    3.42    0.65   1-0.63986 0.10847-0.29249-0.77519-0.71064-0.62233
   5   7  -7   -0.26    1.07   1-0.32628 0.42082 0.87305 0.89569 0.36237-0.14365
   5   7  -7    0.23    0.61   1-0.29881 0.44986-0.89474-0.87648 0.33187-0.17143
   5   7  -6    1.19    0.73   1-0.29490 0.45851 0.89764 0.87951 0.32752-0.12733
   5   7  -6    1.05    0.60   1-0.32362 0.43108-0.87525-0.89754 0.35942-0.09258
   5   7  -5    7.21    1.00   1-0.26294 0.49678 0.91955 0.86066 0.29203-0.11166
   5   7  -5    7.09    0.89   1-0.35249 0.40823-0.84998-0.91282 0.39149-0.00922
   5   7  -4   10.45    1.22   1-0.38524 0.38152-0.81763-0.92102 0.42785 0.07843
   5   7  -3    1.39    0.70   1-0.42063 0.35231-0.77771-0.92051 0.46715 0.16890
  -5  -7   3    1.29    0.74   1 0.19562-0.57690-0.95631-0.81279-0.21725 0.08086
   5   7  -2    9.37    1.14   1-0.45954 0.31946-0.72685-0.91025 0.51038 0.26338
  -5  -7   2    7.57    1.34   1 0.16335-0.61516-0.96974-0.78567-0.18142 0.06543
   5   7  -1   13.33    1.48   1-0.50002 0.28505-0.66450-0.88850 0.55533 0.35959
  -5  -7   1   11.81    1.46   1 0.13162-0.65289-0.98045-0.75583-0.14618 0.04940
   5   7   0    3.51    0.67   1-0.54052 0.25063-0.58946-0.85405 0.60030 0.45581
  -5  -7   0    2.56    0.77   1 0.10084-0.68967-0.98857-0.72339-0.11200 0.03233
   5   7   0    3.04    0.60   1-0.65540 0.13567-0.20151-0.46582-0.72790-0.87441
   5   7   0    2.58    0.69   1-0.15598 0.63431 0.97244 0.70492-0.17324-0.31736
   5   7   1   14.37    1.51   1-0.57907 0.21814-0.50105-0.80624 0.64312 0.54989
  -5  -7  -1   10.85    1.32   1 0.07145-0.72543-0.99428-0.68815-0.07936 0.01356
   5   7   1   13.51    1.43   1-0.64671 0.15069-0.25663-0.56164-0.71825-0.81353
   5   7   1   10.55    1.12   1-0.09179 0.70450 0.99054 0.68243-0.10195-0.19482
   5   7   2    0.34    0.66   1-0.61346 0.18982-0.39934-0.74513 0.68131 0.63933
  -5  -7  -2    0.51    0.76   1 0.04401-0.75890-0.99783-0.65115-0.04888-0.00725
   5   7   2    0.34    0.56   1-0.64062 0.16311-0.28876-0.63447-0.71148-0.75553
   5   7   2   -0.00    0.68   1-0.04718 0.75512 0.99751 0.64880-0.05240-0.09402
   5   7   3   12.99    1.31   1-0.64131 0.16803-0.28529-0.67168 0.71225 0.72152
  -5  -7  -3    8.45    1.12   1 0.01898-0.78996-0.99959-0.61237-0.02107-0.03074
   5   7   3   10.74    1.09   1-0.63699 0.17307-0.30616-0.69257-0.70745-0.70027
   5   7   3    7.96    0.96   1-0.01626 0.79203 0.99970 0.61041-0.01806-0.00843
   5   7   4    6.17    1.15   1-0.65943 0.15835-0.16962-0.59386 0.73237 0.78882
  -5  -7  -4    4.51    1.21   1-0.00310-0.81808-0.99998-0.57221 0.00344-0.05751
   5   7   4    6.72    0.75   1-0.63543 0.18097-0.31332-0.74043-0.70572-0.64730
   5   7   4    4.31    0.94   1 0.00461 0.81892 0.99997 0.57009 0.00512 0.06600
   5   8  -5    4.75    0.80   1-0.30407 0.52992 0.89077 0.84686 0.33771-0.04468
   5   8  -5    6.08    0.76   1-0.36756 0.46744-0.83561-0.88354 0.40822 0.02895
   5   8  -4    2.70    0.96   1-0.27679 0.56352 0.91043 0.82575 0.30740-0.02381
   5   8  -4    3.76    0.70   1-0.40014 0.44089-0.80149-0.88997 0.44440 0.11643
   5   8  -3    2.08    0.67   1-0.24972 0.59690 0.92774 0.80230 0.27734-0.00271
   5   8  -3    3.28    0.91   1-0.43518 0.41202-0.75961-0.88745 0.48331 0.20652
   5   8  -2    4.28    0.95   1-0.47353 0.37974-0.70653-0.87496 0.52591 0.30037
   5   8  -1    0.55    0.92   1-0.51323 0.34610-0.64161-0.85065 0.57000 0.39572
  -5  -8   1    0.25    0.85   1 0.19510-0.66364-0.95654-0.74683-0.21668-0.04260
   5   8   0   -0.16    0.96   1-0.55274 0.31266-0.56357-0.81320 0.61388 0.49085
  -5  -8   0   -0.73    1.24   1 0.17055-0.69419-0.96697-0.71670-0.18942-0.06660
   5   8   1    0.22    0.70   1-0.59007 0.28140-0.47151-0.76174 0.65534 0.58357
  -5  -8  -1   -0.38    0.87   1 0.14764-0.72310-0.97535-0.68452-0.16397-0.09241
   5   8   1   -0.17    0.61   1-0.64183 0.22997-0.28268-0.57280-0.71283-0.78676
   5   8   1    0.18    0.92   1-0.17924 0.69134 0.96345 0.67003-0.19907-0.27036
   6 -10   0    0.27    1.10   1-0.57838-0.99357 0.50283-0.08761 0.64235 0.07163
  -6  10   0    0.51    0.56   1-0.35886 0.05872-0.84401-0.25104 0.39856 0.96619
  -6  10   0    0.17    0.63   1-0.61891-0.20004 0.38008 0.97249-0.68737-0.11931
   6 -10   0    0.57    0.69   1-0.14497-0.56344 0.97624 0.38488-0.16100-0.73102
  -6  10  -1    0.78    0.74   1-0.42620-0.01532-0.77089-0.13751 0.47335 0.99038
  -6  10  -1    0.84    0.60   1-0.63289-0.22009 0.32462 0.95754-0.70289-0.18618
   6 -10   1    0.32    0.68   1-0.18905-0.60152 0.95925 0.32730-0.20996-0.72872
   6 -10   2    0.31    0.78   1-0.57170-0.97419 0.51962-0.15264 0.63494 0.16628
  -6  10  -2    0.01    0.76   1-0.47829-0.07347-0.69932-0.02534 0.53120 0.99697
  -6  10  -2   -0.66    0.82   1-0.64527-0.23854 0.26461 0.93806-0.71665-0.25127
   6 -10   2   -0.12    0.95   1-0.23046-0.63693 0.93881 0.26627-0.25595-0.72347
   6 -10   3    0.02    0.81   1-0.56388-0.96188 0.53836-0.17473 0.62625 0.21032
  -6  10  -3    0.70    0.85   1-0.51777-0.11902-0.63342 0.08115 0.57504 0.98956
  -6  10  -3    0.14    0.56   1-0.65538-0.25473 0.20167 0.91496-0.72787-0.31297
   6 -10   3    0.56    0.68   1-0.26883-0.66930 0.91574 0.20261-0.29857-0.71483
  -6   9   3    5.38    0.84   1-0.57169-0.20895 0.51964 0.97571-0.63492 0.06563
   6  -9  -3    5.56    0.83   1-0.03390-0.39609 0.99871 0.54381-0.03765-0.73984
   6  -9  -2    2.46    1.04   1-0.63162-0.98527 0.33009-0.16346 0.70148 0.05007
  -6   9   2    3.66    0.72   1-0.20684 0.14852-0.95102-0.45405 0.22972 0.87850
  -6   9   2    3.78    0.74   1-0.58839-0.23173 0.47618 0.97277-0.65348-0.00425
   6  -9  -2    4.36    0.77   1-0.08644-0.44263 0.99161 0.49613-0.09600-0.74694
   6  -9  -1    3.23    1.08   1-0.62894-0.97624 0.34131-0.19314 0.69851 0.09814
  -6   9   1    5.02    0.77   1-0.30308 0.04625-0.89153-0.35402 0.33661 0.93409
  -6   9   1    3.26    0.91   1-0.60501-0.25441 0.42715 0.96425-0.67193-0.07404
   6  -9  -1    5.01    0.86   1-0.13757-0.48776 0.97863 0.44255-0.15279-0.75248
   6  -9   0    0.21    0.84   1-0.62458-0.96553 0.35876-0.21659 0.69367 0.14432
  -6   9   0    0.12    0.70   1-0.38067-0.03736-0.82239-0.24433 0.42278 0.96897
  -6   9   0   -0.34    0.58   1-0.62091-0.27638 0.37272 0.95034-0.68959-0.14304
   6  -9   0    0.23    0.66   1-0.18661-0.53079 0.96032 0.38365-0.20725-0.75568
   6  -9   1   16.02    1.59   1-0.61873-0.95333 0.38072-0.23554 0.68717 0.18887
  -6   9  -1   18.43    1.66   1-0.44116-0.10453-0.75187-0.13345 0.48996 0.98552
  -6   9  -1   17.97    1.67   1-0.63545-0.29698 0.31324 0.93138-0.70574-0.21052
   6  -9   1   17.60    1.73   1-0.23291-0.57109 0.93746 0.32020-0.25867-0.75585
   6  -9   2    1.69    0.93   1-0.61150-0.93975 0.40597-0.25119 0.67914 0.23187
  -6   9  -2    2.40    0.60   1-0.48874-0.15818-0.68300-0.02398 0.54280 0.98711
  -6   9  -2    1.79    0.79   1-0.64801-0.31560 0.24926 0.90792-0.71968-0.27580
   6  -9   2    1.22    0.93   1-0.27593-0.60812 0.91101 0.25316-0.30646-0.75239
   6  -9   3    4.58    1.14   1-0.60294-0.92483 0.43364-0.26443 0.66963 0.27340
  -6   9  -3    3.64    0.66   1-0.52521-0.20072-0.61958 0.08002 0.58331 0.97637
  -6   9  -3    3.55    0.79   1-0.65786-0.33161 0.18274 0.88113-0.73062-0.33708
   6  -9   3    3.31    0.73   1-0.31529-0.64147 0.88202 0.18358-0.35016-0.74485
   6  -9   4   10.81    1.30   1-0.59307-0.90862 0.46303-0.27593 0.65867 0.31347
  -6   9  -4   12.11    1.41   1-0.55290-0.23448-0.56321 0.17699 0.61406 0.95587
  -6   9  -4   11.82    1.16   1-0.66493-0.34502 0.11179 0.85088-0.73848-0.39616
   6  -9   4    7.75    1.03   1-0.35071-0.67090 0.85162 0.11259-0.38951-0.73294
   6  -9   5    1.43    1.18   1-0.58191-0.89111 0.49364-0.28623 0.64628 0.35212
  -6   9  -5    1.36    0.84   1-0.57375-0.26140-0.51453 0.26627 0.63722 0.92777
  -6   9  -5    1.68    0.55   1-0.66862-0.35504 0.03879 0.81858-0.74258-0.45150
   6  -9   5    0.75    1.00   1-0.38326-0.69746 0.81970 0.03950-0.42566-0.71552
   6  -9   6    7.00    1.01   1-0.56830-0.87309 0.52788-0.29254 0.63116 0.39003
  -6   9  -6    6.73    0.85   1-0.58933-0.28304-0.47359 0.34781 0.65452 0.89381
  -6   9  -6    7.37    0.67   1-0.66871-0.36146-0.03531 0.78517-0.74268-0.50283
   6  -9   6    5.74    0.85   1-0.41061-0.71875 0.78957-0.03115-0.45603-0.69456
  -6   8   5    0.13    0.77   1-0.53853-0.23800 0.59350 0.95374-0.59810 0.18362
  -6   8   4    3.85    0.63   1-0.02272 0.26982-0.99942-0.59926 0.02524 0.75370
  -6   8   4    8.84    1.16   1-0.55531-0.26085 0.55790 0.95866-0.61674 0.11365
   6  -8  -4    8.32    1.25   1-0.00790-0.30180 0.99993 0.60031-0.00877-0.74062
   6  -8  -3   12.34    1.30   1-0.66359-0.94935 0.12837-0.30918 0.73699 0.05593
  -6   8   3   17.29    1.80   1-0.13580 0.15131-0.97918-0.53767 0.15082 0.82946
  -6   8   3   17.81    1.76   1-0.57300-0.28460 0.51641 0.95769-0.63638 0.04267
   6  -8  -3   17.94    1.80   1-0.06529-0.35320 0.99522 0.55502-0.07251-0.75312
   6  -8  -2    6.94    0.95   1-0.66105-0.94046 0.15491-0.32354 0.73417 0.10414
  -6   8   2    8.37    1.21   1-0.23675 0.04434-0.93531-0.45325 0.26294 0.89027
  -6   8   2    8.82    1.17   1-0.59099-0.30866 0.46894 0.95073-0.65636-0.02864
   6  -8  -2    9.49    1.38   1-0.12173-0.40364 0.98330 0.50251-0.13520-0.76455
   6  -8  -1    0.42    0.88   1-0.65747-0.93053 0.18583-0.33353 0.73019 0.15120
  -6   8   1    0.37    0.48   1-0.32248-0.04741-0.87619-0.35359 0.35815 0.93419
  -6   8   1    0.37    0.82   1-0.60861-0.33234 0.41557 0.93788-0.67593-0.09954
   6  -8  -1    0.34    0.86   1-0.17633-0.45224 0.96465 0.44326-0.19584-0.77394
   6  -8   0    0.54    0.64   1-0.65274-0.91944 0.21996-0.34030 0.72494 0.19698
  -6   8   0    0.39    0.60   1-0.39305-0.12401-0.80929-0.24613 0.43652 0.96126
  -6   8   0    0.76    0.77   1-0.62513-0.35493 0.35661 0.91944-0.69428-0.16923
   6  -8   0    0.94    0.85   1-0.22824-0.49814 0.94002 0.37805-0.25348-0.78034
   6  -8   1    0.02    0.94   1-0.64676-0.90711 0.25639-0.34477 0.71830 0.24138
  -6   8  -1   -0.12    0.50   1-0.44893-0.18656-0.74153-0.13807 0.49858 0.97269
  -6   8  -1    0.29    0.54   1-0.63984-0.37571 0.29259 0.89594-0.71062-0.23691
   6  -8   1    0.53    0.86   1-0.27669-0.54059 0.91049 0.30793-0.30729-0.78290
   6  -8   2    1.29    0.71   1-0.63947-0.89347 0.29442-0.34765 0.71020 0.28432
  -6   8  -2    2.11    0.61   1-0.49351-0.23721-0.67529-0.03123 0.54810 0.97095
  -6   8  -2    1.95    0.57   1-0.65182-0.39364 0.22596 0.86876-0.72392-0.30048
   6  -8   2    1.70    0.65   1-0.32110-0.57900 0.87733 0.23417-0.35661-0.78097
   6  -8   3    0.56    1.01   1-0.63082-0.87848 0.33347-0.34950 0.70060 0.32575
  -6   8  -3    0.28    0.59   1-0.52804-0.27781-0.61420 0.07045 0.58645 0.95804
  -6   8  -3    0.85    0.52   1-0.66115-0.40930 0.15397 0.83747-0.73428-0.36207
   6  -8   3    0.38    0.64   1-0.36230-0.61430 0.84072 0.15634-0.40238-0.77342
   6  -8   4    0.07    0.73   1-0.62081-0.86211 0.37310-0.35078 0.68948 0.36566
  -6   8  -4    0.47    0.75   1-0.55445-0.31029-0.55980 0.16545 0.61579 0.93613
  -6   8  -4    0.17    0.70   1-0.66700-0.42149 0.07960 0.80380-0.74078-0.41981
   6  -8   4   -0.01    0.65   1-0.39760-0.64353 0.80431 0.07940-0.44158-0.76128
   6  -8   5    0.37    1.09   1-0.60941-0.84436 0.41294-0.35184 0.67682 0.40404
  -6   8  -5    0.23    0.80   1-0.57446-0.33636-0.51278 0.25306 0.63800 0.90709
  -6   8  -5    0.23    0.71   1-0.66912-0.42994 0.00388 0.76879-0.74313-0.47340
   6  -8   5    0.19    0.95   1-0.42828-0.66815 0.76832 0.00290-0.47565-0.74402
   6  -8   6    4.98    0.93   1-0.59663-0.82523 0.45270-0.35298 0.66263 0.44088
  -6   8  -6    5.08    0.81   1-0.58945-0.35742-0.47325 0.33318 0.65465 0.87248
  -6   8  -6    6.36    0.81   1-0.66738-0.43453-0.07214 0.73345-0.74120-0.52270
   6  -8   6    5.23    0.82   1-0.45451-0.68831 0.73389-0.07204-0.50479-0.72182
   6  -8   7    2.59    1.22   1-0.58248-0.80473 0.49214-0.35444 0.64691 0.47620
  -6   8  -7    2.18    0.75   1-0.60054-0.37458-0.44100 0.40604 0.66697 0.83355
  -6   8  -7    2.25    0.55   1-0.66180-0.43528-0.14758 0.69871-0.73500-0.56773
   6  -8   8    8.31    1.05   1-0.56582-0.78371 0.53378-0.35318 0.62841 0.51092
  -6   8  -8    9.41    1.23   1-0.60860-0.38870-0.41560 0.47204 0.67592 0.79125
  -6   8  -8    9.26    0.70   1-0.65248-0.43230-0.22165 0.66534-0.72465-0.60862
   6  -8   8    6.70    0.95   1-0.49486-0.71653 0.67308-0.21388-0.54960-0.66395
  -6   7   6    0.26    0.78   1-0.52307-0.29081 0.62362 0.92856-0.58093 0.23063
   6  -7  -5    9.49    1.19   1-0.66452-0.88874-0.11711-0.45778 0.73803-0.02371
  -6   7   5   13.66    2.03   1 0.04678 0.27168-0.99755-0.65204-0.05195 0.70783
  -6   7   5   12.51    1.46   1-0.54008-0.31388 0.59035 0.93581-0.59982 0.16040
   6  -7  -5   12.99    1.30   1 0.02863-0.19698 0.99908 0.65475 0.03180-0.72972
   6  -7  -4   15.86    2.00   1-0.66678-0.88465-0.08373-0.46529 0.74053 0.02982
  -6   7   4   20.17    2.48   1-0.06156 0.15730-0.99575-0.60970 0.06837 0.77686
  -6   7   4   18.38    2.04   1-0.55845-0.33832 0.55086 0.93684-0.62022 0.08867
   6  -7  -4   17.95    1.98   1-0.03370-0.25332 0.99873 0.61380-0.03743-0.74770
   6  -7  -3    0.21    0.59   1-0.66844-0.87996-0.04531-0.46778 0.74238 0.08270
  -6   7   3    0.28    0.63   1-0.16282 0.05002-0.96994-0.54334 0.18083 0.83802
  -6   7   3    0.34    0.86   1-0.57755-0.36348 0.50496 0.93145-0.64143 0.01612
   6  -7  -3    0.08    0.59   1-0.09583-0.30946 0.98968 0.56417-0.10644-0.76546
   6  -7  -2    3.94    0.91   1-0.66912-0.87429-0.00301-0.46638 0.74314 0.13450
  -6   7   2    4.11    0.61   1-0.25365-0.04683-0.92536-0.45820 0.28171 0.88760
  -6   7   2    4.15    0.69   1-0.59665-0.38866 0.45264 0.91965-0.66265-0.05643
   6  -7  -2    3.92    0.68   1-0.15666-0.36428 0.97220 0.50610-0.17399-0.78176
   6  -7  -1   13.61    1.31   1-0.66853-0.86735 0.04219-0.46208 0.74248 0.18487
  -6   7   1   14.54    1.40   1-0.33217-0.13137-0.86808-0.36038 0.36891 0.92350
  -6   7   1   14.17    1.39   1-0.61496-0.41303 0.39413 0.90166-0.68299-0.12810
   6  -7  -1   15.49    1.41   1-0.21503-0.41665 0.94695 0.44026-0.23881-0.79534
   6  -7   0    3.83    0.95   1-0.66644-0.85891 0.08943-0.45574 0.74016 0.23359
  -6   7   0    3.48    0.57   1-0.39785-0.20308-0.80403-0.25578 0.44186 0.94516
  -6   7   0    3.61    0.85   1-0.63165-0.43579 0.32995 0.87800-0.70152-0.19797
   6  -7   0    3.39    0.66   1-0.26989-0.46550 0.91504 0.36776-0.29974-0.80501
   6  -7   1   11.33    1.19   1-0.66272-0.84884 0.13799-0.44808 0.73603 0.28050
  -6   7  -1   11.45    1.13   1-0.45060-0.26248-0.73926-0.15076 0.50044 0.95308
  -6   7  -1   11.28    1.29   1-0.64595-0.45615 0.26090 0.84946-0.71740-0.26519
   6  -7   1    9.96    1.14   1-0.32035-0.50996 0.87794 0.29007-0.35578-0.80980
   6  -7   2    1.41    0.91   1-0.65729-0.83705 0.18723-0.43974 0.73000 0.32550
  -6   7  -2    1.25    0.56   1-0.49325-0.31120-0.67572-0.04663 0.54780 0.94919
  -6   7  -2    1.07    0.64   1-0.65695-0.47317 0.18991 0.81782-0.72961-0.32752
   6  -7   2    1.13    0.63   1-0.36707-0.55080 0.83609 0.20701-0.40767-0.80855
   6  -7   3   23.08    1.97   1-0.65012-0.82353 0.23666-0.43122 0.72203 0.36856
  -6   7  -3   23.76    2.03   1-0.52662-0.35065-0.61690 0.05278 0.58488 0.93501
  -6   7  -3   26.53    2.16   1-0.66477-0.48732 0.11395 0.78255-0.73830-0.38744
   6  -7   3   24.01    2.14   1-0.40709-0.58476 0.79363 0.12403-0.45212-0.80166
   6  -7   4    5.40    0.92   1-0.64120-0.80826 0.28587-0.42291 0.71213 0.40970
  -6   7  -4    5.34    1.03   1-0.55238-0.38247-0.56436 0.14593 0.61348 0.91236
  -6   7  -4    5.73    0.74   1-0.66868-0.49757 0.03644 0.74575-0.74265-0.44302
   6  -7   4    4.60    0.75   1-0.44171-0.61331 0.75114 0.04103-0.49057-0.78877
   6  -7   5    7.24    1.23   1-0.63057-0.79128 0.33455-0.41513 0.70032 0.44892
  -6   7  -5    6.59    0.86   1-0.57201-0.40817-0.51884 0.23204 0.63529 0.88291
  -6   7  -5    6.88    0.72   1-0.66855-0.50377-0.04144 0.70856-0.74250-0.49411
   6  -7   5    5.23    1.05   1-0.47111-0.63664 0.71012-0.04050-0.52322-0.77008
   6  -7   6   14.66    1.73   1-0.61826-0.77261 0.38244-0.40814 0.68664 0.48628
  -6   7  -6   14.88    1.70   1-0.58680-0.42903-0.48055 0.31093 0.65171 0.84808
  -6   7  -6   15.40    1.62   1-0.66440-0.50594-0.11868 0.67202-0.73789-0.54073
   6  -7   6   11.69    1.42   1-0.49566-0.65513 0.67176-0.11938-0.55049-0.74602
   6  -7   7    1.51    1.14   1-0.60431-0.75231 0.42936-0.40213 0.67115 0.52183
  -6   7  -7    2.04    0.73   1-0.59777-0.44607-0.44932 0.38275 0.66390 0.80902
  -6   7  -7    1.40    0.52   1-0.65636-0.50424-0.19439 0.63701-0.72896-0.58304
   6  -7   7    0.44    0.98   1-0.51583-0.66923 0.63694-0.19471-0.57289-0.71708
   6  -7   8    8.61    1.18   1-0.58876-0.73041 0.47516-0.39723 0.65389 0.55559
  -6   7  -8    7.60    1.27   1-0.60575-0.46011-0.42481 0.44786 0.67275 0.76662
  -6   7  -8   10.11    1.12   1-0.64467-0.49889-0.26787 0.60423-0.71598-0.62129
   6  -6  -7    6.18    1.31   1-0.62748-0.78988-0.34727-0.59603 0.69689-0.14431
  -6   6   7    6.50    1.30   1 0.20963 0.37181-0.94965-0.70059-0.23281 0.60902
  -6   6   7    5.21    1.24   1-0.50998-0.34598 0.64739 0.89702-0.56639 0.27501
   6  -6  -6    4.46    0.85   1-0.63475-0.79107-0.31642-0.60578 0.70496-0.08499
  -6   6   6    5.00    1.18   1 0.11241 0.26860-0.98578-0.69616-0.12485 0.66573
  -6   6   6    3.98    0.81   1-0.52688-0.36895 0.61642 0.90657-0.58516 0.20490
   6  -6  -5    8.36    0.86   1-0.64256-0.79282-0.27897-0.60893 0.71364-0.02506
  -6   6   5    9.16    1.27   1 0.01198 0.16260-0.99984-0.66923-0.01330 0.72503
  -6   6   5    8.77    1.12   1-0.54560-0.39374 0.57891 0.90958-0.60595 0.13277
   6  -6  -5    9.70    0.94   1 0.01021-0.14112 0.99988 0.67024 0.01134-0.72859
   6  -6  -4    2.05    0.65   1-0.65026-0.79446-0.23576-0.60632 0.72219 0.03474
  -6   6   4    2.44    0.62   1-0.08533 0.05926-0.99183-0.62068 0.09477 0.78181
  -6   6   4    1.84    0.67   1-0.56551-0.41972 0.53452 0.90571-0.62807 0.05932
   6  -6  -4    1.71    0.84   1-0.05778-0.20312 0.99626 0.62603-0.06417-0.75287
   6  -6  -3    0.38    0.54   1-0.65639-0.79367-0.19416-0.60154 0.72900 0.09071
  -6   6   3   -0.05    0.69   1-0.17720-0.03862-0.96429-0.55259 0.19680 0.83255
  -6   6   3    0.60    0.59   1-0.58584-0.44611 0.48315 0.89485-0.65065-0.01459
   6  -6  -3   -0.05    0.78   1-0.12543-0.26476 0.98227 0.57145-0.13930-0.77674
   6  -6  -2   18.73    1.28   1-0.66232-0.79325-0.14227-0.59055 0.73558 0.14833
  -6   6   2   20.76    1.28   1-0.26070-0.12816-0.92097-0.46873 0.28954 0.87399
  -6   6   2   19.28    1.68   1-0.60570-0.47204 0.42495 0.87717-0.67270-0.08798
   6  -6  -2   21.62    1.38   1-0.19123-0.32456 0.95829 0.50688-0.21238-0.79857
   6  -6  -1   34.47    2.64   1-0.66657-0.79114-0.08739-0.57657 0.74030 0.20408
  -6   6   1   35.06    2.59   1-0.33394-0.20742-0.86656-0.37377 0.37088 0.90403
  -6   6   1   34.75    2.60   1-0.62415-0.49656 0.36042 0.85316-0.69319-0.15981
   6  -6  -1   32.93    2.39   1-0.25371-0.38104 0.92532 0.43332-0.28177-0.81672
   6  -6   0   14.97    1.28   1-0.66882-0.78704-0.03044-0.56053 0.74280 0.25761
  -6   6   0   15.61    1.35   1-0.39613-0.27563-0.80593-0.27259 0.43994 0.92180
  -6   6   0   16.26    1.40   1-0.64029-0.51876 0.29040 0.82365-0.71111-0.22907
   6  -6   0   14.54    1.36   1-0.31155-0.43289 0.88498 0.35239-0.34601-0.82971
   6  -6   1    0.40    0.56   1-0.66887-0.78074 0.02772-0.54326 0.74285 0.30871
  -6   6  -1    0.42    0.50   1-0.44674-0.33289-0.74447-0.17093 0.49616 0.92734
  -6   6  -1    0.55    0.50   1-0.65296-0.53724 0.21850 0.79081-0.72518-0.29321
   6  -6   1    0.28    0.57   1-0.36510-0.48056 0.83801 0.26424-0.40549-0.83619
   6  -6   2    2.55    0.86   1-0.66662-0.77214 0.08638-0.52550 0.74036 0.35725
  -6   6  -2    2.35    0.59   1-0.48824-0.38045-0.68380-0.06966 0.54224 0.92217
  -6   6  -2    2.85    0.55   1-0.66247-0.55309 0.14067 0.75369-0.73575-0.35501
   6  -6   2    2.36    0.64   1-0.41100-0.52039 0.78912 0.17483-0.45646-0.83583
   6  -6   3    0.05    0.60   1-0.66206-0.76123 0.14492-0.50787 0.73529 0.40322
  -6   6  -3    0.03    0.54   1-0.52108-0.41937-0.62732 0.02740 0.57872 0.90740
  -6   6  -3    0.30    0.47   1-0.66787-0.56482 0.06114 0.71485-0.74175-0.41224
   6  -6   3    0.20    0.61   1-0.45047-0.55380 0.73943 0.08463-0.50030-0.82833
   6  -6   4    2.38    0.70   1-0.65522-0.74803 0.20284-0.49085 0.72769 0.44665
  -6   6  -4    2.24    0.85   1-0.54668-0.45103-0.57662 0.11870 0.60715 0.88457
  -6   6  -4    2.49    0.52   1-0.66901-0.57229-0.01877 0.67564-0.74301-0.46473
   6  -6   4    1.89    0.95   1-0.48371-0.58097 0.69095-0.00436-0.53721-0.81391
   6  -6   5    0.45    0.96   1-0.64616-0.73262 0.25975-0.47484 0.71763 0.48762
  -6   6  -5    0.04    0.60   1-0.56635-0.47677-0.53253 0.20339 0.62900 0.85517
  -6   6  -5    0.03    0.66   1-0.66591-0.57553-0.09787 0.63723-0.73957-0.51253
   6  -6   6    0.50    0.72   1-0.63498-0.71509 0.31538-0.46011 0.70521 0.52624
  -6   6  -6   -0.49    0.90   1-0.58126-0.49775-0.49535 0.28117 0.64556 0.82047
  -6   6  -6   -0.07    0.65   1-0.65877-0.57472-0.17520 0.60060-0.73164-0.55584
   6  -6   6   -0.08    0.63   1-0.53346-0.61859 0.60364-0.17270-0.59247-0.76649
   6  -6   7    0.39    0.75   1-0.62177-0.69553 0.36952-0.44688 0.69054 0.56260
  -6   6  -7    0.15    0.67   1-0.59238-0.51493-0.46500 0.35211 0.65791 0.78157
  -6   6  -7   -0.07    0.68   1-0.64788-0.57016-0.25001 0.56650-0.71954-0.59497
   6  -6   7    0.14    0.94   1-0.55127-0.63033 0.56678-0.25008-0.61225-0.73493
   6  -6   8    3.58    1.19   1-0.60662-0.67403 0.42201-0.43529 0.67372 0.59682
  -6   6  -8    3.38    0.77   1-0.60048-0.52909-0.44121 0.41651 0.66690 0.73930
  -6   6  -8    3.27    0.57   1-0.63354-0.56216-0.32175 0.53545-0.70362-0.63028
   6  -6   9    2.76    0.86   1-0.58962-0.65068 0.47277-0.42543 0.65484 0.62897
  -6   6  -9    2.75    1.08   1-0.60614-0.54082-0.42356 0.47475 0.67319 0.69434
  -6   6  -9    3.08    0.60   1-0.61611-0.55106-0.39010 0.50781-0.68426-0.66216
   6  -5  -8    5.32    0.92   1-0.26168-0.35782 0.92035 0.73053 0.29062-0.58161
  -6   5   8    5.42    1.01   1-0.50033-0.40460 0.66399 0.85832-0.55567 0.31555
   6  -5  -7    6.36    0.99   1-0.58477-0.67291-0.48605-0.71985 0.64945-0.17029
  -6   5   7    5.07    1.26   1 0.17186 0.25982-0.96645-0.73230-0.19087 0.62946
  -6   5   7    5.20    1.15   1-0.51677-0.42711 0.63525 0.87010-0.57393 0.24596
   6  -5  -6    3.43    0.76   1-0.59680-0.67887-0.45220-0.72660 0.66281-0.10567
  -6   5   6    3.68    0.79   1 0.08204 0.16442-0.99245-0.71730-0.09111 0.67707
  -6   5   6    2.98    0.76   1-0.53550-0.45191 0.59960 0.87496-0.59473 0.17382
   6  -5  -5    6.99    1.10   1-0.60979-0.68579-0.41169-0.72669 0.67724-0.03999
  -6   5   5    7.28    1.13   1-0.00826 0.06808-0.99992-0.68422 0.00918 0.72608
  -6   5   5    5.77    0.88   1-0.55590-0.47838 0.55657 0.87245-0.61740 0.09982
   6  -5  -5    5.80    0.99   1-0.00497-0.08202 0.99997 0.68502-0.00551-0.72388
   6  -5  -4   -0.01    0.54   1-0.62297-0.69291-0.36496-0.72055 0.69188 0.02589
  -6   5   4    0.26    0.50   1-0.09721-0.02688-0.98939-0.63314 0.10796 0.77356
  -6   5   4   -0.02    0.81   1-0.57716-0.50570 0.50594 0.86234-0.64100 0.02487
   6  -5  -4    0.25    0.53   1-0.07974-0.15080 0.99287 0.63733-0.08857-0.75568
   6  -5  -3   24.73    1.87   1-0.63558-0.69945-0.31265-0.70884 0.70589 0.09115
  -6   5   3   23.05    1.90   1-0.18186-0.11756-0.96235-0.56556 0.20197 0.81628
  -6   5   3   23.72    1.97   1-0.59829-0.53290 0.44778 0.84470-0.66447-0.04992
   6  -5  -3   24.40    1.91   1-0.15391-0.21896 0.97318 0.57705-0.17093-0.78680
   6  -5  -2   33.44    2.52   1-0.64690-0.70470-0.25557-0.69236 0.71846 0.15498
  -6   5   2   34.24    2.47   1-0.25968-0.20141-0.92162-0.48428 0.28840 0.85141
  -6   5   2   35.02    2.62   1-0.61822-0.55890 0.38257 0.82000-0.68661-0.12339
   6  -5  -2   35.23    2.62   1-0.22544-0.28449 0.94153 0.50481-0.25038-0.81500
   6  -5  -1    1.01    0.52   1-0.65539-0.70572-0.20160-0.67569 0.72788 0.21305
  -6   5   1    1.13    0.67   1-0.32886-0.27661-0.87089-0.39300 0.36523 0.87694
  -6   5   1    0.70    0.50   1-0.63590-0.58264 0.31119 0.78914-0.70624-0.19436
   6  -5  -1    0.97    0.73   1-0.29241-0.34546 0.89946 0.42215-0.32475-0.83811
   6  -5   0    6.07    0.68   1-0.66272-0.70670-0.13804-0.65303 0.73602 0.27223
  -6   5   0    6.10    0.80   1-0.38846-0.34224-0.81422-0.29579 0.43143 0.89183
  -6   5   0    6.41    0.65   1-0.65040-0.60320 0.23492 0.75338-0.72234-0.26180
   6  -5   0    6.71    0.78   1-0.35460-0.40179 0.84802 0.32956-0.39382-0.85436
   6  -5   1   27.91    1.82   1-0.66736-0.70499-0.07269-0.62859 0.74117 0.32841
  -6   5  -1   27.51    2.07   1-0.43764-0.39804-0.75645-0.19787 0.48605 0.89577
  -6   5  -1   30.56    1.95   1-0.66072-0.61940 0.15804 0.71546-0.73380-0.32317
   6  -5   1   28.28    1.94   1-0.40803-0.44916 0.79255 0.23356-0.45317-0.86237
   6  -5   2    1.94    0.80   1-0.66911-0.70039-0.00650-0.60330 0.74312 0.38140
  -6   5  -2    1.63    0.75   1-0.47854-0.44501-0.69894-0.09976 0.53148 0.88994
  -6   5  -2    1.71    0.66   1-0.66718-0.63220 0.07619 0.67432-0.74098-0.38158
   6  -5   2    1.64    0.62   1-0.45375-0.48881 0.73494 0.13545-0.50394-0.86180
   6  -5   3   19.17    1.36   1-0.66793-0.69286 0.05971-0.57798 0.74181 0.43112
  -6   5  -3   19.26    1.49   1-0.51134-0.48388-0.64498-0.00521 0.56790 0.87511
  -6   5  -3   19.29    1.40   1-0.66911-0.64046-0.00589 0.63293-0.74313-0.43496
   6  -5   3   16.53    1.41   1-0.49186-0.52085 0.67798 0.03796-0.54626-0.85279
   6  -5   4    3.81    0.71   1-0.66385-0.68243 0.12529-0.55331 0.73728 0.47762
  -6   5  -4    3.60    0.66   1-0.53719-0.51579-0.59622 0.08414 0.59661 0.85256
  -6   5  -4    3.99    0.67   1-0.66659-0.64428-0.08688 0.59263-0.74033-0.48340
   6  -5   4    3.40    0.67   1-0.52292-0.54585 0.62390-0.05663-0.58077-0.83596
   6  -5   5   18.86    1.37   1-0.65697-0.66920 0.18970-0.52980 0.72965 0.52102
  -6   5  -5   17.43    1.21   1-0.55724-0.54192-0.55358 0.16738 0.61888 0.82359
  -6   5  -5   18.80    1.24   1-0.65987-0.64389-0.16570 0.55451-0.73287-0.52717
   6  -5   5   16.78    1.30   1-0.54776-0.56462 0.57434-0.14670-0.60834-0.81220
   6  -5   6    9.26    1.32   1-0.64744-0.65331 0.25253-0.50787 0.71905 0.56146
  -6   5  -6    7.00    0.91   1-0.57257-0.56331-0.51746 0.24409 0.63590 0.78936
  -6   5  -6    8.02    0.90   1-0.64931-0.63965-0.24157 0.51934-0.72113-0.56667
   6  -5   6    7.08    0.93   1-0.56727-0.57807 0.53034-0.23122-0.63002-0.78254
   6  -5   7    6.22    0.92   1-0.63539-0.63491 0.31352-0.48778 0.70567 0.59912
  -6   5  -7    6.60    1.08   1-0.58407-0.58088-0.48791 0.31424 0.64868 0.75088
  -6   5  -7    7.56    0.73   1-0.63529-0.63197-0.31397 0.48764-0.70556-0.60233
   6  -5   8   11.76    1.48   1-0.62098-0.61415 0.37246-0.46974 0.68967 0.63415
  -6   5  -8   10.88    1.35   1-0.59248-0.59536-0.46472 0.37803 0.65802 0.70896
  -6   5  -8   11.11    1.24   1-0.61821-0.62123-0.38260 0.45972-0.68660-0.63460
   6  -5   9    1.23    1.12   1-0.60435-0.59117 0.42924-0.45387 0.67120 0.66671
  -6   5  -9    1.49    0.73   1-0.59837-0.60732-0.44754 0.43580 0.66456 0.66425
  -6   5  -9    1.61    0.57   1-0.59845-0.60779-0.44732 0.43570-0.66464-0.66388
   6  -4  -9    0.22    0.72   1-0.30495-0.33314 0.89010 0.75602 0.33868-0.56341
   6  -4  -9    0.74    1.07   1-0.51629-0.54231-0.63611-0.77376 0.57340-0.32739
  -6   4   9   -0.04    0.90   1-0.28521-0.25505-0.90460-0.76983-0.31675 0.58507
  -6   4   9    0.13    0.87   1-0.49546-0.46801 0.67209 0.81111-0.55027 0.35079
   6  -4  -8    0.40    0.73   1-0.52704-0.54699-0.61610-0.79435 0.58534-0.26419
  -6   4   8   -0.04    1.05   1-0.51108-0.48969 0.64545 0.82499-0.56761 0.28211
   6  -4  -7    1.65    0.67   1-0.54048-0.55436-0.58952-0.80837 0.60027-0.19801
  -6   4   7    1.82    0.74   1 0.14813 0.16187-0.97518-0.75595-0.16451 0.63429
  -6   4   7    1.30    0.71   1-0.52947-0.51414 0.61144 0.83150-0.58803 0.21035
   6  -4  -6    4.17    0.70   1-0.55607-0.56389-0.55620-0.81563 0.61758-0.12944
  -6   4   6    3.49    0.89   1 0.06541 0.07352-0.99520-0.73496-0.07264 0.67410
  -6   4   6    3.67    0.96   1-0.55001-0.54075 0.56950 0.83007-0.61085 0.13620
   6  -4  -5   12.03    1.05   1-0.57315-0.57489-0.51604-0.81607 0.63655-0.05923
  -6   4   5   11.34    0.95   1-0.01767-0.01559-0.99965-0.69886 0.01963 0.71508
  -6   4   5   11.23    1.06   1-0.57185-0.56866 0.51924 0.82033-0.63511 0.06061
   6  -4  -5    9.75    1.06   1-0.01588-0.01865 0.99971 0.69946-0.01763-0.71442
   6  -4  -4    9.31    0.95   1-0.59091-0.58659-0.46916-0.80979 0.65627 0.01175
  -6   4   4    8.89    0.93   1-0.09979-0.10374-0.98881-0.64748 0.11083 0.75498
  -6   4   4    8.98    1.06   1-0.59390-0.59678 0.46065 0.80225-0.65960-0.01521
   6  -4  -4    8.09    0.95   1-0.09898-0.09575 0.98899 0.64815-0.10993-0.75546
   6  -4  -3   20.90    1.47   1-0.60851-0.59812-0.41591-0.79714 0.67581 0.08254
  -6   4   3   18.80    1.48   1-0.17853-0.18850-0.96374-0.58186 0.19827 0.79113
  -6   4   3   20.33    1.51   1-0.61494-0.62388 0.39419 0.77632-0.68296-0.08992
   6  -4  -3   20.21    1.64   1-0.18105-0.17182 0.96269 0.58126-0.20108-0.79536
   6  -4  -2    3.05    0.75   1-0.62505-0.60860-0.35691-0.77874 0.69419 0.15217
  -6   4   2    2.61    0.53   1-0.25169-0.26769-0.92655-0.50412 0.27953 0.82109
  -6   4   2    2.57    0.55   1-0.63374-0.64875 0.32088 0.74352-0.70384-0.16213
   6  -4  -2    2.55    0.54   1-0.25930-0.24406 0.92185 0.49983-0.28798-0.83102
   6  -4  -1    1.19    0.51   1-0.63975-0.61723-0.29304-0.75546 0.71052 0.21975
  -6   4   1    1.16    0.49   1-0.31758-0.33960-0.88019-0.41721 0.35270 0.84297
  -6   4   1    0.98    0.59   1-0.64920-0.67028 0.24219 0.70535-0.72101-0.23064
   6  -4  -1    1.00    0.70   1-0.33114-0.30991 0.86895 0.40633-0.36777-0.85956
   6  -4   0   32.46    1.60   1-0.65192-0.62332-0.22533-0.72836 0.72403 0.28452
  -6   4   0   33.71    1.83   1-0.37516-0.40322-0.82803-0.32450 0.41666 0.85563
  -6   4   0   34.45    1.91   1-0.66013-0.68688 0.16341 0.66524-0.73315-0.29263
   6  -4   0   33.02    1.85   1-0.39606-0.36892 0.80600 0.30232-0.43987-0.87891
   6  -4   1   46.45    2.17   1-0.66027-0.62366-0.16213-0.70293 0.73331 0.34193
  -6   4  -1   46.21    2.49   1-0.42337-0.45803-0.77438-0.23076 0.47020 0.85846
  -6   4  -1   48.54    2.39   1-0.66704-0.70012 0.07895 0.62148-0.74082-0.35154
   6  -4   1   45.69    2.44   1-0.45013-0.41692 0.73990 0.19571-0.49992-0.88762
   6  -4   2   21.86    1.34   1-0.66640-0.62343-0.09023-0.67194 0.74011 0.39977
  -6   4  -2   19.45    1.26   1-0.46408-0.50480-0.72039-0.13618 0.51541 0.85242
  -6   4  -2   21.19    1.35   1-0.66912-0.70853-0.00540 0.57782-0.74313-0.40508
   6  -4   2   19.09    1.46   1-0.49474-0.45547 0.67328 0.08857-0.54947-0.88583
   6  -4   3    0.57    0.69   1-0.66902-0.61971-0.01777-0.64038 0.74302 0.45372
  -6   4  -3    0.75    0.51   1-0.49717-0.54397-0.66926-0.04445 0.55217 0.83792
  -6   4  -3    0.23    0.58   1-0.66652-0.71227-0.08814 0.53578-0.74025-0.45343
   6  -4   3    0.47    0.56   1-0.53054-0.48520 0.60936-0.01585-0.58923-0.87425
   6  -4   4    5.22    0.71   1-0.66814-0.61247 0.05434-0.60916 0.74204 0.50377
  -6   4  -4    4.85    0.65   1-0.52359-0.57645-0.62265 0.04276 0.58151 0.81600
  -6   4  -4    5.08    0.68   1-0.65960-0.71168-0.16813 0.49649-0.73256-0.49698
   6  -4   4    5.11    0.69   1-0.55860-0.50720 0.55050-0.11523-0.62039-0.85408
   6  -4   5    0.02    0.61   1-0.66384-0.60183 0.12540-0.57901 0.73727 0.55004
  -6   4  -5    0.23    0.79   1-0.54432-0.60325-0.58158 0.12442 0.60453 0.78778
  -6   4  -5    0.30    0.59   1-0.64880-0.70722-0.24457 0.46075-0.72057-0.53622
   6  -4   5    0.36    0.79   1-0.58019-0.52271 0.49816-0.20809-0.64436-0.82671
   6  -4   6    1.18    0.66   1-0.65630-0.58793 0.19483-0.55048 0.72890 0.59270
  -6   4  -6    1.41    0.62   1-0.56032-0.62532-0.54659 0.20001 0.62230 0.75429
  -6   4  -6    1.01    0.44   1-0.63461-0.69936-0.31701 0.42901-0.70481-0.57169
   6  -4   7    0.49    1.00   1-0.64571-0.57099 0.26222-0.52399 0.71714 0.63197
  -6   4  -7    0.08    0.61   1-0.57243-0.64349-0.51782 0.26937 0.63574 0.71648
  -6   4  -7    0.04    0.46   1-0.61748-0.68855-0.38525 0.40148-0.68578-0.60390
   6  -4   8    0.32    1.05   1-0.63227-0.55120 0.32728-0.49983 0.70221 0.66808
  -6   4  -8   -0.26    0.93   1-0.58133-0.65846-0.49518 0.33261 0.64563 0.67511
  -6   4  -8   -0.10    0.49   1-0.59780-0.67521-0.44924 0.37819-0.66393-0.63328
   6  -4   9    0.57    0.78   1-0.61618-0.52876 0.38984-0.47818 0.68434 0.70124
  -6   4  -9   -0.13    0.70   1-0.58759-0.67079-0.47839 0.39000 0.65258 0.63081
  -6   4  -9    0.24    0.77   1-0.57593-0.65967-0.50907 0.35905-0.63964-0.66022
   6  -4  10    0.19    0.80   1-0.59762-0.50384 0.44979-0.45913 0.66372 0.73166
  -6   4 -10    0.56    0.74   1-0.59163-0.68090-0.46712 0.44186 0.65708 0.58405
  -6   4 -10    0.50    0.85   1-0.55214-0.64288-0.56488 0.34379-0.61322-0.68447
   6  -3  -9    0.04    0.93   1-0.28114-0.23506 0.90744 0.78834 0.31224-0.56855
   6  -3  -9    0.08    0.98   1-0.47079-0.42254-0.71060-0.83329 0.52286-0.35646
  -6   3   9    0.50    0.60   1-0.31022-0.35443-0.88603-0.76622-0.34453 0.53598
  -6   3   9    0.05    1.05   1-0.51153-0.55841 0.64464 0.76887-0.56812 0.31144
   6  -3  -8   24.32    2.58   1-0.48318-0.42888-0.69177-0.85505 0.53663-0.29144
  -6   3   8   22.79    2.62   1 0.20773 0.15324-0.95058-0.78682-0.23071 0.59785
  -6   3   8   19.59    2.54   1-0.52921-0.58215 0.61194 0.77670-0.58775 0.24048
   6  -3  -7    1.94    0.65   1-0.49862-0.43824-0.66685-0.87074 0.55378-0.22304
  -6   3   7    1.65    0.67   1 0.13496 0.07448-0.97944-0.77512-0.14989 0.62740
  -6   3   7    1.39    0.92   1-0.54951-0.60852 0.57058 0.77584-0.61030 0.16659
   6  -3  -6   11.01    1.26   1-0.51666-0.45022-0.63544-0.87992 0.57381-0.15175
  -6   3   6   10.42    1.22   1 0.05841-0.00774-0.99618-0.75084-0.06487 0.66043
  -6   3   6   11.28    1.27   1-0.57153-0.63660 0.52003 0.76582-0.63475 0.09080
   6  -3  -5   14.90    1.26   1-0.53670-0.46419-0.59719-0.88226 0.59607-0.07824
  -6   3   5   14.23    1.29   1-0.01846-0.09066-0.99961-0.71373 0.02051 0.69452
  -6   3   5   15.35    1.51   1-0.59405-0.66519 0.46022 0.74652-0.65976 0.01445
   6  -3  -5   12.63    1.44   1-0.02084 0.05066 0.99951 0.71395-0.02315-0.69835
   6  -3  -4    4.72    0.63   1-0.55799-0.47941-0.55191-0.87758 0.61971-0.00335
  -6   3   4    4.27    0.60   1-0.09472-0.17294-0.98992-0.66349 0.10520 0.72791
  -6   3   4    5.02    0.69   1-0.61567-0.69288 0.39165 0.71847-0.68377-0.06089
   6  -3  -4    4.28    0.76   1-0.11452-0.03701 0.98524 0.65908-0.12719-0.75115
   6  -3  -3   13.54    1.04   1-0.57961-0.49496-0.49965-0.86592 0.64372 0.07191
  -6   3   3   12.83    1.04   1-0.16835-0.25260-0.96782-0.60084 0.18698 0.75839
  -6   3   3   14.09    1.18   1-0.63495-0.71822 0.31551 0.68285-0.70518-0.13363
   6  -3  -3   11.61    0.88   1-0.20651-0.12299 0.95118 0.58443-0.22935-0.80206
   6  -3  -2    0.15    0.45   1-0.60061-0.50990-0.44080-0.84766 0.66705 0.14649
  -6   3   2   -0.15    0.64   1-0.23748-0.32775-0.93489-0.52737 0.26375 0.78387
  -6   3   2    0.17    0.44   1-0.65061-0.73995 0.23364 0.64149-0.72257-0.20236
   6  -3  -2    0.18    0.55   1-0.29277-0.20325 0.89919 0.49186-0.32516-0.84661
   6  -3  -1   28.59    1.39   1-0.62002-0.52324-0.37601-0.82348 0.68860 0.21930
  -6   3   1   30.56    1.55   1-0.30052-0.39682-0.89346-0.44538 0.33377 0.80259
  -6   3   1   30.28    1.64   1-0.66129-0.75611 0.15257 0.59881-0.73444-0.26403
   6  -3  -1   30.45    1.65   1-0.37140-0.27599 0.83181 0.38343-0.41249-0.88136
   6  -3   0   37.80    1.78   1-0.63697-0.53412-0.30627-0.79433 0.70743 0.28938
  -6   3   0   36.06    1.76   1-0.35643-0.45876-0.84631-0.35769 0.39586 0.81338
  -6   3   0   37.84    1.76   1-0.66770-0.76885 0.06526 0.55220-0.74155-0.32238
   6  -3   0   35.04    2.29   1-0.43710-0.33563 0.75714 0.26826-0.48545-0.90298
   6  -3   1    1.28    0.53   1-0.65075-0.54184-0.23273-0.76138 0.72273 0.35594
  -6   3  -1    1.53    0.52   1-0.40391-0.51283-0.79725-0.26859 0.44859 0.81538
  -6   3  -1    1.58    0.46   1-0.66898-0.77646-0.02122 0.50641-0.74297-0.37503
   6  -3   1    1.52    0.56   1-0.49083-0.38329 0.67964 0.15023-0.54512-0.91132
   6  -3   2    5.63    0.84   1-0.66007-0.54286-0.16399-0.73061 0.73308 0.41412
  -6   3  -2    5.47    0.63   1-0.44466-0.55964-0.74725-0.17800 0.49384 0.80939
  -6   3  -2    5.82    0.55   1-0.66541-0.77922-0.10524 0.46309-0.73901-0.42231
   6  -3   2    6.05    0.71   1-0.53321-0.41961 0.60413 0.03421-0.59219-0.90705
   6  -3   3   32.88    1.68   1-0.66661-0.54305-0.08667-0.69419 0.74034 0.47242
  -6   3  -3   29.46    1.85   1-0.47828-0.59933-0.69934-0.08949 0.53118 0.79547
  -6   3  -3   30.71    1.59   1-0.65750-0.77764-0.18564 0.42339-0.73022-0.46475
   6  -3   3   31.27    1.77   1-0.56567-0.44600 0.53414-0.07629-0.62825-0.89177
   6  -3   4    0.52    0.80   1-0.66910-0.53919-0.00911-0.65753 0.74311 0.52622
  -6   3  -4    0.54    0.66   1-0.50549-0.63261-0.65519-0.00474 0.56141 0.77444
  -6   3  -4    0.43    0.58   1-0.64580-0.77228-0.26172 0.38801-0.71724-0.50300
   6  -3   4    0.15    0.52   1-0.58996-0.46422 0.47182-0.17913-0.65522-0.86741
   6  -3   5   18.57    1.51   1-0.66759-0.53133 0.06772-0.62159 0.74143 0.57558
  -6   3  -5   18.50    1.55   1-0.52713-0.66031-0.61594 0.07509 0.58543 0.74722
  -6   3  -5   18.49    1.49   1-0.63090-0.76371-0.33317 0.35726-0.70068-0.53768
   6  -3   5   19.06    1.58   1-0.60781-0.47600 0.41817-0.27329-0.67504-0.83589
   6  -3   6    6.33    0.82   1-0.66224-0.51963 0.14308-0.58714 0.73549 0.62068
  -6   3  -6    5.85    0.94   1-0.54401-0.68326-0.58223 0.14940 0.60418 0.71471
  -6   3  -6    6.22    0.63   1-0.61328-0.75242-0.39994 0.33119-0.68112-0.56935
   6  -3   7    8.43    1.06   1-0.65327-0.50431 0.21638-0.55474 0.72553 0.66175
  -6   3  -7    9.05    1.05   1-0.55690-0.70223-0.55434 0.21789 0.61851 0.67778
  -6   3  -7    8.76    0.92   1-0.59338-0.73885-0.46215 0.30968-0.65901-0.59848
   6  -3   8    7.58    1.13   1-0.64093-0.48562 0.28720-0.52482 0.71183 0.69908
  -6   3  -8    6.95    0.82   1-0.56646-0.71785-0.53226 0.28057 0.62912 0.63714
  -6   3  -8    8.05    1.01   1-0.57154-0.72334-0.52002 0.29251-0.63476-0.62546
   6  -3   9    6.00    1.24   1-0.62547-0.46381 0.35527-0.49765 0.69466 0.73294
  -6   3  -9    4.88    0.87   1-0.57323-0.73068-0.51584 0.33758 0.63663 0.59340
  -6   3  -9    4.75    0.93   1-0.54803-0.70677-0.57375 0.27922-0.60865-0.64999
   6  -3  10    5.13    1.24   1-0.60711-0.43910 0.42043-0.47340 0.67427 0.76359
  -6   3 -10    6.10    1.15   1-0.57761-0.74113-0.50481 0.38921 0.64150 0.54701
  -6   3 -10    6.73    0.74   1-0.52304-0.68814-0.62368 0.27002-0.58089-0.67345
   6  -2 -10    0.20    0.97   1-0.32687-0.21284 0.87256 0.80919 0.36303-0.54762
   6  -2 -10   -0.27    0.85   1-0.42130-0.30487-0.77689-0.84402 0.46790-0.44122
  -6   2  10    0.02    0.67   1-0.41433-0.52654-0.78522-0.72111-0.46016 0.45026
  -6   2  10    0.10    0.96   1-0.52055-0.63570 0.62831 0.69724-0.57813 0.33126
   6  -2  -9    0.43    0.64   1-0.26655-0.14620 0.91723 0.81310 0.29603-0.56345
   6  -2  -9   -0.48    0.91   1-0.43120-0.30870-0.76467-0.87239 0.47889-0.37897
  -6   2   9    0.40    0.61   1-0.34974-0.46832-0.85253-0.74768-0.38842 0.47078
  -6   2   9   -0.04    0.75   1-0.53710-0.65831 0.59639 0.70583-0.59651 0.26155
   6  -2  -8    1.24    0.63   1-0.44458-0.31601-0.74736-0.89568 0.49375-0.31286
  -6   2   8    0.94    0.68   1 0.19787 0.06916-0.95527-0.80642-0.21976 0.58728
  -6   2   8    0.95    0.79   1-0.27455-0.39949-0.91194-0.76636-0.30492 0.50307
  -6   2   8    1.09    0.67   1-0.55672-0.68400 0.55476 0.70472-0.61830 0.18842
   6  -2  -7    0.03    0.55   1-0.46125-0.32662-0.72443-0.91335 0.51227-0.24308
  -6   2   7    0.27    0.59   1 0.13020-0.00450-0.98088-0.79147-0.14460 0.61118
  -6   2   7   -0.07    0.78   1-0.57839-0.71173 0.50281 0.69329-0.64236 0.11302
   6  -2  -6    1.79    0.68   1-0.48089-0.34018-0.69533-0.92485 0.53408-0.17002
  -6   2   6    0.95    0.78   1 0.05920-0.08123-0.99607-0.76564-0.06575 0.63810
  -6   2   6    1.11    0.63   1-0.60073-0.74014 0.44044 0.67143-0.66718 0.03687
   6  -2  -5    2.04    0.54   1-0.50297-0.35620-0.65952-0.92964 0.55860-0.09425
  -6   2   5    1.66    0.66   1-0.01213-0.15859-0.99983-0.72885 0.01347 0.66604
  -6   2   5    1.74    0.54   1-0.62209-0.76756 0.36831 0.63982-0.69090-0.03818
   6  -2  -5    1.73    0.55   1-0.01698 0.12881 0.99967 0.72880-0.01886-0.67249
   6  -2  -4    8.69    0.82   1-0.52679-0.37396-0.61658-0.92729 0.58506-0.01653
  -6   2   4    7.20    0.77   1-0.08313-0.23563-0.99225-0.68072 0.09233 0.69360
  -6   2   4    7.91    0.82   1-0.64077-0.79231 0.28803 0.60006-0.71165-0.11027
   6  -2  -4    7.37    1.07   1-0.12479 0.02701 0.98245 0.67099-0.13859-0.74097
   6  -2  -3   13.03    1.01   1-0.55149-0.39259-0.56630-0.91760 0.61249 0.06214
  -6   2   3   11.46    0.89   1-0.15217-0.31069-0.97379-0.62172 0.16900 0.71897
  -6   2   3   12.68    0.99   1-0.65447-0.81102 0.20817 0.55812-0.72686-0.17533
   6  -2  -3   13.19    1.00   1-0.22972-0.07192 0.93921 0.58716-0.25513-0.80626
   6  -2  -2   12.79    0.99   1-0.57605-0.41108-0.50877-0.90067 0.63977 0.14067
  -6   2   2   13.37    0.90   1-0.21760-0.38215-0.94564-0.55302 0.24168 0.74035
  -6   2   2   13.47    0.99   1-0.66442-0.82731 0.11836 0.50900-0.73792-0.23762
   6  -2  -2   12.43    1.04   1-0.32581-0.16201 0.87344 0.48080-0.36185-0.86173
   6  -2  -1   28.16    1.36   1-0.59941-0.42837-0.44443-0.87694 0.66571 0.21787
  -6   2   1   26.40    1.60   1-0.27803-0.44860-0.90958-0.47642 0.30878 0.75616
  -6   2   1   27.79    1.50   1-0.66886-0.83807 0.02834 0.45968-0.74284-0.29378
   6  -2  -1   25.34    1.56   1-0.41008-0.24033 0.79019 0.35661-0.45544-0.90280
   6  -2   0    2.26    0.56   1-0.62054-0.44343-0.37410-0.84720 0.68918 0.29259
  -6   2   0    1.89    0.71   1-0.33237-0.50897-0.86790-0.39419 0.36913 0.76521
  -6   2   0    2.43    0.49   1-0.66794-0.84349-0.05951 0.41253-0.74182-0.34400
   6  -2   0    1.59    0.71   1-0.47729-0.30148 0.70086 0.22676-0.53008-0.92611
   6  -2   1    4.27    0.69   1-0.63854-0.45537-0.29886-0.81255 0.70918 0.36384
  -6   2  -1    4.40    0.82   1-0.38003-0.56265-0.82306-0.30880 0.42206 0.76684
  -6   2  -1    4.00    0.59   1-0.66220-0.84408-0.14353 0.36920-0.73544-0.38885
   6  -2   1    4.10    0.70   1-0.52939-0.34751 0.61160 0.09698-0.58795-0.93264
   6  -2   2   33.76    1.57   1-0.65160-0.46015-0.22737-0.77890 0.72367 0.42610
  -6   2  -2   31.70    1.63   1-0.42006-0.60930-0.77839-0.22409 0.46652 0.76060
  -6   2  -2   33.46    1.53   1-0.65232-0.84053-0.22274 0.33070-0.72447-0.42911
   6  -2   2   33.91    1.81   1-0.56825-0.38030 0.52801-0.02712-0.63110-0.92446
   6  -2   3   40.28    1.83   1-0.66192-0.46412-0.14639-0.73882 0.73513 0.48860
  -6   2  -3   38.64    1.93   1-0.45431-0.64962-0.73417-0.13928 0.50456 0.74739
  -6   2  -3   39.08    1.74   1-0.63899-0.83354-0.29671 0.29743-0.70967-0.46555
   6  -2   3   40.99    1.94   1-0.59638-0.40237 0.45346-0.14218-0.66234-0.90436
   6  -2   4   18.37    1.30   1-0.66774-0.46359-0.06442-0.69775 0.74160 0.54610
  -6   2  -4   17.62    1.29   1-0.48244-0.68382-0.69293-0.05744 0.53580 0.72738
  -6   2  -4   18.76    1.25   1-0.62285-0.82373-0.36541 0.26943-0.69175-0.49886
   6  -2   5    1.03    0.72   1-0.66903-0.45852 0.01736-0.65686 0.74303 0.59856
  -6   2  -5    0.99    0.69   1-0.50512-0.71256-0.65584 0.02023 0.56099 0.70131
  -6   2  -5    1.56    0.66   1-0.60441-0.81162-0.42903 0.24651-0.67127-0.52961
   6  -2   6    5.39    0.97   1-0.66591-0.44905 0.09799-0.61713 0.73956 0.64613
  -6   2  -6    5.30    0.71   1-0.52303-0.73655-0.62369 0.09299 0.58089 0.66996
  -6   2  -6    5.87    0.79   1-0.58407-0.79762-0.48791 0.22833-0.64868-0.55826
   6  -2   7   -0.26    0.90   1-0.65860-0.43539 0.17669-0.57933 0.73145 0.68905
  -6   2  -7    0.09    0.61   1-0.53687-0.75645-0.59686 0.16041 0.59625 0.63406
  -6   2  -7    0.05    0.50   1-0.56217-0.78255-0.54235 0.21419-0.62435-0.58457
   6  -2   8    0.52    1.01   1-0.64737-0.41782 0.25289-0.54404 0.71898 0.72762
  -6   2  -8    0.50    0.93   1-0.54722-0.77287-0.57548 0.22239 0.60775 0.59431
  -6   2  -8    0.72    0.56   1-0.53887-0.76562-0.59280 0.20447-0.59848-0.60992
   6  -2   9    0.07    0.95   1-0.63253-0.39662 0.32619-0.51165 0.70249 0.76217
  -6   2  -9    0.35    0.87   1-0.55459-0.78631-0.55949 0.27898 0.61594 0.55124
  -6   2  -9    0.51    0.83   1-0.51438-0.74749-0.63956 0.19844-0.57128-0.63393
   6  -2   9    0.43    0.67   1-0.65304-0.42050 0.21792-0.62042-0.72528-0.66200
   6  -2  10    0.23    0.80   1-0.61433-0.37207 0.39633-0.48241 0.68228 0.79299
  -6   2 -10    0.48    0.74   1-0.55940-0.79718-0.54871 0.33036 0.62127 0.50533
  -6   2 -10    0.09    0.63   1-0.48879-0.72826-0.68292 0.19582-0.54285-0.65672
   6  -2  10    0.14    0.72   1-0.65466-0.41579 0.20682-0.67222-0.72707-0.61256
   6  -1 -10    1.27    0.71   1-0.31608-0.12779 0.88139 0.83300 0.35105-0.53830
   6  -1 -10    1.63    0.99   1-0.38842-0.19781-0.81426-0.86759 0.43138-0.45622
   6  -1  -9    6.39    0.79   1-0.25945-0.06483 0.92176 0.83261 0.28814-0.55004
   6  -1  -9    6.29    0.79   1-0.39880-0.20216-0.80298-0.89686 0.44291-0.39340
  -6   1   9    5.77    0.73   1-0.41037-0.60332-0.78985-0.69997-0.45576 0.38214
  -6   1   9    4.36    1.09   1-0.57514-0.77068 0.51107 0.60573-0.63875 0.19780
   6  -1  -8   11.71    0.90   1-0.41196-0.20913-0.78800-0.92136 0.45752-0.32762
  -6   1   8   12.01    0.97   1 0.19526-0.00766-0.95647-0.82253-0.21686 0.56866
  -6   1   8   12.18    1.43   1-0.33295-0.53226-0.86741-0.73680-0.36978 0.41691
  -6   1   8   11.22    1.08   1-0.59562-0.79723 0.45568 0.59085-0.66150 0.12372
   6  -1  -7    2.34    0.81   1-0.42938-0.22049-0.76695-0.94091 0.47687-0.25702
  -6   1   7    2.62    0.66   1 0.13234-0.07658-0.98024-0.80574-0.14698 0.58728
  -6   1   7    1.90    0.56   1-0.61661-0.82429 0.38834 0.56403-0.68482 0.04906
   6  -1  -6   40.49    2.09   1-0.45001-0.23505-0.74006-0.95462 0.49978-0.18286
  -6   1   6   38.92    2.40   1 0.06649-0.14822-0.99505-0.77952-0.07384 0.60857
  -6   1   6   41.64    2.28   1-0.63610-0.84985 0.31026 0.52647-0.70647-0.02391
   6  -1  -5    1.24    0.72   1-0.47342-0.25240-0.70668-0.96184 0.52579-0.10560
  -6   1   5    1.19    0.74   1 0.00025-0.22048-1.00000-0.74392-0.00028 0.63083
  -6   1   5    1.30    0.45   1-0.65213-0.87194 0.22395 0.48067-0.72426-0.09305
   6  -1  -5    1.29    0.72   1 0.00123 0.22132 0.99999 0.74382 0.00137-0.63067
   6  -1  -4   15.05    1.09   1-0.49900-0.27191-0.66622-0.96197 0.55420-0.02593
  -6   1   4   14.96    1.33   1-0.06589-0.29265-0.99514-0.69852 0.07318 0.65300
  -6   1   4   14.83    1.17   1-0.66247-0.88709 0.14066 0.43501-0.73575-0.15434
   6  -1  -4   11.89    1.64   1-0.12682 0.09926 0.98187 0.68510-0.14085-0.72165
   6  -1  -3   29.27    1.43   1-0.52592-0.29276-0.61823-0.95458 0.58410 0.05521
  -6   1   3   28.38    1.58   1-0.13061-0.36340-0.98076-0.64359 0.14505 0.67358
  -6   1   3   29.27    1.71   1-0.66838-0.89933 0.04730 0.38236-0.74231-0.21213
   6  -1  -3   29.52    1.59   1-0.24977-0.01768 0.92772 0.59035-0.27739-0.80694
   6  -1  -2    3.57    0.77   1-0.55319-0.31396-0.56258-0.93953 0.61438 0.13675
  -6   1   2    4.07    0.67   1-0.19251-0.43133-0.95771-0.58000 0.21381 0.69104
  -6   1   2    3.68    0.59   1-0.66848-0.90576-0.04385 0.33190-0.74242-0.26348
   6  -1  -2    3.47    0.60   1-0.36003-0.12201 0.84290 0.46463-0.39985-0.87705
   6  -1  -1   19.92    1.18   1-0.57968-0.33439-0.49946-0.91700 0.64381 0.21743
  -6   1   1   18.92    1.14   1-0.25035-0.49519-0.92736-0.50910 0.27804 0.70398
  -6   1   1   18.18    1.15   1-0.66340-0.90702-0.13048 0.28596-0.73679-0.30907
   6  -1  -1   17.10    1.29   1-0.44846-0.20438 0.74216 0.32336-0.49807-0.92393
   6  -1   0   -0.02    0.66   1-0.60428-0.35291-0.42946-0.88760 0.67112 0.29599
  -6   1   0    0.17    0.46   1-0.30309-0.55396-0.89153-0.43272 0.33661 0.71125
  -6   1   0    0.02    0.35   1-0.65401-0.90396-0.21133 0.24582-0.72636-0.34988
   6  -1   0    0.13    0.63   1-0.51595-0.26581 0.63672 0.17741-0.57302-0.94755
   6  -1   1   21.67    1.30   1-0.62591-0.36848-0.35353-0.85227 0.69515 0.37128
  -6   1  -1   19.81    1.18   1-0.35004-0.60694-0.85225-0.35289 0.38876 0.71210
  -6   1  -1   22.09    1.16   1-0.64118-0.89746-0.28597 0.21187-0.71210-0.38686
   6  -1   1   21.11    1.35   1-0.56482-0.30861 0.53615 0.03632-0.62730-0.95049
   6  -1   2   20.29    1.24   1-0.64372-0.38022-0.27294-0.81227 0.71492 0.44230
  -6   1  -2   19.42    1.37   1-0.39089-0.65382-0.81161-0.27171 0.43413 0.70617
  -6   1  -2   20.93    1.19   1-0.62566-0.88827-0.35455 0.18399-0.69486-0.42085
   6  -1   2   19.66    1.17   1-0.59884-0.33656 0.44615-0.09419-0.66508-0.93693
   6  -1   3    0.65    0.50   1-0.65606-0.38402-0.19663-0.77396 0.72863 0.50348
  -6   1  -3    1.13    0.71   1-0.42490-0.69447-0.77250-0.19257 0.47190 0.69327
  -6   1  -3    0.75    0.61   1-0.60802-0.87696-0.41749 0.16176-0.67527-0.45250
   6  -1   3    0.77    0.49   1-0.62186-0.35351 0.36918-0.21167-0.69064-0.91116
   6  -1   4    3.05    0.61   1-0.66498-0.38659-0.11112-0.72936 0.73854 0.56442
  -6   1  -4    2.36    0.57   1-0.45396-0.72959-0.73466-0.11413 0.50417 0.67428
  -6   1  -4    2.86    0.52   1-0.58871-0.86398-0.47531 0.14464-0.65383-0.48228
   6  -1   4    2.31    0.55   1-0.63711-0.36270 0.30560-0.31577-0.70759-0.87677
   6  -1   5   18.78    1.49   1-0.66891-0.38417-0.02512-0.68426 0.74291 0.61982
  -6   1  -5   18.83    1.66   1-0.47772-0.75942-0.70020-0.03907 0.53056 0.64942
  -6   1  -5   18.29    1.46   1-0.56803-0.85006-0.52851 0.13160-0.63087-0.50997
   6  -1   6   -0.04    0.58   1-0.66791-0.37682 0.06017-0.63987 0.74179 0.66975
  -6   1  -6   -0.34    0.57   1-0.49674-0.78451-0.66998 0.03173 0.55169 0.61929
  -6   1  -6   -0.12    0.73   1-0.54619-0.83458-0.57766 0.12319-0.60661-0.53692
   6  -1   6    0.00    0.53   1-0.65326-0.36532 0.21644-0.48491-0.72552-0.79460
   6  -1   7   11.82    1.25   1-0.66217-0.36473 0.14379-0.59715 0.73542 0.71441
  -6   1  -7   11.53    1.37   1-0.51160-0.80544-0.64452 0.09779 0.56819 0.58454
  -6   1  -7   12.06    1.19   1-0.52333-0.81809-0.62313 0.11845-0.58122-0.56275
   6  -1   7   10.04    1.48   1-0.65739-0.36312 0.18644-0.55561-0.73011-0.74795
   6  -1   8    5.40    0.80   1-0.65197-0.34817 0.22499-0.55685 0.72409 0.75411
  -6   1  -8    5.34    0.79   1-0.52283-0.82274-0.62406 0.15884 0.58067 0.54576
  -6   1  -8    5.71    0.72   1-0.49955-0.80067-0.66529 0.11702-0.55481-0.58756
   6  -1   8    4.63    0.95   1-0.65994-0.35934 0.16510-0.61765-0.73294-0.69955
   6  -1   9    3.46    0.81   1-0.63762-0.32747 0.30323-0.51951 0.70815 0.78921
  -6   1  -9    3.93    0.79   1-0.53090-0.83687-0.60867 0.21484 0.58962 0.50347
  -6   1  -9    3.11    0.95   1-0.47490-0.78238-0.70446 0.11858-0.52744-0.61140
   6  -1   9    3.27    0.73   1-0.66143-0.35449 0.15124-0.67221-0.73459-0.64996
   6   0 -10    4.11    0.78   1-0.31160-0.04903 0.88495 0.85154 0.34606-0.52198
   6   0 -10    4.48    0.79   1-0.36131-0.09643-0.84167-0.88010 0.40128-0.46488
   6   0  -9    8.41    1.05   1-0.25859 0.01028 0.92230 0.84813 0.28719-0.52968
   6   0  -9    9.76    1.10   1-0.37202-0.10111-0.83119-0.91017 0.41317-0.40170
   6   0  -8    1.37    0.85   1-0.38632-0.10938-0.81649-0.93601 0.42905-0.33452
  -6   0   8    1.41    0.67   1 0.19871-0.07843-0.95488-0.83585-0.22070 0.54332
   6   0  -7    1.64    0.58   1-0.40336-0.12021-0.79787-0.95687 0.44798-0.26445
  -6   0   7    1.48    0.64   1 0.14030-0.14284-0.97776-0.81818-0.15582 0.55693
  -6   0   7    1.31    0.64   1-0.33287-0.61292-0.86747-0.71109-0.36970 0.34447
  -6   0   7    1.11    0.50   1-0.65659-0.93661 0.19265 0.35001-0.72922-0.01544
   6   0  -6    1.24    0.74   1-0.42459-0.13538-0.77288-0.97247 0.47156-0.18962
  -6   0   6    0.77    0.57   1 0.07929-0.20969-0.99295-0.79233-0.08806 0.57291
  -6   0   6    0.94    0.52   1-0.66596-0.95231 0.09713 0.29520-0.73962-0.07709
   6   0  -5    0.30    0.49   1-0.44885-0.15356-0.74164-0.98183 0.49849-0.11143
  -6   0   5    0.23    0.53   1 0.01787-0.27714-0.99964-0.75847-0.01984 0.58983
  -6   0   5    0.28    0.48   1-0.66913-0.96181 0.00108 0.23985-0.74314-0.13184
   6   0  -4    3.35    0.73   1-0.47558-0.17423-0.70344-0.98423 0.52819-0.03048
  -6   0   4    3.22    0.60   1-0.04366-0.34470-0.99786-0.71615 0.04849 0.60687
  -6   0   4    3.43    0.55   1-0.66637-0.96538-0.09072 0.18873-0.74008-0.18001
   6   0  -4    2.44    0.92   1-0.11434 0.18602 0.98529 0.70321-0.12699-0.68621
   6   0  -3    2.05    0.50   1-0.50404-0.19663-0.65768-0.97907 0.55980 0.05237
  -6   0   3    2.43    0.56   1-0.10421-0.41127-0.98779-0.66553 0.11573 0.62282
  -6   0   3    1.95    0.51   1-0.65873-0.96408-0.17556 0.14460-0.73160-0.22276
   6   0  -3    1.70    0.45   1-0.26493 0.04143 0.91828 0.59561-0.29423-0.80220
   6   0  -2   11.41    0.82   1-0.53327-0.21978-0.60402-0.96600 0.59226 0.13608
  -6   0   2   11.74    1.00   1-0.16261-0.47570-0.97002-0.60721 0.18060 0.63639
  -6   0   2   11.20    0.95   1-0.64743-0.95911-0.25255 0.10830-0.71905-0.26145
   6   0  -2   10.90    1.12   1-0.39192-0.07957 0.81051 0.44702-0.43527-0.89097
   6   0  -1    9.44    0.70   1-0.56214-0.24259-0.54240-0.94499 0.62432 0.21940
  -6   0   1    9.64    0.74   1-0.21777-0.53688-0.94555-0.54220 0.24185 0.64634
  -6   0   1   10.02    0.75   1-0.63348-0.95150-0.32202 0.07953-0.70355-0.29719
   6   0  -1    8.06    1.11   1-0.48616-0.16775 0.68709 0.28308-0.53994-0.94430
   6   0   0   11.61    0.83   1-0.58946-0.26384-0.47321-0.91639 0.65467 0.30100
  -6   0   0   11.55    0.85   1-0.26871-0.59386-0.91582-0.47191 0.29843 0.65163
  -6   0   0   12.24    0.80   1-0.61760-0.94195-0.38480 0.05746-0.68592-0.33079
   6   0   0   11.23    1.28   1-0.55216-0.22769 0.56483 0.12031-0.61324-0.96627
   6   0   1   22.11    1.17   1-0.61407-0.28238-0.39723-0.88100 0.68199 0.37958
  -6   0  -1   22.85    1.28   1-0.31473-0.64590-0.88247-0.39801 0.34955 0.65144
  -6   0  -1   23.78    1.22   1-0.60028-0.93096-0.44180 0.04115-0.66668-0.36278
   6   0   1   22.40    1.33   1-0.59601-0.26547 0.45451-0.03052-0.66194-0.96363
   6   0   2    1.59    0.51   1-0.63493-0.29717-0.31560-0.83998 0.70516 0.45400
  -6   0  -2    1.96    0.54   1-0.35540-0.69260-0.84728-0.32227 0.39471 0.64531
  -6   0  -2    2.71    0.70   1-0.58182-0.91883-0.49389 0.02977-0.64618-0.39351
   6   0   3    6.86    0.75   1-0.65122-0.30740-0.22976-0.79473 0.72326 0.52335
  -6   0  -3    6.57    0.91   1-0.39058-0.73381-0.81195-0.24640 0.43379 0.63309
  -6   0  -3    7.97    0.79   1-0.56239-0.90606-0.54183 0.02185-0.62460-0.42258
   6   0   4   19.51    1.52   1-0.66166-0.30903-0.14893-0.75208 0.73485 0.58212
  -6   0  -4   19.90    1.58   1-0.41960-0.76949-0.77894-0.17338 0.46601 0.61466
  -6   0  -4   20.90    1.66   1-0.54214-0.89217-0.58611 0.01830-0.60211-0.45131
   6   0   4   17.74    1.65   1-0.65194-0.30227 0.22518-0.37988-0.72405-0.87425
   6   0   5   22.31    1.34   1-0.66795-0.30896-0.05934-0.70339 0.74183 0.64014
  -6   0  -5   22.38    1.36   1-0.44436-0.80032-0.74764-0.10148 0.49351 0.59091
  -6   0  -5   23.39    1.40   1-0.52113-0.87752-0.62724 0.01791-0.57878-0.47918
   6   0   5   19.75    1.66   1-0.65848-0.30248 0.17764-0.46811-0.73132-0.83028
   6   0   6   10.90    1.14   1-0.66882-0.30349 0.03010-0.65484 0.74280 0.69214
  -6   0  -6   10.20    1.10   1-0.46446-0.82648-0.71985-0.03308 0.51583 0.56198
  -6   0  -6    9.75    1.06   1-0.49939-0.86214-0.66557 0.02030-0.55462-0.50625
   6   0   6    9.25    1.05   1-0.66234-0.30000 0.14205-0.54440-0.73560-0.78333
   6   0   7    2.58    0.71   1-0.66443-0.29275 0.11823-0.60761 0.73793 0.73830
  -6   0  -7    2.11    0.93   1-0.48034-0.84844-0.69617 0.03118 0.53347 0.52836
  -6   0  -7    2.51    0.91   1-0.47692-0.84604-0.70141 0.02520-0.52967-0.53251
   6   0   7    2.43    0.65   1-0.66456-0.29589 0.11655-0.61061-0.73808-0.73457
   6   0   8    3.11    0.74   1-0.65504-0.27700 0.20411-0.56264 0.72750 0.77890
  -6   0  -8    4.01    0.76   1-0.49247-0.86663-0.67699 0.09096 0.54694 0.49058
  -6   0  -8    4.03    0.73   1-0.45374-0.82922-0.73496 0.03238-0.50392-0.55798
   6   0   8    3.13    0.91   1-0.66580-0.29080 0.09957-0.66828-0.73945-0.68471
   6   0   9    0.43    0.75   1-0.64097-0.25658 0.28703-0.52062 0.71187 0.81431
  -6   0  -9    0.42    0.71   1-0.50124-0.88147-0.66246 0.14609 0.55668 0.44906
  -6   0  -9    0.04    0.95   1-0.42982-0.81166-0.76640 0.04167-0.47736-0.58263
   6   0   9   -0.07    0.91   1-0.66642-0.28508 0.08984-0.71872-0.74013-0.63416
   6   1 -10    0.91    0.74   1-0.31246 0.02437 0.88427 0.86584 0.34702-0.49972
   6   1 -10    0.78    0.98   1-0.34041-0.00126-0.86091-0.88443 0.37807-0.46665
   6   1  -9    9.75    1.16   1-0.26303 0.08011 0.91949 0.86030 0.29212-0.50345
   6   1  -9    8.49    1.03   1-0.35137-0.00619-0.85102-0.91509 0.39024-0.40318
   6   1  -8    1.09    0.62   1-0.36591-0.01471-0.83722-0.94184 0.40639-0.33573
  -6  -1   8    1.35    0.68   1 0.20732-0.14405-0.95078-0.84666-0.23025 0.51224
   6   1  -7    5.92    1.00   1-0.38403-0.02680-0.81889-0.96406 0.42651-0.26431
  -6  -1   7    5.12    0.74   1 0.15323-0.20414-0.97342-0.82875-0.17018 0.52105
   6   1  -6   17.16    1.11   1-0.40480-0.04133-0.79624-0.98088 0.44957-0.19014
  -6  -1   6   17.06    1.27   1 0.09748-0.26589-0.98933-0.80410-0.10826 0.53171
  -6  -1   6   15.06    1.60   1-0.40535-0.76614-0.79562-0.61347-0.45019 0.19149
   6   1  -5    6.42    0.89   1-0.42956-0.06002-0.76672-0.99196 0.47707-0.11139
  -6  -1   5    5.58    0.70   1 0.04003-0.32925-0.99820-0.77194-0.04446 0.54377
  -6  -1   5    3.58    0.60   1-0.61282-0.97990-0.40153-0.17765-0.68060-0.09064
   6   1  -4   47.11    2.57   1-0.45702-0.08141-0.73040-0.99623 0.50757-0.02964
  -6  -1   4   48.39    2.85   1-0.01702-0.39234-0.99967-0.73286 0.01891 0.55585
  -6  -1   4   35.74    2.28   1-0.60377-0.97719-0.43105-0.16648-0.67055-0.13183
   6   1  -4   28.25    3.57   1-0.06957 0.30508 0.99457 0.72719-0.07726-0.61490
   6   1  -3    1.17    0.49   1-0.48649-0.10482-0.68657-0.99300 0.54030 0.05434
  -6  -1   3    1.24    0.54   1-0.07345-0.45479-0.99395-0.68660 0.08157 0.56722
  -6  -1   3    0.92    0.38   1-0.59266-0.97241-0.46421-0.15894-0.65822-0.17073
   6   1  -3    1.30    0.51   1-0.27153 0.10912 0.91396 0.60598-0.30156-0.78795
   6   1  -2   13.05    0.98   1-0.51707-0.12932-0.63470-0.98173 0.57426 0.13955
  -6  -1   2   12.98    1.10   1-0.12828-0.51565-0.98145-0.63354 0.14247 0.57682
  -6  -1   2   11.71    0.91   1-0.58009-0.96617-0.49841-0.15244-0.64425-0.20800
   6   1  -2   13.72    1.41   1-0.42290-0.03622 0.77495 0.42625-0.46968-0.90387
   6   1  -1   38.95    1.91   1-0.54765-0.15384-0.57456-0.96218 0.60823 0.22477
  -6  -1   1   39.10    1.98   1-0.18056-0.57396-0.96290-0.57445 0.20054 0.58358
  -6  -1   1   31.01    1.86   1-0.56615-0.95873-0.53302-0.14722-0.62877-0.24320
   6   1  -1   34.87    2.13   1-0.52253-0.12978 0.62464 0.23543-0.58032-0.96318
   6   1   0    2.39    0.70   1-0.57702-0.17714-0.50631-0.93453 0.64084 0.30864
  -6  -1   0    2.54    0.76   1-0.22943-0.62885-0.93937-0.51037 0.25481 0.58656
  -6  -1   0    1.97    0.70   1-0.55136-0.95031-0.56657-0.14004-0.61235-0.27799
   6   1   0    1.81    0.56   1-0.58474-0.18592 0.48613 0.05640-0.64942-0.98094
   6   1   1   14.92    1.06   1-0.60393-0.19798-0.43055-0.89937 0.67073 0.38978
  -6  -1  -1   14.18    1.19   1-0.27417-0.67962-0.91219-0.44265 0.30450 0.58495
  -6  -1  -1   14.09    1.07   1-0.53563-0.94094-0.59934-0.13208-0.59487-0.31173
   6   1   1   14.37    1.13   1-0.62191-0.21703 0.36896-0.10128-0.69071-0.97089
   6   1   2   -0.13    0.67   1-0.62723-0.21521-0.34830-0.85771 0.69661 0.46691
  -6  -1  -2    0.20    0.52   1-0.31429-0.72576-0.88282-0.37272 0.34906 0.57821
  -6  -1  -2    0.08    0.75   1-0.51900-0.93067-0.63117-0.12318-0.57641-0.34448
   6   1   2   -0.13    0.53   1-0.64343-0.23248 0.27445-0.23630-0.71460-0.94345
   6   1   3    8.54    1.02   1-0.64595-0.22787-0.26091-0.81092 0.71740 0.53896
  -6  -1  -3    8.64    0.91   1-0.34953-0.76703-0.85272-0.30207 0.38819 0.56605
  -6  -1  -3    9.05    0.97   1-0.50151-0.91955-0.66199-0.11326-0.55699-0.37628
   6   1   3    8.51    1.01   1-0.65513-0.23739 0.20343-0.34604-0.72760-0.90768
   6   1   4    4.42    0.81   1-0.65847-0.23160-0.17771-0.76576 0.73131 0.59997
  -6  -1  -4    3.92    0.85   1-0.37983-0.80335-0.82326-0.23207 0.42184 0.54840
  -6  -1  -4    4.70    0.71   1-0.48321-0.90761-0.69173-0.10228-0.53666-0.40716
   6   1   4    4.07    0.60   1-0.66192-0.23785 0.14638-0.44379-0.73514-0.86398
   6   1   5    0.02    0.79   1-0.66671-0.23348-0.08497-0.71392 0.74045 0.66014
  -6  -1  -5    0.01    0.57   1-0.40453-0.83475-0.79655-0.16535 0.44927 0.52521
  -6  -1  -5    0.20    0.62   1-0.46409-0.89485-0.72037-0.09019-0.51543-0.43714
   6   1   5    0.19    0.63   1-0.66550-0.23510 0.10392-0.52694-0.73912-0.81673
   6   1   6    0.13    0.84   1-0.66910-0.22953 0.00823-0.66162 0.74312 0.71384
  -6  -1  -6    0.16    0.86   1-0.42552-0.86181-0.77173-0.09993 0.47259 0.49728
  -6  -1  -6    0.66    0.65   1-0.44417-0.88130-0.74789-0.07697-0.49331-0.46623
   6   1   6    1.04    0.79   1-0.66732-0.23058 0.07345-0.59811-0.74113-0.76751
   6   1   7    6.05    1.01   1-0.66573-0.21980 0.10055-0.61020 0.73937 0.76113
  -6  -1  -7    5.54    0.76   1-0.44231-0.88466-0.75035-0.03795 0.49124 0.46467
  -6  -1  -7    5.86    1.03   1-0.42346-0.86694-0.77427-0.06261-0.47030-0.49444
   6   1   7    5.56    0.71   1-0.66819-0.22512 0.05282-0.65944-0.74210-0.71725
   6   1   8    0.09    0.84   1-0.65683-0.20455 0.19085-0.56080 0.72948 0.80227
  -6  -1  -8   -0.32    0.66   1-0.45524-0.90366-0.73288 0.02010 0.50559 0.42777
  -6  -1  -8    0.49    0.68   1-0.40194-0.85179-0.79948-0.04709-0.44640-0.52175
   6   1   8    0.25    0.62   1-0.66858-0.21918 0.04037-0.71260-0.74253-0.66645
   6   2 -10    9.13    0.96   1-0.31791 0.09318 0.87992 0.87646 0.35308-0.47236
   6   2 -10    8.56    1.00   1-0.32529 0.08813-0.87387-0.88248 0.36127-0.46200
   6   2  -9    6.23    1.14   1-0.27200 0.14540 0.91364 0.86942 0.30209-0.47218
   6   2  -9    6.40    1.13   1-0.33649 0.08295-0.86435-0.91351 0.37372-0.39826
   6   2  -8    6.02    0.74   1-0.35124 0.07423-0.85114-0.94085 0.39010-0.33058
   6   2  -7   11.06    0.85   1-0.36956 0.06194-0.83364-0.96390 0.41044-0.25895
  -6  -2   7   10.30    1.14   1 0.17044-0.26115-0.96701-0.83725-0.18930 0.48042
   6   2  -6    3.77    0.86   1-0.39134 0.04618-0.81113-0.98194 0.43463-0.18345
  -6  -2   6    5.27    1.02   1 0.11908-0.31852-0.98403-0.81371-0.13225 0.48621
   6   2  -5    2.48    0.56   1-0.41558 0.02821-0.78375-0.99402 0.46154-0.10546
  -6  -2   5    1.84    0.85   1 0.06618-0.37737-0.99509-0.78374-0.07350 0.49328
   6   2  -4    0.25    0.48   1-0.44346 0.00639-0.74883-0.99970 0.49252-0.02323
  -6  -2   4    0.22    0.57   1 0.01351-0.43607-0.99979-0.74789-0.01500 0.50049
   6   2  -3   -0.17    0.64   1-0.47356-0.01762-0.70648-0.99795 0.52594 0.06143
  -6  -2   3    0.11    0.54   1-0.03878-0.49439-0.99831-0.70586 0.04306 0.50726
  -6  -2   3    0.20    0.39   1-0.41375-0.86798-0.78590-0.49653-0.45951 0.00718
   6   2  -3    0.26    0.38   1-0.25913 0.19581 0.92196 0.62868-0.28779-0.75260
   6   2  -2    4.22    0.66   1-0.50500-0.04300-0.65604-0.98810 0.56086 0.14761
  -6  -2   2    4.76    0.66   1-0.08990-0.55154-0.99093-0.65793 0.09985 0.51275
  -6  -2   2    3.12    0.57   1-0.44506-0.90565-0.74671-0.41661-0.49429-0.07881
   6   2  -1    1.20    0.48   1-0.53674-0.06867-0.59711-0.96977 0.59611 0.23412
  -6  -2   1    1.45    0.56   1-0.13906-0.60673-0.97816-0.60461 0.15444 0.51605
  -6  -2   1    0.85    0.52   1-0.45393-0.92088-0.73469-0.36386-0.50414-0.13987
   6   2   0    9.11    0.81   1-0.56755-0.09341-0.52968-0.94294 0.63033 0.31959
  -6  -2   0   10.09    0.91   1-0.18548-0.65918-0.96081-0.54671 0.20600 0.51631
  -6  -2   0    6.28    0.72   1-0.45341-0.92672-0.73542-0.32385-0.50356-0.19051
   6   2   1    6.67    0.71   1-0.59614-0.11594-0.45414-0.90800 0.66208 0.40259
  -6  -2  -1    6.51    0.86   1-0.22850-0.70822-0.93988-0.48524 0.25378 0.51279
  -6  -2  -1    5.03    0.72   1-0.44766-0.92734-0.74324-0.29094-0.49718-0.23534
   6   2   2    6.13    0.74   1-0.62127-0.13500-0.37139-0.86584 0.68999 0.48175
  -6  -2  -2    6.47    0.81   1-0.26759-0.75334-0.91655-0.42136 0.29719 0.50490
  -6  -2  -2    5.18    0.86   1-0.43851-0.92455-0.75532-0.26229-0.48701-0.27639
   6   2   2    6.15    0.82   1-0.65631-0.17050 0.19481-0.29906-0.72890-0.93887
   6   2   3   10.21    0.84   1-0.64184-0.14950-0.28267-0.81772 0.71283 0.55585
  -6  -2  -3   10.68    1.36   1-0.30240-0.79417-0.89205-0.35631 0.33585 0.49226
  -6  -2  -3   11.42    1.20   1-0.42690-0.91930-0.77003-0.23628-0.47412-0.31471
   6   2   3   10.95    1.00   1-0.66386-0.17172 0.12515-0.40942-0.73730-0.89603
   6   2   4    1.47    0.56   1-0.65596-0.15485-0.19736-0.77032 0.72852 0.61856
  -6  -2  -4    2.37    0.84   1-0.33275-0.83055-0.86757-0.29129 0.36956 0.47468
  -6  -2  -4    2.29    0.70   1-0.41336-0.91213-0.78636-0.21187-0.45908-0.35089
   6   2   4    1.81    0.73   1-0.66729-0.16882 0.07392-0.50135-0.74111-0.84861
   6   2   5    8.10    1.12   1-0.66565-0.15819-0.10173-0.71559 0.73928 0.68036
  -6  -2  -5    7.47    0.94   1-0.35865-0.86247-0.84422-0.22738 0.39832 0.45214
  -6  -2  -5    8.68    1.09   1-0.39822-0.90335-0.80362-0.18840-0.44227-0.38529
   6   2   5    7.50    0.93   1-0.66866-0.16386 0.03726-0.57871-0.74262-0.79889
   6   2   6    6.79    0.98   1-0.66912-0.15530-0.00500-0.65976 0.74313 0.73524
  -6  -2  -6    6.50    0.98   1-0.38019-0.89004-0.82290-0.16551 0.42224 0.42476
  -6  -2  -6    7.69    1.33   1-0.38170-0.89319-0.82133-0.16538-0.42392-0.41815
   6   2   6    6.54    0.94   1-0.66908-0.15794 0.01219-0.64448-0.74308-0.74812
   6   2   7    8.48    1.25   1-0.66633-0.14616 0.09130-0.60436 0.74004 0.78318
  -6  -2  -7    7.96    1.00   1-0.39757-0.91345-0.80433-0.10641 0.44155 0.39277
  -6  -2  -7   10.07    1.20   1-0.36392-0.88177-0.83916-0.14248-0.40417-0.44962
   6   2   7    7.58    1.18   1-0.66912-0.15165-0.00352-0.70090-0.74313-0.69694
   6   2   8    3.48    1.06   1-0.65746-0.13094 0.18588-0.55069 0.73019 0.82437
  -6  -2  -8    3.51    0.74   1-0.41023-0.93291-0.79001-0.05197 0.45561 0.35632
  -6  -2  -8    4.24    1.01   1-0.34498-0.86920-0.85684-0.11942-0.38314-0.47981
   6   2   8    3.52    0.95   1-0.66908-0.14528-0.01159-0.74967-0.74309-0.64566
   6   3  -9    1.71    1.15   1-0.28489 0.20678 0.90483 0.87558 0.31640-0.43656
   6   3  -9    1.65    0.94   1-0.32699 0.16673-0.87246-0.90671 0.36316-0.38738
   6   3  -8    2.37    0.83   1-0.24063 0.25736 0.93309 0.86308 0.26725-0.43455
   6   3  -8    2.56    0.90   1-0.34194 0.15780-0.85956-0.93436 0.37977-0.31947
   6   3  -7   10.63    1.26   1-0.36042 0.14535-0.84253-0.95788 0.40029-0.24765
  -6  -3   7   10.99    1.38   1 0.19136-0.31446-0.95823-0.84338-0.21253 0.43568
   6   3  -6    1.80    0.77   1-0.38235 0.12945-0.82065-0.97655 0.42465-0.17199
  -6  -3   6    0.54    0.66   1 0.14426-0.36756-0.97648-0.82107-0.16022 0.43672
   6   3  -5    3.08    0.58   1-0.40674 0.11131-0.79403-0.98934 0.45173-0.09381
  -6  -3   5    3.81    0.77   1 0.09630-0.42151-0.98958-0.79362-0.10696 0.43872
   6   3  -4   17.02    1.17   1-0.43485 0.08926-0.76003-0.99594 0.48295-0.01133
  -6  -3   4   18.34    1.45   1 0.04749-0.47636-0.99747-0.76048-0.05275 0.44130
   6   3  -3    7.13    0.78   1-0.46528 0.06490-0.71865-0.99516 0.51675 0.07371
  -6  -3   3    7.46    0.99   1-0.00060-0.53049-1.00000-0.72245 0.00067 0.44343
   6   3  -2   33.67    2.33   1-0.49723 0.03901-0.66916-0.98627 0.55223 0.16045
  -6  -3   2   34.31    2.49   1-0.04786-0.58378-0.99743-0.67934 0.05316 0.44462
   6   3  -1    0.78    0.48   1-0.52968 0.01264-0.61104-0.96874 0.58827 0.24773
  -6  -3   1    0.83    0.57   1-0.09361-0.63555-0.99016-0.63152 0.10396 0.44412
  -6  -3   1    0.93    0.50   1-0.30307-0.84440-0.89153-0.53567-0.33660 0.00635
   6   3   0    8.47    0.85   1-0.56141-0.01301-0.54410-0.94240 0.62351 0.33423
  -6  -3   0    7.97    0.89   1-0.13717-0.68514-0.97876-0.57957 0.15235 0.44121
  -6  -3   0    6.79    1.00   1-0.33003-0.87771-0.86990-0.47330-0.36653-0.07479
   6   3   1   31.47    1.66   1-0.59112-0.03665-0.46859-0.90748 0.65650 0.41847
  -6  -3  -1   31.69    1.91   1-0.17795-0.73195-0.96398-0.52424 0.19764 0.43520
  -6  -3  -1   23.42    1.64   1-0.34159-0.89564-0.85987-0.42254-0.37937-0.13884
   6   3   1   29.69    1.99   1-0.65489-0.10101 0.20518-0.23310-0.72733-0.96719
   6   3   2    1.16    0.52   1-0.61748-0.05696-0.38522-0.86471 0.68579 0.49901
  -6  -3  -2    1.33    0.59   1-0.21543-0.77545-0.94675-0.46647 0.23926 0.42553
  -6  -3  -2    0.65    0.79   1-0.34447-0.90488-0.85729-0.37924-0.38258-0.19326
   6   3   2    1.26    0.51   1-0.66447-0.10427 0.11769-0.36129-0.73798-0.92660
   6   3   3    7.21    0.86   1-0.63931-0.07272-0.29516-0.81525 0.71003 0.57451
  -6  -3  -3    6.79    0.87   1-0.24920-0.81525-0.92806-0.40722 0.27677 0.41174
  -6  -3  -3    5.79    1.13   1-0.34177-0.90854-0.85971-0.34092-0.37957-0.24147
   6   3   3    7.53    0.88   1-0.66813-0.10159 0.05461-0.46507-0.74203-0.87942
   6   3   4    0.23    0.55   1-0.65452-0.07916-0.20779-0.76566 0.72692 0.63835
  -6  -3  -4    0.58    0.81   1-0.27900-0.85108-0.90891-0.34754 0.30987 0.39354
  -6  -3  -4    0.22    0.98   1-0.33513-0.90826-0.86553-0.30601-0.37220-0.28531
   6   3   4    0.13    0.73   1-0.66909-0.09622 0.00987-0.55051-0.74310-0.82926
   6   3   5    3.00    0.66   1-0.66511-0.08340-0.10935-0.70811 0.73868 0.70115
  -6  -3  -5    2.50    0.66   1-0.30471-0.88281-0.89029-0.28836 0.33841 0.37079
  -6  -3  -5    2.85    0.98   1-0.32551-0.90501-0.87369-0.27343-0.36152-0.32585
   6   3   5    2.77    0.62   1-0.66898-0.08978-0.02084-0.62193-0.74298-0.77790
   6   3   6    0.18    0.90   1-0.66910-0.08104-0.00915-0.64882 0.74311 0.75660
  -6  -3  -6   -0.33    0.75   1-0.32629-0.91042-0.87304-0.23056 0.36238 0.34346
  -6  -3  -6    0.42    0.78   1-0.31353-0.89939-0.88342-0.24244-0.34821-0.36375
   6   3   6   -0.15    0.58   1-0.66857-0.08304-0.04064-0.68243-0.74253-0.72621
   6   3   7    0.06    0.97   1-0.66634-0.07193 0.09111-0.58946 0.74005 0.80458
  -6  -3  -7   -0.00    0.88   1-0.34382-0.93397-0.85789-0.17486 0.38185 0.31163
  -6  -3  -7   -0.10    0.79   1-0.29956-0.89178-0.89418-0.21246-0.33270-0.39945
   6   3   7    0.71    0.63   1-0.66823-0.07636-0.05173-0.73422-0.74215-0.67460
   6   4  -8    7.60    1.13   1-0.26062 0.31164 0.92102 0.86599 0.28944-0.39105
   6   4  -8    6.81    1.09   1-0.33763 0.23639-0.86336-0.92326 0.37497-0.30282
   6   4  -7    5.70    0.72   1-0.35627 0.22378-0.84646-0.94691 0.39568-0.23082
  -6  -4   7    5.69    0.86   1 0.21549-0.36455-0.94672-0.84678-0.23933 0.38736
   6   4  -6    6.19    0.88   1-0.37832 0.20776-0.82482-0.96581 0.42016-0.15503
  -6  -4   6    6.17    1.10   1 0.17256-0.41348-0.96617-0.82567-0.19165 0.38378
   6   4  -5    8.22    0.72   1-0.40360 0.18850-0.79761-0.97915 0.44824-0.07566
  -6  -4   5    8.50    0.89   1 0.12891-0.46313-0.98126-0.80021-0.14317 0.38100
   6   4  -4    9.00    1.08   1-0.43099 0.16738-0.76492-0.98587 0.47867 0.00583
  -6  -4   4    8.53    1.05   1 0.08451-0.51361-0.99199-0.76990-0.09386 0.37874
   6   4  -3    2.19    0.54   1-0.46156 0.14287-0.72399-0.98554 0.51262 0.09104
  -6  -4   3    2.49    0.66   1 0.04066-0.56349-0.99815-0.73551-0.04516 0.37615
   6   4  -2   -0.04    0.47   1-0.49373 0.11677-0.67492-0.97707 0.54835 0.17802
  -6  -4   2   -0.02    0.83   1-0.00254-0.61273-0.99999-0.69680 0.00283 0.37284
   6   4  -2    0.00    0.50   1 0.01848 0.62800 0.99961 0.69512 0.02053-0.34987
   6   4  -1    0.02    0.49   1-0.52652 0.09005-0.61710-0.95984 0.58476 0.26569
  -6  -4   1    0.12    0.58   1-0.04457-0.66078-0.99777-0.65404 0.04950 0.36822
   6   4   0    2.77    0.56   1-0.55874 0.06390-0.55020-0.93354 0.62054 0.35272
  -6  -4   0    2.40    0.63   1-0.08484-0.70708-0.99192-0.60764 0.09423 0.36165
   6   4   1    0.85    0.53   1-0.58906 0.03965-0.47433-0.89826 0.65422 0.43765
  -6  -4  -1    0.68    0.80   1-0.12283-0.75110-0.98300-0.55817 0.13642 0.35254
   6   4   1    0.92    0.52   1-0.66345-0.03517 0.13001-0.29338-0.73683-0.95534
   6   4   2    4.92    0.70   1-0.61612 0.01865-0.39005-0.85459 0.68428 0.51896
  -6  -4  -2    5.06    0.75   1-0.15804-0.79233-0.97170-0.50633 0.17552 0.34034
  -6  -4  -2    3.63    0.77   1-0.24265-0.87743-0.93192-0.46883-0.26949-0.10149
   6   4   2    4.81    0.67   1-0.66830-0.03369 0.04976-0.41433-0.74222-0.90950
   6   4   3    3.44    0.66   1-0.63863 0.00221-0.29842-0.80355 0.70928 0.59522
  -6  -4  -3    3.35    0.68   1-0.19005-0.83037-0.95881-0.45288 0.21107 0.32460
  -6  -4  -3    2.57    0.79   1-0.25025-0.89139-0.92742-0.42360-0.27794-0.16114
   6   4   3    4.03    0.85   1-0.66911-0.02818-0.00611-0.51090-0.74313-0.85917
   6   4   4    1.89    0.63   1-0.65437-0.00477-0.20885-0.75163 0.72675 0.65956
  -6  -4  -4    1.60    0.74   1-0.21855-0.86490-0.94515-0.39868 0.24272 0.30496
  -6  -4  -4    1.35    0.78   1-0.25155-0.89905-0.92664-0.38208-0.27937-0.21379
   6   4   4    1.58    0.59   1-0.66847-0.02120-0.04437-0.58986-0.74241-0.80722
   6   4   5    3.81    0.71   1-0.66525-0.00930-0.10743-0.69110 0.73884 0.72269
  -6  -4  -5    2.85    0.73   1-0.24331-0.89568-0.93154-0.34452 0.27022 0.28115
  -6  -4  -5    2.35    0.85   1-0.24825-0.90211-0.92863-0.34334-0.27570-0.26134
   6   4   5    3.86    0.77   1-0.66751-0.01391-0.06946-0.65566-0.74134-0.75492
   6   4   6    1.73    0.99   1-0.66912-0.00682-0.00362-0.62819 0.74313 0.77802
  -6  -4  -6    1.43    0.65   1-0.26419-0.92259-0.91875-0.29118 0.29341 0.25305
  -6  -4  -6    1.63    0.88   1-0.24142-0.90165-0.93264-0.30662-0.26812-0.30497
   6   4   6    1.81    0.88   1-0.66674-0.00680-0.08442-0.71132-0.74049-0.70283
   6   5  -7    3.16    0.90   1-0.24548 0.40736 0.93027 0.84944 0.27263-0.33539
   6   5  -7    2.23    0.65   1-0.35674 0.29758-0.84602-0.93156 0.39620-0.20886
   6   5  -6    4.36    0.87   1-0.37889 0.28145-0.82423-0.95031 0.42080-0.13295
  -6  -5   6    3.79    0.82   1 0.20357-0.45669-0.95259-0.82701-0.22609 0.32782
   6   5  -5    6.33    0.69   1-0.40341 0.26315-0.79781-0.96320 0.44804-0.05458
  -6  -5   5    5.83    1.12   1 0.16417-0.50209-0.96943-0.80329-0.18233 0.32032
   6   5  -4    1.10    0.75   1-0.43162 0.24100-0.76413-0.97011 0.47937 0.02800
  -6  -5   4    0.39    0.96   1 0.12451-0.54775-0.98253-0.77583-0.13828 0.31310
   6   5  -3    1.83    0.55   1-0.46219 0.21651-0.72310-0.96969 0.51331 0.11319
  -6  -5   3    1.55    0.69   1 0.08465-0.59377-0.99196-0.74423-0.09402 0.30585
   6   5  -2   10.57    0.78   1-0.49437 0.19040-0.67389-0.96107 0.54905 0.20018
  -6  -5   2   10.06    1.00   1 0.04567-0.63879-0.99766-0.70938-0.05072 0.29785
   6   5  -1    6.66    0.76   1-0.52721 0.16362-0.61579-0.94357 0.58552 0.28791
  -6  -5   1    4.82    0.99   1 0.00767-0.68281-0.99993-0.67110-0.00852 0.28875
   6   5   0   15.39    0.92   1-0.55954 0.13736-0.54838-0.91675 0.62143 0.37507
  -6  -5   0   13.33    0.97   1-0.02886-0.72538-0.99906-0.62969 0.03206 0.27803
   6   5   0   14.84    1.65   1-0.65896 0.03737 0.17363-0.19417-0.73185-0.98025
   6   5   1    0.85    0.58   1-0.59003 0.11293-0.47162-0.88060 0.65530 0.46019
  -6  -5  -1    0.67    0.86   1-0.06348-0.76602-0.99548-0.58556 0.07050 0.26518
   6   5   1    1.38    0.60   1-0.66768 0.03498 0.06557-0.34292-0.74154-0.93870
   6   5   2    4.19    0.68   1-0.61728 0.09176-0.38597-0.83554 0.68555 0.54170
  -6  -5  -2    4.06    0.71   1-0.09571-0.80428-0.98971-0.53924 0.10630 0.24968
   6   5   2    5.07    0.86   1-0.66911 0.03988-0.00685-0.45605-0.74312-0.88905
   6   5   3   16.95    1.56   1-0.63990 0.07521-0.29233-0.78250 0.71068 0.61808
  -6  -5  -3   15.00    1.71   1-0.12516-0.83975-0.98234-0.49133 0.13900 0.23109
   6   5   3   18.77    1.68   1-0.66808 0.04724-0.05573-0.54564-0.74198-0.83668
   6   5   4    0.39    0.65   1-0.65558 0.06825-0.20020-0.72788 0.72810 0.68229
  -6  -5  -4    0.59    0.63   1-0.15146-0.87208-0.97404-0.44247 0.16821 0.20900
   6   5   4    0.69    0.84   1-0.66653 0.05513-0.08805-0.61866-0.74025-0.78372
   6   6  -6    5.62    0.93   1-0.38374 0.35088-0.81920-0.93038 0.42619-0.10612
   6   6  -5    4.22    0.66   1-0.40829 0.33252-0.79225-0.94268 0.45346-0.02770
  -6  -6   5    4.01    0.85   1 0.20171-0.53877-0.95347-0.80225-0.22403 0.25711
   6   6  -4    4.78    0.95   1-0.43645 0.31043-0.75798-0.94901 0.48473 0.05482
  -6  -6   4    4.41    1.16   1 0.16639-0.58009-0.96858-0.77680-0.18480 0.24507
   6   6  -3    4.26    0.86   1-0.46689 0.28606-0.71631-0.94794 0.51854 0.13988
  -6  -6   3    4.68    0.88   1 0.13125-0.62123-0.98057-0.74823-0.14577 0.23284
   6   6  -2    8.85    0.99   1-0.49891 0.26010-0.66636-0.93858 0.55410 0.22670
  -6  -6   2    7.66    1.03   1 0.09664-0.66184-0.98951-0.71662-0.10733 0.22002
   6   6  -1    1.54    0.61   1-0.53157 0.23352-0.60736-0.92018 0.59037 0.31422
  -6  -6   1    1.63    0.96   1 0.06274-0.70201-0.99559-0.68167-0.06968 0.20614
   6   6   0   -0.17    0.59   1-0.56370 0.20746-0.53878-0.89220 0.62605 0.40115
  -6  -6   0    0.06    0.65   1 0.03037-0.74041-0.99896-0.64450-0.03373 0.19080
   6   6   1    0.53    0.60   1-0.59395 0.18327-0.46050-0.85451 0.65965 0.48601
  -6  -6  -1    0.20    0.93   1-0.00028-0.77709-1.00000-0.60498 0.00031 0.17354
   6   6   1    0.35    0.70   1-0.66906 0.10800 0.01416-0.37944-0.74307-0.91888
   6   6   1    0.21    0.84   1 0.00328 0.77936 0.99998 0.60311 0.00364-0.16984
   6   6   2    0.60    0.66   1-0.62089 0.16241-0.37281-0.80742 0.68957 0.56717
  -6  -6  -2    0.37    0.68   1-0.02880-0.81164-0.99907-0.56350 0.03198 0.15392
   6   6   2    0.62    0.65   1-0.66826 0.11514-0.05093-0.48524-0.74217-0.86676
   6   6   2    0.15    0.63   1 0.04268 0.82476 0.99796 0.56049 0.04740-0.07482
   7  -8  -2    5.82    1.16   1-0.66579-0.89066 0.09980-0.45191 0.73943 0.04993
  -7   8   2    5.86    0.73   1-0.20973 0.01716-0.94960-0.39356 0.23293 0.91913
  -7   8   2    6.40    0.81   1-0.62358-0.39533 0.36263 0.91851-0.69256-0.00599
   7  -8  -2    6.37    0.96   1-0.12865-0.35650 0.98134 0.42647-0.14289-0.83128
   7  -8  -1   14.84    1.49   1-0.66332-0.88184 0.13143-0.46119 0.73669 0.09822
  -7   8   1   15.79    1.59   1-0.28261-0.06174-0.90642-0.30983 0.31388 0.94878
  -7   8   1   15.51    1.54   1-0.63589-0.41371 0.31123 0.90763-0.70623-0.07101
   7  -8  -1   16.36    1.66   1-0.18113-0.40297 0.96266 0.36720-0.20117-0.83831
   7  -8   0    1.95    1.07   1-0.65983-0.87200 0.16611-0.46741 0.73281 0.14538
  -7   8   0    2.07    0.71   1-0.34507-0.13022-0.85676-0.21962 0.38324 0.96685
  -7   8   0    1.58    0.87   1-0.64693-0.43081 0.25542 0.89234-0.71849-0.13460
   7  -8   0    0.79    0.94   1-0.23064-0.44648 0.93871 0.30266-0.25615-0.84204
   7  -8   1    6.93    1.01   1-0.65517-0.86099 0.20314-0.47128 0.72764 0.19125
  -7   8  -1    6.79    0.86   1-0.39754-0.18871-0.80437-0.12669 0.44151 0.97382
  -7   8  -1    7.30    0.89   1-0.65586-0.44541 0.19812 0.87393-0.72841-0.19455
   7  -8   1    6.33    1.14   1-0.27658-0.48642 0.91057 0.23392-0.30718-0.84182
   7  -8   2    0.94    0.95   1-0.64925-0.84872 0.24192-0.47340 0.72106 0.23570
  -7   8  -2    1.33    0.63   1-0.44012-0.23809-0.75323-0.03531 0.48880 0.97060
  -7   8  -2    1.15    0.59   1-0.66300-0.45888 0.13499 0.85149-0.73634-0.25371
   7  -8   2    1.54    0.71   1-0.31852-0.52236 0.87942 0.16219-0.35376-0.83715
   7  -8   3   -0.03    0.77   1-0.64198-0.83510 0.28194-0.47429 0.71299 0.27866
  -7   8  -3    1.17    1.01   1-0.47544-0.27948-0.70364 0.05487 0.52803 0.95858
  -7   8  -3    0.70    0.56   1-0.66751-0.46972 0.06939 0.82660-0.74135-0.30996
   7  -8   3    0.62    0.72   1-0.35756-0.55548 0.84525 0.08678-0.39711-0.82698
   7  -8   4    0.16    0.77   1-0.63331-0.82007 0.32277-0.47436 0.70336 0.32007
  -7   8  -4    0.20    0.68   1-0.50386-0.31397-0.65800 0.14111 0.55960 0.93888
  -7   8  -4    0.13    0.77   1-0.66912-0.47767 0.00213 0.80004-0.74314-0.36298
   7  -8   4    0.38    1.02   1-0.39083-0.58268 0.81169 0.01270-0.43406-0.81260
   7  -8   5    1.10    0.84   1-0.62321-0.80362 0.36405-0.47398 0.69214 0.35989
  -7   8  -5    1.07    0.73   1-0.52647-0.34264-0.61721 0.22250 0.58470 0.91273
  -7   8  -5    1.63    0.58   1-0.66767-0.48254-0.06601 0.77259-0.74152-0.41260
   7  -8   5    1.03    0.76   1-0.41980-0.60559 0.77870-0.06080-0.46624-0.79344
   7  -7  -4   12.08    1.21   1-0.66551-0.82884-0.10378-0.55860 0.73913-0.03105
  -7   7   4   13.29    1.69   1-0.06417 0.10050-0.99539-0.53535 0.07127 0.83862
  -7   7   4   11.77    1.31   1-0.60278-0.43673 0.43414 0.89420-0.66945 0.09827
   7  -7  -4   11.53    1.10   1-0.04227-0.20783 0.99800 0.53900-0.04694-0.81625
   7  -7  -3   -0.20    0.86   1-0.66750-0.82448-0.06972-0.56545 0.74133 0.02218
  -7   7   3    0.11    0.59   1-0.14765 0.01099-0.97534-0.47476 0.16399 0.88004
  -7   7   3    0.32    0.66   1-0.61655-0.45657 0.38854 0.88912-0.68475 0.03163
   7  -7  -3   -0.02    0.65   1-0.10274-0.26230 0.98814 0.48855-0.11411-0.83217
   7  -7  -2    0.07    0.70   1-0.66879-0.81942-0.03167-0.56830 0.74277 0.07465
  -7   7   2    0.15    0.78   1-0.22367-0.07103-0.94247-0.40134 0.24841 0.91316
  -7   7   2    0.40    0.88   1-0.62981-0.47589 0.33773 0.87882-0.69948-0.03442
   7  -7  -2    0.35    0.64   1-0.16131-0.31487 0.97050 0.43032-0.17916-0.84597
   7  -7  -1    3.56    1.01   1-0.66909-0.81337 0.00961-0.56791 0.74311 0.12602
  -7   7   1    4.14    0.83   1-0.29110-0.14450-0.90040-0.31872 0.32330 0.93676
  -7   7   1    4.08    0.70   1-0.64195-0.49410 0.28210 0.86372-0.71296-0.09923
   7  -7  -1    4.49    0.73   1-0.21701-0.36457 0.94594 0.36517-0.24101-0.85658
   7  -7   0    4.01    0.74   1-0.66817-0.80610 0.05344-0.56498 0.74208 0.17603
  -7   7   0    4.46    0.65   1-0.34954-0.20897-0.85270-0.23047 0.38821 0.95037
  -7   7   0    4.32    0.68   1-0.65195-0.50956 0.22514 0.84536-0.72406-0.16031
   7  -7   0    4.10    0.73   1-0.26898-0.41054 0.91564 0.29428-0.29873-0.86304
   7  -7   1    0.17    0.95   1-0.66583-0.79740 0.09919-0.56014 0.73948 0.22446
  -7   7  -1    0.42    0.57   1-0.39915-0.26460-0.80259-0.13981 0.44330 0.95416
  -7   7  -1    0.27    0.79   1-0.66035-0.52429 0.16147 0.82239-0.73339-0.22087
   7  -7   1    0.23    0.64   1-0.31656-0.45211 0.88101 0.21906-0.35157-0.86463
   7  -7   2    1.38    0.69   1-0.66193-0.78715 0.14629-0.55394 0.73514 0.27117
  -7   7  -2    1.97    0.77   1-0.43975-0.31198-0.75371-0.05075 0.48839 0.94873
  -7   7  -2    1.63    0.79   1-0.66609-0.53637 0.09508 0.79670-0.73977-0.27849
   7  -7   2    1.27    0.70   1-0.36072-0.49037 0.84224 0.13907-0.40063-0.86034
   7  -7   3    5.32    0.84   1-0.65638-0.77525 0.19425-0.54689 0.72898 0.31604
  -7   7  -3    6.09    1.01   1-0.47375-0.35204-0.70619 0.03736 0.52615 0.93523
  -7   7  -3    5.84    0.67   1-0.66888-0.54549 0.02687 0.76919-0.74287-0.33283
   7  -7   3    5.75    0.83   1-0.39841-0.52199 0.80341 0.05973-0.44248-0.85085
   7  -7   4    0.50    0.93   1-0.64913-0.76165 0.24262-0.53941 0.72093 0.35903
  -7   7  -4    0.64    0.67   1-0.50129-0.38565-0.66237 0.12178 0.55674 0.91456
  -7   7  -4    0.65    0.54   1-0.66853-0.55147-0.04229 0.74072-0.74247-0.38366
   7  -7   4    0.58    1.00   1-0.43111-0.54863 0.76477-0.01941-0.47880-0.83583
   7  -7   5    4.87    0.94   1-0.64016-0.74633 0.29105-0.53189 0.71097 0.40009
  -7   7  -5    4.47    0.84   1-0.52332-0.41375-0.62315 0.20160 0.58121 0.88778
  -7   7  -5    5.00    0.71   1-0.66495-0.55422-0.11158 0.71213-0.73850-0.43092
   7  -7   5    3.70    0.81   1-0.45905-0.57050 0.72756-0.09715-0.50982-0.81552
   7  -7   6    3.79    1.23   1-0.62945-0.72927 0.33922-0.52462 0.69907 0.43924
  -7   7  -6    3.57    0.78   1-0.54072-0.43722-0.58904 0.27630 0.60053 0.85585
  -7   7  -6    4.07    0.80   1-0.65816-0.55377-0.18026 0.68415-0.73097-0.47462
   7  -6  -5    0.97    1.09   1-0.64575-0.74174-0.26201-0.66583 0.71718-0.08046
  -7   6   5   -0.36    0.93   1-0.00040 0.09603-1.00000-0.59541 0.00045 0.79765
  -7   6   5    0.45    0.71   1-0.59716-0.49938 0.45114 0.85590-0.66321 0.13434
   7  -6  -5    0.87    0.92   1 0.00172-0.09555 0.99999 0.59628 0.00191-0.79706
   7  -6  -4   13.27    1.40   1-0.65183-0.74176-0.22587-0.67028 0.72394-0.02245
  -7   6   4   14.28    1.46   1-0.08189 0.00851-0.99248-0.54734 0.09095 0.83686
  -7   6   4   13.51    1.64   1-0.61136-0.51964 0.40645 0.85172-0.67898 0.06724
   7  -6  -4   11.98    1.62   1-0.06486-0.15614 0.99528 0.55098-0.07204-0.81977
   7  -6  -3    0.85    0.83   1-0.65670-0.73944-0.19184-0.67248 0.72934 0.03157
  -7   6   3    1.09    0.58   1-0.15874-0.07436-0.97144-0.48576 0.17630 0.87091
  -7   6   3    1.06    0.85   1-0.62526-0.53961 0.35612 0.84191-0.69442 0.00046
   7  -6  -3    1.40    0.64   1-0.13027-0.21554 0.98086 0.49597-0.14467-0.84116
  -7   6   2    1.72    0.78   1-0.22935-0.15099-0.93942-0.41319 0.25472 0.89803
  -7   6   2    1.87    0.63   1-0.63819-0.55861 0.30055 0.82686-0.70878-0.06523
   7  -6  -2    1.32    0.62   1-0.19317-0.27244 0.95742 0.43193-0.21453-0.85976
   7  -6  -1    2.08    0.92   1-0.66582-0.73586-0.09925-0.66168 0.73947 0.14377
  -7   6   1    1.82    0.71   1-0.29261-0.22028-0.89930-0.33253 0.32498 0.91700
  -7   6   1    1.82    0.60   1-0.64951-0.57599 0.24036 0.80718-0.72135-0.12914
   7  -6  -1    1.94    0.65   1-0.25235-0.32562 0.92615 0.36008-0.28026-0.87424
   7  -6   0   10.01    0.87   1-0.66833-0.73202-0.04865-0.65199 0.74226 0.19760
  -7   6   0   10.86    0.90   1-0.34800-0.28170-0.85411-0.24678 0.38650 0.92722
  -7   6   0   11.14    0.98   1-0.65825-0.59027 0.17952 0.78484-0.73107-0.18867
   7  -6   0    9.54    0.87   1-0.30680-0.37408 0.88868 0.28201-0.34074-0.88347
   7  -6   1   16.47    1.22   1-0.66912-0.72645 0.00393-0.64031 0.74313 0.24951
  -7   6  -1   17.89    1.09   1-0.39550-0.33522-0.80662-0.15875 0.43924 0.92866
  -7   6  -1   18.20    1.03   1-0.66490-0.60324 0.11222 0.75825-0.73844-0.24728
   7  -6   1   16.83    1.06   1-0.35729-0.41868 0.84549 0.19764-0.39682-0.88636
   7  -6   2    5.25    0.80   1-0.66800-0.71899 0.05787-0.62726 0.74189 0.29930
  -7   6  -2    4.48    0.95   1-0.43471-0.38119-0.76021-0.07221 0.48279 0.92166
  -7   6  -2    5.50    0.71   1-0.66851-0.61318 0.04298 0.72971-0.74245-0.30252
   7  -6   2    4.66    0.80   1-0.40043-0.45574 0.80116 0.11279-0.44472-0.88293
   7  -6   3   12.68    1.00   1-0.66487-0.70950 0.11262-0.61342 0.73841 0.34685
  -7   6  -3   11.76    1.10   1-0.46786-0.42041-0.71491 0.01367 0.51961 0.90723
  -7   6  -3   13.18    0.85   1-0.66888-0.61989-0.02721 0.70021-0.74286-0.35417
   7  -6   3   10.45    1.27   1-0.43770-0.48695 0.75637 0.02747-0.48612-0.87299
   7  -6   4    2.11    1.03   1-0.65965-0.69793 0.16767-0.59928 0.73262 0.39210
  -7   6  -4    1.91    0.67   1-0.49492-0.45353-0.67299 0.09620 0.54966 0.88602
  -7   6  -4    2.40    0.75   1-0.66594-0.62328-0.09745 0.67066-0.73960-0.40214
   7  -6   5    1.01    0.74   1-0.65234-0.68427 0.22259-0.58526 0.72450 0.43501
  -7   6  -5    0.86    0.94   1-0.51670-0.48139-0.63536 0.17442 0.57386 0.85897
  -7   6  -5    1.03    0.72   1-0.65973-0.62341-0.16694 0.64187-0.73271-0.44648
   7  -6   6    0.73    0.78   1-0.64294-0.66851 0.27702-0.57173 0.71406 0.47560
  -7   6  -6    0.23    0.69   1-0.53400-0.50475-0.60258 0.24780 0.59307 0.82692
  -7   6  -6    0.13    0.51   1-0.65038-0.62039-0.23502 0.61450-0.72232-0.48733
   7  -6   7    3.67    1.22   1-0.63148-0.65071 0.33068-0.55898 0.70133 0.51391
  -7   6  -7    2.94    1.07   1-0.54750-0.52432-0.57488 0.31610 0.60806 0.79066
  -7   6  -7    2.68    0.59   1-0.63806-0.61440-0.30115 0.58907-0.70864-0.52488
   7  -5  -6   17.10    1.84   1-0.61140-0.63920-0.40631-0.75458 0.67903-0.14840
  -7   5   6   13.71    1.89   1 0.06262 0.09081-0.99561-0.64647-0.06955 0.75750
  -7   5   6   15.68    1.79   1-0.59466-0.56515 0.45846 0.80791-0.66044 0.16696
   7  -5  -5    2.07    0.72   1-0.62102-0.64275-0.37231-0.76117 0.68971-0.08646
  -7   5   5    1.80    0.65   1-0.01489 0.00726-0.99975-0.61007 0.01654 0.79231
  -7   5   5    1.32    0.92   1-0.60892-0.58547 0.41455 0.80452-0.67627 0.09978
   7  -5  -5    1.30    0.78   1-0.01223-0.03522 0.99983 0.61081-0.01358-0.79099
   7  -5  -4    5.41    1.01   1-0.63094-0.64661-0.33297-0.76243 0.70073-0.02419
  -7   5   4    4.83    0.69   1-0.09028-0.07415-0.99085-0.56062 0.10027 0.82474
  -7   5   4    4.76    0.73   1-0.62308-0.60570 0.36453 0.79501-0.69200 0.03271
   7  -5  -4    4.34    0.69   1-0.08506-0.10205 0.99188 0.56227-0.09447-0.82062
   7  -5  -3    1.55    0.64   1-0.64063-0.65022-0.28874-0.75879 0.71149 0.03781
  -7   5   3    1.20    0.68   1-0.16183-0.15172-0.97031-0.49953 0.17973 0.85290
  -7   5   3    1.92    0.63   1-0.63642-0.62510 0.30881 0.77982-0.70682-0.03343
   7  -5  -3    1.52    0.60   1-0.15626-0.16725 0.97234 0.50214-0.17355-0.84845
   7  -5  -2   10.45    0.87   1-0.64955-0.65308-0.24014-0.75079 0.72139 0.09897
  -7   5   2   10.99    0.98   1-0.22809-0.22400-0.94010-0.42878 0.25332 0.87519
  -7   5   2   10.27    1.27   1-0.64820-0.64296 0.24810 0.75962-0.71990-0.09785
   7  -5  -2   10.78    1.01   1-0.22411-0.22910 0.94223 0.43144-0.24890-0.87256
   7  -5  -1    1.23    0.60   1-0.65630-0.65209-0.19486-0.74220 0.72889 0.15458
  -7   5   1    1.60    0.78   1-0.28801-0.28995-0.90262-0.35075 0.31987 0.89044
  -7   5   1    1.26    0.77   1-0.65731-0.65738 0.18712 0.73685-0.73001-0.15773
   7  -5  -1    1.20    0.82   1-0.28709-0.28608 0.90327 0.35189-0.31884-0.89125
   7  -5   0    0.17    0.57   1-0.66258-0.65202-0.13952-0.72777 0.73587 0.21259
  -7   5   0   -0.10    0.78   1-0.34100-0.34897-0.86039-0.26797 0.37872 0.89800
  -7   5   0   -0.24    0.51   1-0.66439-0.67080 0.11879 0.70923-0.73788-0.21682
   7  -5   0   -0.06    0.71   1-0.34401-0.33700 0.85771 0.26574-0.38207-0.90322
   7  -5   1    2.40    0.88   1-0.66688-0.64997-0.08182-0.71097 0.74065 0.26841
  -7   5  -1    1.76    0.82   1-0.38690-0.40089-0.81588-0.18291 0.42969 0.89767
  -7   5  -1    2.34    0.56   1-0.66834-0.68108 0.04849 0.67962-0.74226-0.27245
   7  -5   1    2.14    0.67   1-0.39565-0.38270 0.80645 0.17338-0.43941-0.90745
   7  -5   2    2.11    0.63   1-0.66896-0.64570-0.02243-0.69249 0.74295 0.32175
  -7   5  -2    3.49    0.87   1-0.42514-0.44588-0.77221-0.09916 0.47217 0.88958
  -7   5  -2    3.06    0.56   1-0.66895-0.68803-0.02268 0.64915-0.74295-0.32436
   7  -5   2    1.91    0.83   1-0.43875-0.41973 0.75501 0.08143-0.48728-0.90398
   7  -5   3    0.30    0.64   1-0.66864-0.63903 0.03796-0.67299 0.74260 0.37243
  -7   5  -3    0.22    0.59   1-0.45779-0.48460-0.72932-0.01568 0.50843 0.87459
  -7   5  -3    0.44    0.69   1-0.66618-0.69159-0.09372 0.61881-0.73987-0.37252
  -7   5  -4    1.06    0.63   1-0.48467-0.51755-0.68944 0.06479 0.53829 0.85319
  -7   5  -4    1.58    0.71   1-0.66009-0.69183-0.16376 0.58947-0.73311-0.41699
   7  -5   5    8.08    1.36   1-0.66056-0.61825 0.15948-0.63327 0.73363 0.46553
  -7   5  -5    6.62    1.01   1-0.50648-0.54542-0.65349 0.14133 0.56250 0.82615
  -7   5  -5    7.64    0.95   1-0.65085-0.68892-0.23210 0.56182-0.72284-0.45796
   7  -5   5    6.33    0.82   1-0.52952-0.49231 0.61134-0.18379-0.58810-0.85079
   7  -5   6    0.46    0.73   1-0.65279-0.60412 0.21963-0.61403 0.72499 0.50793
  -7   5  -6   -0.03    0.66   1-0.52389-0.56891-0.62207 0.21335 0.58184 0.79424
  -7   5  -6    0.37    0.50   1-0.63867-0.68308-0.29824 0.53638-0.70932-0.49567
   7  -5   7    5.31    0.98   1-0.64258-0.58757 0.27886-0.59570 0.71366 0.54763
  -7   5  -7    4.63    0.85   1-0.53755-0.58863-0.59548 0.28054 0.59701 0.75815
  -7   5  -7    5.21    0.73   1-0.62379-0.67453-0.36181 0.51351-0.69279-0.53038
   7  -4  -7    2.21    0.78   1-0.56923-0.52884-0.52563-0.81834 0.63220-0.22503
  -7   4   7    1.81    1.08   1 0.12452 0.08407-0.98253-0.68938-0.13830 0.71950
  -7   4   7    1.36    0.72   1-0.59646-0.63521 0.45322 0.74736-0.66243 0.19479
   7  -4  -6    2.30    1.00   1-0.58083-0.53437-0.49648-0.82979 0.64508-0.16089
  -7   4   6    1.99    0.94   1 0.05121 0.00512-0.99706-0.66284-0.05687 0.74874
  -7   4   6    1.61    0.95   1-0.61033-0.65515 0.40990 0.74456-0.67784 0.12805
   7  -4  -5    0.24    0.63   1-0.59355-0.54103-0.46166-0.83556 0.65921-0.09551
  -7   4   5    0.09    0.57   1-0.02079-0.07290-0.99951-0.62474 0.02309 0.77741
  -7   4   5    0.05    0.73   1-0.62428-0.67517 0.35993 0.73511-0.69333 0.06122
   7  -4  -5   -0.27    0.59   1-0.02172 0.02956 0.99947 0.62514-0.02412-0.77994
   7  -4  -4    3.37    0.92   1-0.60685-0.54825-0.42129-0.83578 0.67397-0.02949
  -7   4   4    2.61    0.64   1-0.09106-0.14920-0.99069-0.57537 0.10114 0.80416
  -7   4   4    2.70    0.65   1-0.63749-0.69445 0.30382 0.71952-0.70801-0.00479
   7  -4  -4    2.75    0.64   1-0.10220-0.04490 0.98826 0.57334-0.11350-0.81808
   7  -4  -3    1.86    0.61   1-0.62012-0.55546-0.37564-0.83073 0.68871 0.03650
  -7   4   3    2.25    0.59   1-0.15814-0.22230-0.97166-0.51580 0.17563 0.82736
  -7   4   3    1.79    0.69   1-0.64918-0.71220 0.24235 0.69856-0.72099-0.06910
   7  -4  -3    1.75    0.79   1-0.18040-0.11710 0.96297 0.50746-0.20035-0.85368
   7  -4  -2   11.62    1.18   1-0.63277-0.56205-0.32512-0.82081 0.70277 0.10180
  -7   4   2   11.28    1.25   1-0.22074-0.29093-0.94401-0.44760 0.24515 0.84558
  -7   4   2   12.66    1.37   1-0.65805-0.72619 0.18119 0.67533-0.73084-0.12866
   7  -4  -2   11.46    1.15   1-0.25402-0.18473 0.92513 0.42903-0.28212-0.88419
   7  -4  -1    1.53    0.83   1-0.64422-0.56743-0.27026-0.80655 0.71548 0.16577
  -7   4   1    1.63    0.77   1-0.27786-0.35407-0.90970-0.37274 0.30859 0.85772
  -7   4   1    1.71    0.55   1-0.66493-0.73941 0.11175 0.64659-0.73848-0.18754
   7  -4  -1    1.82    0.59   1-0.32114-0.24585 0.87729 0.34060-0.35667-0.90749
   7  -4   0    7.27    0.89   1-0.65289-0.56809-0.21895-0.79211 0.72511 0.22322
  -7   4   0    6.57    1.00   1-0.32887-0.41111-0.87087-0.29336 0.36525 0.86308
  -7   4   0    7.52    0.86   1-0.66858-0.74939 0.04045 0.61599-0.74253-0.24282
   7  -4   0    7.36    1.07   1-0.38201-0.30079 0.82100 0.24324-0.42427-0.92214
   7  -4   1    3.10    0.77   1-0.66077-0.56962-0.15759-0.77164 0.73385 0.28300
  -7   4  -1    3.28    0.63   1-0.37352-0.46179-0.82969-0.21163 0.41483 0.86137
  -7   4  -1    3.72    0.62   1-0.66879-0.75594-0.03148 0.58475-0.74277-0.29430
   7  -4   1    2.90    0.89   1-0.43282-0.34553 0.76262 0.14433-0.48069-0.92723
   7  -4   2   12.40    1.37   1-0.66616-0.56866-0.09403-0.74899 0.73985 0.34003
  -7   4  -2   11.40    1.18   1-0.41107-0.50607-0.78904-0.13096 0.45654 0.85249
  -7   4  -2   12.57    1.19   1-0.66557-0.75904-0.10294 0.55399-0.73919-0.34195
   7  -4   2   10.54    1.51   1-0.47530-0.38195 0.70386 0.04506-0.52788-0.92308
   7  -4   3    9.71    1.08   1-0.66884-0.56499-0.02905-0.72491 0.74283 0.39404
  -7   4  -3    9.27    1.03   1-0.44348-0.54454-0.74882-0.05014 0.49253 0.83723
  -7   4  -3   10.62    1.13   1-0.65903-0.75884-0.17303 0.52460-0.73193-0.38593
   7  -4   3    8.62    1.37   1-0.51003-0.41062 0.64728-0.05202-0.56645-0.91032
   7  -4   4   10.02    0.90   1-0.66868-0.55847 0.03664-0.70012 0.74264 0.44489
  -7   4  -4    9.18    1.01   1-0.47040-0.57753-0.71117 0.02809 0.52243 0.81588
  -7   4  -4   10.69    0.81   1-0.64939-0.75553-0.24105 0.49728-0.72123-0.42646
   7  -4   4    9.04    0.99   1-0.53790-0.43241 0.59478-0.14504-0.59740-0.88993
   7  -4   5   14.99    1.17   1-0.66561-0.54905 0.10242-0.67524 0.73923 0.49252
  -7   4  -5   13.46    1.00   1-0.49242-0.60562-0.67707 0.10280 0.54689 0.78908
  -7   4  -5   15.12    0.85   1-0.63691-0.74939-0.30652 0.47251-0.70737-0.46383
   7  -4   6    1.65    1.04   1-0.65965-0.53674 0.16772-0.65084 0.73261 0.53693
  -7   4  -6    0.84    0.93   1-0.51013-0.62940-0.64712 0.17334 0.56656 0.75749
  -7   4  -6    1.70    0.53   1-0.62187-0.74067-0.36914 0.45060-0.69065-0.49835
   7  -4   7    1.18    0.74   1-0.65085-0.52160 0.23209-0.62738 0.72285 0.57820
  -7   4  -7    0.22    0.68   1-0.52410-0.64943-0.62169 0.23937 0.58207 0.72175
  -7   4  -7    0.60    0.75   1-0.60451-0.72965-0.42872 0.43171-0.67138-0.53031
   7  -4   8    0.15    0.78   1-0.63932-0.50371 0.29515-0.60522 0.71003 0.61642
  -7   4  -8    0.44    0.71   1-0.53483-0.66623-0.60093 0.30072 0.59399 0.68241
  -7   4  -8    0.85    0.70   1-0.58508-0.71654-0.48521 0.41592-0.64980-0.55996
   7  -3  -7   15.93    1.49   1-0.53705-0.42240-0.59649-0.87424 0.59645-0.23931
  -7   3   7   16.26    1.68   1 0.11590 0.00122-0.98488-0.70664-0.12872 0.70756
  -7   3   7   14.69    1.60   1-0.61690-0.72999 0.38729 0.66665-0.68514 0.15058
   7  -3  -6    4.29    0.97   1-0.55083-0.43011-0.56774-0.88608 0.61175-0.17275
  -7   3   6    4.51    0.96   1 0.04759-0.07276-0.99746-0.67814-0.05286 0.73131
  -7   3   6    4.20    0.90   1-0.62996-0.74911 0.33712 0.65699-0.69964 0.08475
   7  -3  -5    1.48    0.62   1-0.56602-0.43924-0.53331-0.89225 0.62863-0.10462
  -7   3   5    1.37    0.60   1-0.01958-0.14597-0.99957-0.63970 0.02175 0.75463
  -7   3   5    1.33    0.61   1-0.64230-0.76752 0.28032 0.64071-0.71334 0.01970
   7  -3  -5    0.83    0.63   1-0.02503 0.10053 0.99930 0.63966-0.02780-0.76205
   7  -3  -4   27.77    1.30   1-0.58210-0.44925-0.49316-0.89269 0.64648-0.03552
  -7   3   4   25.19    2.19   1-0.08537-0.21778-0.99182-0.59141 0.09482 0.77640
  -7   3   4   27.23    1.23   1-0.65211-0.78199 0.22409 0.62194-0.72424-0.04094
   7  -3  -4   20.75    2.56   1-0.11525 0.01632 0.98505 0.58482-0.12800-0.81099
   7  -3  -3    3.46    0.63   1-0.59842-0.45951-0.44739-0.88752 0.66462 0.03386
  -7   3   3    3.20    0.61   1-0.14852-0.28696-0.97505-0.53409 0.16495 0.79523
  -7   3   3    3.73    0.73   1-0.66086-0.79707 0.15666 0.59521-0.73396-0.10190
   7  -3  -3    3.64    0.66   1-0.20218-0.06460 0.95325 0.51244-0.22454-0.85628
   7  -3  -2    7.41    0.89   1-0.61435-0.46936-0.39626-0.87699 0.68230 0.10280
  -7   3   2    7.68    0.90   1-0.20788-0.35235-0.95051-0.46900 0.23088 0.80986
  -7   3   2    8.17    0.99   1-0.66663-0.80918 0.08623 0.56548-0.74037-0.15954
   7  -3  -2    7.06    0.99   1-0.28269-0.13911 0.90637 0.42496-0.31396-0.89445
   7  -3  -1    6.07    0.90   1-0.62921-0.47816-0.34022-0.86155 0.69881 0.17056
  -7   3   1    5.96    0.69   1-0.26254-0.41303-0.91981-0.39775 0.29158 0.81926
  -7   3   1    6.53    0.81   1-0.66906-0.81793 0.01428 0.53423-0.74306-0.21347
   7  -3  -1    6.32    0.73   1-0.35606-0.20657 0.84666 0.32420-0.39544-0.92315
   7  -3   0    4.57    0.66   1-0.64239-0.48527-0.27985-0.84178 0.71345 0.23645
  -7   3   0    5.05    0.66   1-0.31183-0.46834-0.88476-0.32216 0.34632 0.82271
  -7   3   0    4.97    0.58   1-0.66801-0.82321-0.05780 0.50284-0.74190-0.26354
   7  -3   0    4.88    0.68   1-0.41747-0.26192 0.78149 0.21852-0.46365-0.94002
   7  -3   1    4.84    0.67   1-0.65224-0.48685-0.22322-0.82218 0.72439 0.29492
  -7   3  -1    4.10    0.64   1-0.35542-0.51796-0.84726-0.24410 0.39473 0.81983
  -7   3  -1    5.29    0.57   1-0.66355-0.82509-0.12887 0.47247-0.73694-0.30982
   7  -3   1    4.42    1.52   1-0.46846-0.30684 0.71403 0.11054-0.52028-0.94531
   7  -3   2    0.08    0.70   1-0.66087-0.48913-0.15658-0.79645 0.73397 0.35554
  -7   3  -2   -0.19    0.68   1-0.39326-0.56183-0.80906-0.16536 0.43676 0.81055
  -7   3  -2    0.10    0.44   1-0.65587-0.82375-0.19802 0.44401-0.72842-0.35253
   7  -3   3    0.65    0.85   1-0.66653-0.48844-0.08797-0.76874 0.74026 0.41286
  -7   3  -3    0.11    0.78   1-0.42475-0.60008-0.77268-0.08896 0.47174 0.79497
  -7   3  -3    0.42    0.64   1-0.64527-0.81947-0.26465 0.41809-0.71664-0.39198
   7  -3   4    0.45    0.78   1-0.66902-0.48457-0.01820-0.73987 0.74302 0.46665
  -7   3  -4   -0.04    0.58   1-0.45186-0.63325-0.73753-0.01322 0.50184 0.77382
  -7   3  -4    0.35    0.65   1-0.63203-0.81256-0.32834 0.39510-0.70194-0.42851
   7  -3   5    0.83    0.66   1-0.66822-0.47742 0.05196-0.71061 0.74214 0.51681
  -7   3  -5    1.46    0.86   1-0.47423-0.66169-0.70547 0.05943 0.52669 0.74741
  -7   3  -5    0.81    0.50   1-0.61645-0.80332-0.38890 0.37524-0.68464-0.46245
   7  -3   6    0.76    0.70   1-0.66414-0.46699 0.12186-0.68161 0.73760 0.56331
  -7   3  -6    0.29    0.63   1-0.49236-0.68589-0.67716 0.12833 0.54682 0.71629
  -7   3  -6    0.64    0.53   1-0.59881-0.79201-0.44625 0.35859-0.66504-0.49408
   7  -3   7    5.56    1.09   1-0.65682-0.45332 0.19092-0.65345 0.72947 0.60621
  -7   3  -7    5.62    1.12   1-0.50675-0.70634-0.65302 0.19307 0.56280 0.68102
  -7   3  -7    5.88    0.97   1-0.57932-0.77886-0.50040 0.34514-0.64340-0.52368
   7  -3   8    0.30    1.10   1-0.64635-0.43650 0.25868-0.62660 0.71785 0.64562
  -7   3  -8    1.29    1.01   1-0.51785-0.72351-0.63327 0.25342 0.57513 0.64210
  -7   3  -8    0.37    0.58   1-0.55821-0.76469-0.55139 0.33443-0.61996-0.55081
   7  -2  -8    7.63    0.86   1-0.49443-0.31160-0.67378-0.89597 0.54912-0.31643
  -7   2   8    6.42    1.16   1 0.17614-0.00675-0.96472-0.74196-0.19562 0.67040
   7  -2  -7    0.04    0.92   1-0.50772-0.31881-0.65135-0.91413 0.56388-0.25042
  -7   2   7    0.53    0.94   1 0.11426-0.07463-0.98531-0.72198-0.12690 0.68786
  -7   2   7    0.45    0.62   1-0.64121-0.82863 0.28582 0.55039-0.71214 0.10208
   7  -2  -6    0.14    0.60   1-0.52312-0.32815-0.62353-0.92691 0.58098-0.18206
  -7   2   6    0.34    0.85   1 0.05050-0.14413-0.99714-0.69273-0.05608 0.70664
  -7   2   6    0.19    0.56   1-0.65145-0.84494 0.22831 0.53339-0.72351 0.03937
   7  -2  -5    3.01    0.66   1-0.54022-0.33918-0.59007-0.93405 0.59997-0.11182
  -7   2   5    2.41    0.76   1-0.01231-0.21297-0.99983-0.65486 0.01367 0.72511
  -7   2   5    3.00    0.77   1-0.65907-0.85702 0.17267 0.51493-0.73198-0.01879
   7  -2  -5    2.09    0.68   1-0.01925 0.18060 0.99958 0.65464-0.02138-0.73404
   7  -2  -4    2.24    0.60   1-0.55848-0.35137-0.55079-0.93536 0.62026-0.04028
  -7   2   4    1.85    0.59   1-0.07403-0.28072-0.99386-0.60835 0.08222 0.74236
  -7   2   4    1.88    0.60   1-0.66546-0.86974 0.10447 0.48743-0.73907-0.07712
   7  -2  -4    1.26    0.77   1-0.12251 0.08334 0.98309 0.59755-0.13606-0.79747
   7  -2  -3    0.22    0.75   1-0.57729-0.36411-0.50563-0.93080 0.64114 0.03185
  -7   2   3   -0.11    0.52   1-0.13359-0.34630-0.97986-0.55381 0.14837 0.75721
  -7   2   3    0.16    0.46   1-0.66874-0.87935 0.03384 0.45750-0.74271-0.13200
   7  -2  -3    0.12    0.72   1-0.22083-0.00897 0.94396 0.51784-0.24526-0.85542
   7  -2  -2    3.49    0.62   1-0.59594-0.37670-0.45472-0.92049 0.66186 0.10382
  -7   2   2    3.81    0.63   1-0.18998-0.40871-0.95884-0.49224 0.21099 0.76853
  -7   2   2    4.06    0.55   1-0.66865-0.88559-0.03754 0.42681-0.74262-0.18313
   7  -2  -2    3.78    0.60   1-0.30984-0.09198 0.88632 0.41961-0.34411-0.90303
   7  -2  -1    3.03    0.61   1-0.61374-0.38843-0.39837-0.90473 0.68163 0.17484
  -7   2   1    2.99    0.61   1-0.24233-0.46710-0.93211-0.42495 0.26914 0.77538
  -7   2   1    3.13    0.51   1-0.66520-0.88847-0.10823 0.39682-0.73877-0.23053
   7  -2  -1    3.12    0.79   1-0.38832-0.16449 0.81437 0.30670-0.43127-0.93748
   7  -2   0    4.57    0.85   1-0.62997-0.39859-0.33707-0.88404 0.69965 0.24412
  -7   2   0    5.15    0.83   1-0.29002-0.52081-0.90118-0.35348 0.32210 0.77704
  -7   2   0    5.30    0.71   1-0.65855-0.88815-0.17712 0.36863-0.73139-0.27438
   7  -2   0    4.45    0.76   1-0.45165-0.22176 0.73783 0.18964-0.50161-0.95648
   7  -2   1    2.64    0.82   1-0.64399-0.40654-0.27152-0.85908 0.71522 0.31094
  -7   2  -1    2.13    0.79   1-0.33263-0.56944-0.86768-0.27943 0.36942 0.77307
  -7   2  -1    2.30    0.58   1-0.64899-0.88493-0.24344 0.34301-0.72078-0.31500
   7  -2   1    2.22    0.62   1-0.50213-0.26618 0.66094 0.07224-0.55768-0.96121
   7  -2   2   13.82    1.02   1-0.65421-0.40823-0.20996-0.83474 0.72657 0.36952
  -7   2  -2   13.00    0.97   1-0.37001-0.61286-0.83319-0.20439 0.41094 0.76329
  -7   2  -2   14.02    0.94   1-0.63687-0.87914-0.30675 0.32040-0.70731-0.35277
   7  -2   2   12.97    1.32   1-0.54123-0.29921 0.58799-0.04122-0.60110-0.95329
   7  -2   3    3.58    0.71   1-0.66267-0.41034-0.13852-0.80420 0.73597 0.42996
  -7   2  -3    2.81    0.63   1-0.40224-0.65111-0.79913-0.12978 0.44674 0.74779
  -7   2  -3    3.24    0.55   1-0.62248-0.87109-0.36681 0.30104-0.69134-0.38803
   7  -2   3    3.60    0.73   1-0.57084-0.32275 0.52173-0.14800-0.63398-0.93484
   7  -2   4   11.72    1.21   1-0.66769-0.40901-0.06539-0.77198 0.74155 0.48657
  -7   2  -4   10.49    1.24   1-0.42878-0.68443-0.76769-0.05834 0.47621 0.72673
  -7   2  -4   11.48    1.22   1-0.60614-0.86107-0.42357 0.28498-0.67318-0.42110
   7  -2   5    2.99    0.96   1-0.66910-0.40406 0.00855-0.73893 0.74311 0.53917
  -7   2  -5    2.66    0.68   1-0.45156-0.71327-0.73795 0.01199 0.50151 0.70077
  -7   2  -5    2.85    0.59   1-0.58806-0.84933-0.47708 0.27217-0.65311-0.45227
   7  -2   6   15.10    1.62   1-0.66684-0.39545 0.08253-0.70584 0.74060 0.58769
  -7   2  -6   12.46    1.42   1-0.47018-0.73796-0.71151 0.07903 0.52218 0.67019
  -7   2  -6   13.84    1.30   1-0.56849-0.83660-0.52743 0.26196-0.63137-0.48110
   7  -2   7   12.60    1.45   1-0.66095-0.38321 0.15587-0.67341 0.73406 0.63218
  -7   2  -7   12.44    1.30   1-0.48505-0.75890-0.68885 0.14229 0.53870 0.63546
  -7   2  -7   14.06    1.47   1-0.54753-0.82200-0.57483 0.25530-0.60809-0.50903
   7  -2   8    0.67    0.74   1-0.65150-0.36741 0.22798-0.64221 0.72357 0.67273
  -7   2  -8    0.25    0.72   1-0.49658-0.77650-0.67024 0.20149 0.55151 0.59702
  -7   2  -8    0.17    0.61   1-0.52532-0.80616-0.61939 0.25147-0.58342-0.53558
   7  -1  -8    0.18    0.93   1-0.46788-0.21078-0.71488-0.92211 0.51963-0.32446
  -7   1   8    0.08    1.01   1 0.17636-0.08076-0.96464-0.75678-0.19586 0.64865
   7  -1  -7    2.83    0.69   1-0.48217-0.21901-0.69335-0.94117 0.53551-0.25733
  -7   1   7    2.85    0.97   1 0.11853-0.14459-0.98418-0.73577-0.13164 0.66161
   7  -1  -6    3.74    0.67   1-0.49877-0.22954-0.66661-0.95503 0.55394-0.18765
  -7   1   6    3.25    0.93   1 0.05899-0.20990-0.99610-0.70659-0.06552 0.67576
  -7   1   6    3.44    0.63   1-0.66738-0.93339 0.07217 0.35883-0.74120 0.00186
   7  -1  -5   16.14    1.12   1-0.51728-0.24198-0.63432-0.96333 0.57450-0.11583
  -7   1   5   15.43    1.13   1 0.00024-0.27469-1.00000-0.66994-0.00026 0.68972
  -7   1   5   14.94    1.13   1-0.66911-0.94146 0.00582 0.33318-0.74313-0.05129
   7  -1  -5    8.68    2.37   1 0.00133 0.27548 0.99999 0.66974 0.00148-0.68960
   7  -1  -4    7.47    0.90   1-0.53721-0.25585-0.59616-0.96578 0.59664-0.04244
  -7   1   4    7.90    1.09   1-0.05767-0.33863-0.99627-0.62567 0.06405 0.70275
  -7   1   4    7.57    0.86   1-0.66785-0.94653-0.06171 0.30635-0.74172-0.10112
   7  -1  -4    5.03    1.32   1-0.12089 0.15924 0.98354 0.61269-0.13427-0.77410
   7  -1  -3    2.53    0.60   1-0.55796-0.27053-0.55197-0.96218 0.61968 0.03184
  -7   1   3    2.31    0.82   1-0.11384-0.40082-0.98542-0.57427 0.12643 0.71382
  -7   1   3    2.36    0.47   1-0.66356-0.94857-0.12871 0.28004-0.73696-0.14759
   7  -1  -3    2.15    0.74   1-0.23509 0.05104 0.93624 0.52481-0.26110-0.84968
   7  -1  -2   28.71    1.62   1-0.57882-0.28532-0.50171-0.95252 0.64284 0.10626
  -7   1   2   26.87    1.73   1-0.16737-0.46038-0.96821-0.51651 0.18588 0.72198
  -7   1   2   27.62    1.61   1-0.65642-0.94776-0.19393 0.25552-0.72903-0.19090
   7  -1  -2   27.50    1.97   1-0.33506-0.04291 0.86559 0.41356-0.37212-0.90946
   7  -1  -1    5.33    0.65   1-0.59903-0.29947-0.44557-0.93697 0.66529 0.17997
  -7   1   1    5.89    0.69   1-0.21748-0.51652-0.94570-0.45345 0.24154 0.72634
  -7   1   1    5.93    0.71   1-0.64673-0.94440-0.25656 0.23359-0.71826-0.23136
   7  -1  -1    5.28    0.69   1-0.41933-0.12117 0.77927 0.28639-0.46571-0.95041
   7  -1   0    7.76    0.78   1-0.61784-0.31221-0.38394-0.91594 0.68618 0.25211
  -7   1   0    8.05    0.80   1-0.26356-0.56862-0.91916-0.38636 0.29271 0.72621
  -7   1   0    8.18    0.70   1-0.63480-0.93880-0.31618 0.21468-0.70502-0.26935
   7  -1   0    6.96    0.87   1-0.48417-0.17994 0.69023 0.15684-0.53772-0.97109
   7  -1   1   10.01    0.87   1-0.63452-0.32282-0.31744-0.89004 0.70470 0.32189
  -7   1  -1    8.59    0.82   1-0.30515-0.61624-0.88995-0.31661 0.33890 0.72111
  -7   1  -1    9.67    0.78   1-0.62094-0.93127-0.37262 0.19894-0.68962-0.30519
   7  -1   1    8.46    0.91   1-0.53332-0.22303 0.60391 0.03000-0.59232-0.97434
   7  -1   2    1.89    0.81   1-0.64842-0.33065-0.24684-0.86004 0.72014 0.38858
  -7   1  -2    1.31    0.79   1-0.34203-0.65915-0.85948-0.24559 0.37986 0.71077
  -7   1  -2    1.60    0.71   1-0.60540-0.92207-0.42590 0.18636-0.67237-0.33917
   7  -1   2    1.52    0.59   1-0.56956-0.25320 0.52484-0.08958-0.63256-0.96325
   7  -1   3    7.93    1.10   1-0.65812-0.33154-0.18061-0.83120 0.73092 0.44629
  -7   1  -3    7.48    0.90   1-0.37417-0.69731-0.82903-0.17459 0.41556 0.69517
  -7   1  -3    8.72    0.93   1-0.58841-0.91141-0.47612 0.17684-0.65350-0.37154
   7  -1   4   -0.08    0.73   1-0.66545-0.33252-0.10470-0.79619 0.73905 0.50546
  -7   1  -4   -0.29    0.58   1-0.40169-0.73086-0.79976-0.10477 0.44612 0.67443
  -7   1  -4    0.06    0.54   1-0.57013-0.89946-0.52345 0.17021-0.63319-0.40246
   7  -1   5    0.07    0.59   1-0.66887-0.32959-0.02749-0.75988 0.74286 0.56030
  -7   1  -5   -0.07    0.86   1-0.42404-0.76001-0.77355-0.03856 0.47095 0.64875
  -7   1  -5    0.27    0.80   1-0.55068-0.88681-0.56805 0.16565-0.61160-0.43142
   7  -1   6   -0.07    0.64   1-0.66828-0.32265 0.05014-0.72315 0.74220 0.61068
  -7   1  -6   -0.19    0.64   1-0.44314-0.78518-0.74927 0.02631 0.49215 0.61870
  -7   1  -6   -0.02    0.58   1-0.53017-0.87265-0.61009 0.16434-0.58881-0.45985
   7  -1   7    1.43    0.73   1-0.66368-0.31169 0.12738-0.68681 0.73709 0.65660
  -7   1  -7    1.78    0.71   1-0.45850-0.80661-0.72833 0.08785 0.50922 0.58451
  -7   1  -7    0.61    0.91   1-0.50864-0.85749-0.64973 0.16543-0.56491-0.48716
   7   0  -8    1.86    0.70   1-0.44587-0.11452-0.74563-0.93790 0.49519-0.32744
  -7   0   8    1.39    1.02   1 0.18187-0.14947-0.96235-0.76941-0.20198 0.62101
   7   0  -7   11.62    1.21   1-0.46089-0.12347-0.72495-0.95781 0.51187-0.25950
  -7   0   7   10.94    1.31   1 0.12789-0.20945-0.98156-0.74806-0.14204 0.62970
   7   0  -6    9.94    1.35   1-0.47835-0.13486-0.69923-0.97269 0.53126-0.18886
  -7   0   6    9.07    1.18   1 0.07236-0.27081-0.99413-0.71953-0.08036 0.63947
   7   0  -5    0.77    0.57   1-0.49790-0.14835-0.66806-0.98211 0.55297-0.11590
  -7   0   5    0.26    0.61   1 0.01746-0.33173-0.99965-0.68450-0.01939 0.64915
   7   0  -4    0.50    0.67   1-0.51907-0.16345-0.63103-0.98569 0.57649-0.04112
  -7   0   4    1.25    0.61   1-0.03680-0.39203-0.99848-0.64278 0.04087 0.65812
  -7   0   4    0.85    0.41   1-0.64059-0.99366-0.28893 0.06423-0.71144-0.09219
   7   0  -4    0.48    0.66   1-0.10380 0.25062 0.98789 0.63174-0.11529-0.73354
   7   0  -3    3.91    0.79   1-0.54129-0.17960-0.58787-0.98312 0.60117 0.03479
  -7   0   3    3.79    0.72   1-0.08967-0.45093-0.99097-0.59473 0.09959 0.66554
  -7   0   3    3.34    0.63   1-0.63018-0.98958-0.33619 0.05767-0.69988-0.13186
   7   0  -3    3.76    0.67   1-0.24262 0.11780 0.93194 0.53520-0.26946-0.83646
   7   0  -2    0.81    0.52   1-0.56386-0.19610-0.53841-0.97426 0.62623 0.11111
  -7   0   2    1.47    0.59   1-0.14037-0.50766-0.97774-0.54095 0.15590 0.67055
  -7   0   2    1.32    0.45   1-0.61832-0.98406-0.38221 0.05235-0.68671-0.16993
   7   0  -2    1.47    0.55   1-0.35967 0.00675 0.84325 0.40567-0.39945-0.91399
   7   0  -1    0.14    0.52   1-0.58600-0.21217-0.48273-0.95918 0.65082 0.18695
  -7   0   1   -0.14    0.55   1-0.18820-0.56151-0.95962-0.48228 0.20902 0.67238
  -7   0   1    0.12    0.61   1-0.60515-0.97723-0.42669 0.04858-0.67209-0.20654
   7   0  -1    0.02    0.50   1-0.44875-0.07626 0.74177 0.26368-0.49839-0.96159
   7   0   0    4.28    0.88   1-0.60690-0.22701-0.42110-0.93814 0.67404 0.26143
  -7   0   0    3.27    0.85   1-0.23256-0.61190-0.93765-0.41976 0.25829 0.67035
  -7   0   0    4.69    0.68   1-0.59080-0.96920-0.46948 0.04648-0.65615-0.24183
   7   0   1    2.93    0.80   1-0.62579-0.23983-0.35403-0.91167 0.69501 0.33365
  -7   0  -1    2.35    0.74   1-0.27300-0.65836-0.91298-0.35454 0.30320 0.66396
  -7   0  -1    3.02    0.75   1-0.57534-0.96008-0.51056 0.04610-0.63898-0.27589
   7   0   2    0.27    0.54   1-0.64192-0.24989-0.28226-0.88050 0.71292 0.40282
  -7   0  -2    0.54    0.57   1-0.30923-0.70062-0.88680-0.28782 0.34344 0.65290
  -7   0  -2    0.78    0.53   1-0.55881-0.95021-0.55005 0.04649-0.62062-0.30810
   7   0   3    3.06    0.64   1-0.65359-0.25277-0.21424-0.84974 0.72588 0.46264
  -7   0  -3    2.23    0.88   1-0.34113-0.73855-0.86028-0.22075 0.37886 0.63703
  -7   0  -3    2.81    0.76   1-0.54137-0.93913-0.58771 0.04955-0.60125-0.33995
   7   0   4   15.56    0.98   1-0.66291-0.25574-0.13599-0.81239 0.73624 0.52403
  -7   0  -4   15.16    0.99   1-0.36872-0.77216-0.83447-0.15439 0.40950 0.61637
  -7   0  -4   17.43    1.04   1-0.52300-0.92713-0.62374 0.05425-0.58086-0.37077
   7   0   5    2.21    0.66   1-0.66808-0.25456-0.05591-0.77321 0.74198 0.58080
  -7   0  -5    1.21    0.91   1-0.39214-0.80160-0.81027-0.08965 0.43551 0.59108
  -7   0  -5    1.79    0.66   1-0.50375-0.91424-0.65819 0.06054-0.55947-0.40060
   7   0   6    6.59    0.94   1-0.66892-0.24904 0.02501-0.73319 0.74291 0.63277
  -7   0  -6    6.66    0.96   1-0.41079-0.82709-0.78936-0.02873 0.45623 0.56132
  -7   0  -6    7.22    0.98   1-0.48363-0.90048-0.69107 0.06839-0.53712-0.42947
   7   0   7    0.23    0.70   1-0.66537-0.23914 0.10586-0.69324 0.73896 0.67986
  -7   0  -7    0.21    1.00   1-0.42657-0.84893-0.77044 0.03077 0.47375 0.52759
  -7   0  -7   -0.00    0.69   1-0.46264-0.88586-0.72245 0.07774-0.51382-0.45738
   7   0   7   -0.12    0.66   1-0.65276-0.23003 0.21979-0.58108-0.72497-0.78065
   7   1  -8    0.99    0.93   1-0.42851-0.02290-0.76804-0.94534 0.47591-0.32526
  -7  -1   8    0.11    0.72   1 0.19197-0.21360-0.95796-0.77993-0.21320 0.58828
   7   1  -7    0.65    0.78   1-0.44407-0.03239-0.74803-0.96593 0.49319-0.25673
  -7  -1   7    0.79    0.70   1 0.14169-0.26987-0.97732-0.75873-0.15736 0.59286
   7   1  -6    0.28    0.58   1-0.46215-0.04441-0.72316-0.98166 0.51327-0.18539
  -7  -1   6    0.10    0.65   1 0.09001-0.32743-0.99090-0.73121-0.09997 0.59842
   7   1  -5    3.48    0.72   1-0.48245-0.05863-0.69292-0.99202 0.53581-0.11160
  -7  -1   5    2.50    0.68   1 0.03885-0.38462-0.99831-0.69806-0.04314 0.60395
   7   1  -4    7.44    0.89   1-0.50452-0.07464-0.65687-0.99656 0.56033-0.03583
  -7  -1   4    7.34    0.96   1-0.01185-0.44136-0.99984-0.65905 0.01316 0.60897
   7   1  -3    8.99    0.97   1-0.52782-0.09187-0.61462-0.99491 0.58620 0.04129
  -7  -1   3    8.07    1.15   1-0.06145-0.49698-0.99577-0.61443 0.06825 0.61276
  -7  -1   3    4.89    0.83   1-0.54285-0.97681-0.58464-0.20672-0.60290-0.05561
   7   1  -3    8.74    1.22   1-0.23836 0.19635 0.93439 0.55234-0.26473-0.81016
   7   1  -2    9.40    1.12   1-0.55166-0.10965-0.56592-0.98681 0.61268 0.11903
  -7  -1   2    8.30    1.14   1-0.10928-0.55083-0.98657-0.56468 0.12136 0.61457
  -7  -1   2    6.06    0.81   1-0.53911-0.97943-0.59233-0.17368-0.59874-0.10267
   7   1  -1    3.85    0.85   1-0.57527-0.12719-0.51073-0.97221 0.63891 0.19650
  -7  -1   1    2.90    0.66   1-0.15470-0.60228-0.97290-0.51046 0.17181 0.61373
  -7  -1   1    2.79    0.59   1-0.53153-0.97822-0.60743-0.14805-0.59033-0.14548
   7   1   0   16.41    1.46   1-0.59782-0.14367-0.44920-0.95128 0.66394 0.27280
  -7  -1   0   18.43    1.69   1-0.19717-0.65078-0.95559-0.45261 0.21898 0.60960
  -7  -1   0   14.01    1.40   1-0.52141-0.97446-0.62671-0.12660-0.57909-0.18545
   7   1   1    7.25    0.87   1-0.61845-0.15823-0.38175-0.92443 0.68686 0.34696
  -7  -1  -1    7.24    1.08   1-0.23624-0.69587-0.93560-0.39207 0.26237 0.60169
  -7  -1  -1    7.26    1.08   1-0.50938-0.96879-0.64844-0.10760-0.56572-0.22330
   7   1   2    5.02    0.67   1-0.63637-0.17009-0.30904-0.89232 0.70676 0.41812
  -7  -1  -2    5.53    0.83   1-0.27157-0.73724-0.91393-0.32985 0.30161 0.58963
  -7  -1  -2    5.22    0.73   1-0.49579-0.96156-0.67156-0.08998-0.55063-0.25942
   7   1   3    7.33    0.82   1-0.65088-0.17853-0.23194-0.85581 0.72287 0.48549
  -7  -1  -3    7.36    0.86   1-0.30299-0.77468-0.89160-0.26697 0.33650 0.57322
  -7  -1  -3    7.19    1.00   1-0.48085-0.95299-0.69539-0.07308-0.53404-0.29405
   7   1   4   -0.10    0.82   1-0.66059-0.17918-0.15918-0.82049 0.73366 0.54284
  -7  -1  -4    1.00    0.89   1-0.33041-0.80813-0.86957-0.20439 0.36696 0.55239
  -7  -1  -4    0.46    0.79   1-0.46472-0.94321-0.71947-0.05643-0.51612-0.32734
   7   1   5    6.39    0.98   1-0.66716-0.17940-0.07650-0.77871 0.74096 0.60117
  -7  -1  -5    5.67    0.79   1-0.35390-0.83764-0.84868-0.14296 0.39304 0.52717
  -7  -1  -5    6.17    0.84   1-0.44747-0.93233-0.74349-0.03972-0.49697-0.35940
   7   1   5    4.91    0.78   1-0.65206-0.16760 0.22438-0.48019-0.72419-0.86099
   7   1   6   -0.54    0.92   1-0.66911-0.17499 0.00746-0.73564 0.74312 0.65437
  -7  -1  -6   -0.01    0.69   1-0.37355-0.86332-0.82965-0.08338 0.41487 0.49770
  -7  -1  -6    0.18    1.01   1-0.42918-0.92040-0.76720-0.02269-0.47665-0.39030
   7   1   6    0.41    0.78   1-0.65689-0.16610 0.19032-0.55495-0.72956-0.81513
   7   2  -7    3.32    0.93   1-0.43170 0.05423-0.76403-0.96698 0.47945-0.24901
  -7  -2   7    4.00    0.81   1 0.15940-0.32639-0.97121-0.76753-0.17703 0.55168
   7   2  -6    2.29    0.63   1-0.45024 0.04175-0.73975-0.98329 0.50004-0.17716
  -7  -2   6    2.33    1.01   1 0.11207-0.37971-0.98587-0.74164-0.12447 0.55297
   7   2  -5   13.15    1.37   1-0.47106 0.02700-0.71020-0.99433 0.52317-0.10278
  -7  -2   5   13.01    1.48   1 0.06396-0.43379-0.99542-0.71008-0.07103 0.55462
   7   2  -4    8.84    1.08   1-0.49377 0.01035-0.67486-0.99959 0.54839-0.02630
  -7  -2   4    7.96    1.10   1 0.01678-0.48699-0.99968-0.67379-0.01863 0.55572
   7   2  -3    1.71    0.76   1-0.51784-0.00763-0.63330-0.99863 0.57512 0.05167
  -7  -2   3    1.93    0.66   1-0.02951-0.53931-0.99902-0.63259 0.03277 0.55584
   7   2  -2    2.42    0.79   1-0.54259-0.02632-0.58518-0.99110 0.60261 0.13042
  -7  -2   2    2.20    0.66   1-0.07436-0.59019-0.99380-0.58682 0.08258 0.55435
  -7  -2   2    1.95    0.57   1-0.40456-0.91925-0.79651-0.39283-0.44931 0.02544
   7   2  -1    2.51    0.59   1-0.56727-0.04494-0.53033-0.97686 0.63002 0.20908
  -7  -2   1    2.10    0.89   1-0.11721-0.63906-0.98453-0.53700 0.13017 0.55064
  -7  -2   1    1.99    0.77   1-0.42084-0.94189-0.77745-0.33304-0.46739-0.04384
   7   2   0    0.66    0.54   1-0.59103-0.06262-0.46884-0.95596 0.65640 0.28671
  -7  -2   0    0.56    0.61   1-0.15755-0.68543-0.97188-0.48380 0.17498 0.54415
  -7  -2   0    0.23    0.79   1-0.42532-0.95274-0.77198-0.28683-0.47237-0.10004
   7   2   1   -0.01    0.53   1-0.61297-0.07849-0.40101-0.92873 0.68077 0.36234
  -7  -2  -1    0.16    0.60   1-0.19495-0.72886-0.95661-0.42798 0.21652 0.53439
  -7  -2  -1    0.13    0.83   1-0.42330-0.95707-0.77446-0.24858-0.47012-0.14901
   7   2   2    3.05    0.76   1-0.63224-0.09170-0.32743-0.89574 0.70217 0.43499
  -7  -2  -2    2.97    0.91   1-0.22907-0.76900-0.93957-0.37040 0.25441 0.52098
  -7  -2  -2    2.89    0.73   1-0.41707-0.95720-0.78198-0.21537-0.46320-0.19330
   7   2   3    1.67    0.85   1-0.64807-0.10146-0.24890-0.85782 0.71975 0.50382
  -7  -2  -3    0.83    0.65   1-0.25966-0.80562-0.92163-0.31191 0.28838 0.50366
  -7  -2  -3    1.55    0.70   1-0.40782-0.95432-0.79280-0.18545-0.45293-0.23424
   7   2   4    0.29    0.88   1-0.65889-0.10324-0.17422-0.82043 0.73177 0.56234
  -7  -2  -4    0.23    0.93   1-0.28659-0.83858-0.90363-0.25336 0.31829 0.48227
   7   2   4    0.20    0.61   1-0.65409-0.10156 0.21081-0.43817-0.72644-0.89313
   7   2   5    2.35    0.94   1-0.66647-0.10446-0.08907-0.77618 0.74019 0.62178
  -7  -2  -5    2.43    0.73   1-0.30981-0.86782-0.88635-0.19553 0.34408 0.45676
  -7  -2  -5    2.25    1.07   1-0.38276-0.94198-0.82023-0.13142-0.42510-0.30884
   7   2   5    1.23    0.90   1-0.65948-0.10062 0.16915-0.52053-0.73243-0.84789
   7   3  -7   -0.55    0.88   1-0.42366 0.13652-0.77401-0.96200 0.47053-0.23647
  -7  -3   7   -0.10    1.07   1 0.18055-0.37945-0.96290-0.77414-0.20053 0.50667
  -7  -3   6    0.03    0.72   1 0.13683-0.42918-0.97886-0.74954-0.15197 0.50396
   7   3  -5    0.72    0.57   1-0.46374 0.10857-0.72087-0.99005 0.51504-0.08945
  -7  -3   5    1.05    0.72   1 0.09293-0.47907-0.99030-0.72043-0.10321 0.50145
   7   3  -4    0.54    0.56   1-0.48688 0.09150-0.68595-0.99572 0.54074-0.01249
  -7  -3   4    0.51    0.95   1 0.04876-0.52928-0.99734-0.68636-0.05415 0.49876
   7   3  -3    2.03    0.79   1-0.51146 0.07299-0.64477-0.99514 0.56804 0.06605
  -7  -3   3    2.65    0.94   1 0.00583-0.57824-0.99996-0.64843-0.00647 0.49514
   7   3  -2    8.27    1.03   1-0.53683 0.05369-0.59693-0.98790 0.59621 0.14548
  -7  -3   2    8.33    1.13   1-0.03590-0.62600-0.99856-0.60648 0.03987 0.49019
   7   3  -1    3.17    0.60   1-0.56223 0.03435-0.54220-0.97376 0.62442 0.22494
  -7  -3   1    2.99    0.70   1-0.07596-0.67209-0.99353-0.56091 0.08436 0.48339
   7   3   0    6.47    0.69   1-0.58680 0.01585-0.48054-0.95270 0.65171 0.30349
  -7  -3   0    5.85    0.98   1-0.11389-0.71605-0.98540-0.51223 0.12649 0.47422
  -7  -3   0    6.18    0.81   1-0.30612-0.90790-0.88921-0.41903-0.33998 0.01104
   7   3   1    4.18    0.86   1-0.60964-0.00091-0.41218-0.92494 0.67707 0.38010
  -7  -3  -1    4.30    0.74   1-0.14928-0.75746-0.97479-0.46107 0.16579 0.46222
  -7  -3  -1    3.69    0.75   1-0.32038-0.92852-0.87791-0.36700-0.35582-0.05601
   7   3   2    6.40    0.92   1-0.62983-0.01504-0.33762-0.89098 0.69950 0.45378
  -7  -3  -2    5.88    1.01   1-0.18178-0.79599-0.96239-0.40812 0.20189 0.44702
  -7  -3  -2    4.25    0.90   1-0.32544-0.93995-0.87375-0.32211-0.36144-0.11285
   7   3   3    5.23    1.01   1-0.64654-0.02567-0.25762-0.85158 0.71806 0.52359
  -7  -3  -3    5.42    0.88   1-0.21112-0.83135-0.94892-0.35410 0.23447 0.42831
  -7  -3  -3    4.77    1.01   1-0.32454-0.94541-0.87449-0.28212-0.36044-0.16306
   7   3   3    5.59    0.87   1-0.65416-0.03356 0.21031-0.38308-0.72652-0.92310
   7   3   4    2.89    0.94   1-0.65807-0.02818-0.18099-0.81211 0.73087 0.58282
  -7  -3  -4    2.83    0.98   1-0.23711-0.86337-0.93511-0.29974 0.26333 0.40587
  -7  -3  -4    1.97    0.80   1-0.31943-0.94666-0.87869-0.24558-0.35476-0.20860
   7   3   4    2.22    0.94   1-0.66065-0.03373 0.15862-0.47547-0.73373-0.87908
   7   4  -5    2.10    0.63   1-0.46038 0.18619-0.72567-0.97989 0.51131-0.07172
  -7  -4   5    3.23    1.09   1 0.12429-0.52194-0.98259-0.72763-0.13804 0.44511
   7   4  -4    2.70    0.61   1-0.48380 0.16884-0.69081-0.98562 0.53731 0.00553
  -7  -4   4    2.16    0.75   1 0.08376-0.56856-0.99213-0.69606-0.09302 0.43844
   7   4  -3    7.41    1.06   1-0.50868 0.15002-0.64966-0.98506 0.56495 0.08443
  -7  -4   3    7.01    0.98   1 0.04428-0.61406-0.99780-0.66118-0.04918 0.43099
   7   4  -2    4.00    0.64   1-0.53442 0.13036-0.60175-0.97776 0.59353 0.16426
  -7  -4   2    3.44    1.00   1 0.00582-0.65855-0.99996-0.62279-0.00646 0.42241
   7   4  -1    3.39    0.62   1-0.56024 0.11061-0.54679-0.96339 0.62221 0.24419
  -7  -4   1    3.50    0.74   1-0.03121-0.70161-0.99891-0.58119 0.03466 0.41224
   7   4   0    2.82    0.75   1-0.58529 0.09163-0.48466-0.94186 0.65003 0.32326
  -7  -4   0    2.09    0.96   1-0.06641-0.74284-0.99506-0.53679 0.07375 0.40004
   7   4   1    0.50    0.84   1-0.60863 0.07435-0.41549-0.91329 0.67596 0.40044
  -7  -4  -1    0.66    0.68   1-0.09939-0.78185-0.98890-0.49009 0.11038 0.38537
   7   4   2    0.13    0.87   1-0.62933 0.05972-0.33972-0.87812 0.69894 0.47468
  -7  -4  -2   -0.09    0.66   1-0.12982-0.81830-0.98099-0.44163 0.14418 0.36787
   7   4   3   -0.59    0.90   1-0.64646 0.04865-0.25804-0.83704 0.71797 0.54497
  -7  -4  -3    0.27    0.68   1-0.15740-0.85191-0.97193-0.39202 0.17481 0.34720
   7   4   3    0.31    0.93   1-0.66027 0.03472 0.16215-0.41635-0.73330-0.90854
   7   5  -3    0.18    0.83   1-0.50941 0.22355-0.64838-0.96883 0.56576 0.10670
  -7  -5   3    0.52    0.73   1 0.08555-0.64707-0.99179-0.67007-0.09501 0.36372
   7   5  -2    0.48    0.59   1-0.53529 0.20374-0.60001-0.96105 0.59450 0.18669
  -7  -5   2    0.42    1.00   1 0.05053-0.68811-0.99714-0.63488-0.05612 0.35131
   7   5  -1    1.04    0.62   1-0.56127 0.18383-0.54441-0.94605 0.62336 0.26680
  -7  -5   1    1.09    0.72   1 0.01678-0.72789-0.99968-0.59687-0.01863 0.33750
   8  -6  -1    5.64    1.11   1-0.66636-0.68186-0.09084-0.72653 0.74007 0.08489
  -8   6   1    5.95    0.75   1-0.25082-0.23268-0.92708-0.28632 0.27856 0.92944
  -8   6   1    5.98    0.75   1-0.66412-0.64386 0.12209 0.76043-0.73758-0.08476
   8  -6  -1    5.32    0.89   1-0.24053-0.25974 0.93315 0.29301-0.26713-0.92015
   8  -6   0    1.23    0.72   1-0.66842-0.67757-0.04574-0.72234 0.74236 0.13822
  -8   6   0    1.30    0.65   1-0.30080-0.28869-0.89325-0.21194 0.33408 0.93366
  -8   6   0    1.92    0.63   1-0.66773-0.65380 0.06456 0.74359-0.74159-0.14000
   8  -6   0    1.83    0.84   1-0.29254-0.30575 0.89936 0.21862-0.32490-0.92667
   8  -6   1   10.19    1.18   1-0.66913-0.67192 0.00167-0.71582 0.74314 0.19003
  -8   6  -1   10.37    1.22   1-0.34472-0.33864-0.85707-0.13521 0.38286 0.93114
  -8   6  -1   10.81    1.24   1-0.66912-0.66152 0.00498 0.72472-0.74313-0.19278
   8  -6   1    8.08    1.25   1-0.33938-0.34658 0.86183 0.14050-0.37691-0.92743
   8  -6   2    0.12    0.71   1-0.66826-0.66470 0.05093-0.70746 0.74217 0.24011
  -8   6  -2    0.38    0.96   1-0.38274-0.38268-0.82025-0.05784 0.42507 0.92206
  -8   6  -2   -0.11    0.56   1-0.66808-0.66681-0.05589 0.70453-0.74198-0.24286
   8  -6   2   -0.14    1.01   1-0.38233-0.38357 0.82067 0.05821-0.42462-0.92167
   8  -6   3    3.28    1.11   1-0.66567-0.65576 0.10154-0.69776 0.73930 0.28826
  -8   6  -3    3.69    0.77   1-0.41439-0.42121-0.78515 0.01731 0.46023 0.90679
  -8   6  -3    3.84    0.64   1-0.66450-0.66957-0.11739 0.68374-0.73800-0.29011
   8  -6   3    3.84    0.82   1-0.41827-0.41344 0.78053-0.02243-0.46454-0.91025
   8  -5  -3    3.05    1.06   1-0.64717-0.60249-0.25408-0.79799 0.71875-0.01386
  -8   5   3    2.60    0.67   1-0.13554-0.17962-0.97926-0.43450 0.15053 0.88257
  -8   5   3    2.65    0.91   1-0.65922-0.70069 0.17141 0.71345-0.73214 0.00179
   8  -5  -3    1.91    0.67   1-0.14606-0.10299 0.97588 0.43160-0.16222-0.89616
   8  -5  -2    7.31    0.98   1-0.65290-0.60051-0.21890-0.79860 0.72512 0.04029
  -8   5   2    7.30    0.92   1-0.19355-0.24366-0.95724-0.37194 0.21496 0.89570
  -8   5   2    7.74    0.93   1-0.66454-0.71234 0.11689 0.69964-0.73804-0.05533
   8  -5  -2    7.44    0.93   1-0.21113-0.16205 0.94891 0.36405-0.23448-0.91717
   8  -5  -1    0.95    0.96   1-0.65902-0.60028-0.17314-0.79374 0.73192 0.09813
  -8   5   1    0.80    0.64   1-0.24664-0.30278-0.92958-0.30373 0.27392 0.90336
  -8   5   1    0.99    0.59   1-0.66794-0.72207 0.05950 0.68295-0.74182-0.11035
   8  -5  -1    1.24    0.63   1-0.27125-0.21618 0.91414 0.28869-0.30125-0.93269
   8  -5   0    8.11    1.02   1-0.66394-0.59884-0.12429-0.78579 0.73738 0.15462
  -8   5   0    8.36    1.11   1-0.29440-0.35656-0.89800-0.23160 0.32696 0.90510
  -8   5   0   10.40    1.21   1-0.66913-0.72959 0.00004 0.66419-0.74314-0.16290
   8  -5   0    7.11    1.05   1-0.32557-0.26450 0.87364 0.20759-0.36159-0.94177
   8  -5   1    0.70    0.95   1-0.66735-0.59590-0.07285-0.77525 0.74116 0.20945
  -8   5  -1    1.19    0.93   1-0.33667-0.40485-0.86420-0.15724 0.37391 0.90075
  -8   5  -1    0.63    0.56   1-0.66789-0.73469-0.06067 0.64416-0.74177-0.21276
   8  -5   1    0.54    0.83   1-0.37523-0.30820 0.82796 0.12080-0.41674-0.94361
   8  -5   2    0.96    0.68   1-0.66900-0.59120-0.01935-0.76266 0.74300 0.26232
  -8   5  -2    0.44    0.65   1-0.37351-0.44773-0.82969-0.08219 0.41483 0.89038
  -8   5  -2    1.06    0.56   1-0.66413-0.73727-0.12191 0.62363-0.73760-0.25982
   8  -5   3    3.78    0.79   1-0.66870-0.58455 0.03567-0.74853 0.74267 0.31302
  -8   5  -3    4.00    0.75   1-0.40438-0.48545-0.79672-0.00922 0.44911 0.87421
  -8   5  -3    3.80    0.83   1-0.65783-0.73729-0.18297 0.60327-0.73059-0.30405
   8  -5   3    2.99    0.80   1-0.45219-0.37302 0.73709-0.05109-0.50220-0.92641
   8  -5   4    0.67    1.04   1-0.66630-0.57580 0.09174-0.73337 0.74001 0.36139
  -8   5  -4    0.47    0.95   1-0.43123-0.51838-0.76462 0.06347 0.47894 0.85278
  -8   5  -4    0.10    0.68   1-0.64902-0.73482-0.24328 0.58365-0.72081-0.34551
   8  -4  -4    2.70    0.74   1-0.62179-0.50892-0.36944-0.85780 0.69056-0.07184
  -8   4   4    3.03    0.69   1-0.07315-0.18548-0.99400-0.50470 0.08124 0.84313
  -8   4   4    2.90    0.69   1-0.66160-0.77114 0.14954 0.63599-0.73478 0.02904
   8  -4  -4    1.92    0.73   1-0.09112 0.02023 0.99068 0.50169-0.10120-0.86480
   8  -4  -3   -0.27    0.94   1-0.63176-0.51283-0.32947-0.85843 0.70165-0.00951
  -8   4   3   -0.14    0.61   1-0.13181-0.25016-0.98040-0.45055 0.14639 0.85698
  -8   4   3    0.57    0.81   1-0.66606-0.78193 0.09561 0.62277-0.73974-0.02714
   8  -4  -3    0.20    0.87   1-0.16638-0.04902 0.96859 0.43900-0.18478-0.89714
   8  -4  -2    2.91    0.70   1-0.64133-0.51633-0.28522-0.85478 0.71227 0.05236
  -8   4   2    3.38    0.70   1-0.18676-0.31114-0.96025-0.38985 0.20742 0.86671
  -8   4   2    3.45    0.64   1-0.66862-0.79082 0.03877 0.60662-0.74258-0.08122
   8  -4  -2    3.16    0.88   1-0.23672-0.11336 0.93532 0.36515-0.26291-0.92401
   8  -4  -1    0.49    0.63   1-0.65005-0.51898-0.23708-0.84723 0.72195 0.11330
  -8   4   1    0.57    0.89   1-0.23738-0.36779-0.93495-0.32400 0.26363 0.87163
  -8   4   1    1.10    0.56   1-0.66899-0.79753-0.02008 0.58846-0.74299-0.13286
   8  -4  -1    0.46    0.59   1-0.30070-0.17134 0.89333 0.28257-0.33396-0.94382
   8  -4   0    0.38    0.63   1-0.65657-0.51723-0.19281-0.83922 0.72920 0.16783
  -8   4   0   -0.33    0.89   1-0.28323-0.41967-0.90599-0.25449 0.31456 0.87126
  -8   4   0   -0.31    0.74   1-0.66698-0.80184-0.08007 0.56917-0.74075-0.18186
   8  -4   0    0.16    0.62   1-0.35911-0.22381 0.84378 0.19193-0.39883-0.95554
   8  -4   1    9.02    1.07   1-0.66269-0.51700-0.13838-0.82570 0.73599 0.22566
  -8   4  -1    8.78    1.04   1-0.32412-0.46658-0.87484-0.18280 0.35997 0.86537
  -8   4  -1    8.29    0.92   1-0.66250-0.80370-0.14038 0.54956-0.73578-0.22812
   8  -4   1    7.92    1.08   1-0.40805-0.26668 0.79253 0.10016-0.45318-0.95856
   8  -4   2    1.82    0.96   1-0.66690-0.51486-0.08156-0.80978 0.74066 0.28137
  -8   4  -2    1.35    0.66   1-0.36003-0.50851-0.84290-0.11031 0.39985 0.85395
  -8   4  -2    1.74    0.55   1-0.65556-0.80309-0.20033 0.53032-0.72807-0.27165
   8  -4   2    1.02    0.70   1-0.44949-0.30206 0.74076 0.00788-0.49921-0.95325
   8  -4   3   14.44    1.43   1-0.66895-0.51056-0.02290-0.79202 0.74295 0.33468
  -8   4  -3   13.68    1.61   1-0.39109-0.54561-0.81140-0.03826 0.43435 0.83716
  -8   4  -3   13.95    1.40   1-0.64623-0.80010-0.25933 0.51201-0.71771-0.31252
   8  -4   4    0.50    0.71   1-0.66867-0.50392 0.03703-0.77299 0.74263 0.38540
  -8   4  -4    1.18    0.68   1-0.41681-0.57821-0.78228 0.03084 0.46291 0.81530
  -8   4  -4    0.89    0.55   1-0.63463-0.79482-0.31694 0.49511-0.70483-0.35087
   8  -4   5    4.02    1.13   1-0.66592-0.49483 0.09772-0.75319 0.73958 0.43339
  -8   4  -5    3.72    0.89   1-0.43910-0.60658-0.75455 0.09918 0.48767 0.78881
  -8   4  -5    4.57    0.64   1-0.62088-0.78741-0.37282 0.47992-0.68956-0.38683
   8  -3  -5    4.16    0.77   1-0.59091-0.40986-0.46915-0.90196 0.65628-0.13592
  -8   3   5    3.37    0.97   1-0.00939-0.18997-0.99990-0.56604 0.01043 0.80218
  -8   3   5    3.44    0.77   1-0.66549-0.84309 0.10412 0.53498-0.73910 0.05461
   8  -3  -5    2.11    0.94   1-0.01254 0.16709 0.99982 0.56611-0.01393-0.80721
   8  -3  -4    5.72    1.11   1-0.60308-0.41596-0.43319-0.90659 0.66979-0.07115
  -8   3   4    4.93    1.03   1-0.06732-0.25392-0.99492-0.52052 0.07476 0.81521
  -8   3   4    5.29    0.77   1-0.66823-0.85217 0.05170 0.52326-0.74215 0.00033
   8  -3  -4    3.57    0.86   1-0.10015 0.08549 0.98873 0.51443-0.11122-0.85325
   8  -3  -3    3.02    0.70   1-0.61544-0.42225-0.39245-0.90645 0.68352-0.00617
  -8   3   3    2.97    0.91   1-0.12276-0.31538-0.98302-0.46807 0.13634 0.82548
  -8   3   3    3.19    0.79   1-0.66912-0.85939-0.00358 0.50867-0.74313-0.05188
   8  -3  -3    3.05    0.80   1-0.18353 0.00810 0.96164 0.44675-0.20384-0.89462
   8  -3  -2    5.14    1.05   1-0.62751-0.42825-0.34716-0.90176 0.69692 0.05847
  -8   3   2    4.63    1.00   1-0.17498-0.37363-0.96520-0.40970 0.19433 0.83218
  -8   3   2    5.13    0.74   1-0.66789-0.86449-0.06072 0.49223-0.74177-0.10175
   8  -3  -2    4.99    0.80   1-0.26027-0.06263 0.92124 0.36576-0.28906-0.92859
   8  -3  -1    3.97    0.71   1-0.63880-0.43348-0.29763-0.89282 0.70946 0.12227
  -8   3   1    4.35    0.94   1-0.22338-0.42806-0.94262-0.34658 0.24809 0.83464
  -8   3   1    4.65    0.62   1-0.66439-0.86732-0.11877 0.47488-0.73788-0.14910
   8  -3  -1    3.63    0.91   1-0.32865-0.12501 0.87106 0.27499-0.36500-0.95328
   8  -3   0    8.94    1.14   1-0.64885-0.43746-0.24427-0.88006 0.72063 0.18469
  -8   3   0    8.41    1.01   1-0.26754-0.47825-0.91658-0.27999 0.29713 0.83239
  -8   3   0    8.72    1.06   1-0.65857-0.86784-0.17690 0.45745-0.73142-0.19387
   8  -3   0    8.60    1.28   1-0.38951-0.17987 0.81310 0.17604-0.43259-0.96780
   8  -3   1    2.73    0.68   1-0.65628-0.43636-0.19497-0.86719 0.72888 0.23993
  -8   3  -1    2.44    0.67   1-0.30720-0.52394-0.88837-0.21123 0.34118 0.82514
  -8   3  -1    2.99    0.57   1-0.65048-0.86608-0.23443 0.44062-0.72243-0.23612
   8  -3   2    8.79    1.05   1-0.66295-0.43667-0.13557-0.84870 0.73628 0.29837
  -8   3  -2    8.44    1.19   1-0.34229-0.56505-0.85925-0.14156 0.38015 0.81281
  -8   3  -2    8.74    0.94   1-0.64020-0.86213-0.29082 0.42493-0.71102-0.27594
   8  -3   2    5.99    1.20   1-0.48015-0.25838 0.69647-0.02161-0.53326-0.96579
   8  -3   3    0.34    0.95   1-0.66729-0.43466-0.07397-0.82800 0.74110 0.35422
  -8   3  -3    0.19    0.63   1-0.37288-0.60166-0.83033-0.07210 0.41412 0.79548
  -8   3  -3    0.99    0.76   1-0.62788-0.85614-0.34567 0.41078-0.69733-0.31348
   8  -3   4    1.50    1.00   1-0.66909-0.43010-0.01076-0.80569 0.74310 0.40725
  -8   3  -4    1.27    0.66   1-0.39914-0.63395-0.80260-0.00382 0.44329 0.77335
  -8   3  -4    1.13    0.55   1-0.61364-0.84823-0.39871 0.39844-0.68151-0.34890
   8  -3   5    3.82    0.80   1-0.66817-0.42283 0.05346-0.78237 0.74208 0.45727
  -8   3  -5    3.62    0.75   1-0.42056-0.66229-0.77778 0.06098 0.46708 0.74675
  -8   3  -5    3.53    0.65   1-0.59763-0.83855-0.44976 0.38809-0.66373-0.38235
   8  -2  -5    2.75    0.72   1-0.57109-0.31578-0.52112-0.93896 0.63426-0.13648
  -8   2   5    2.78    0.95   1-0.00182-0.25667-0.99999-0.58105 0.00203 0.77233
  -8   2   5    2.74    0.62   1-0.66888-0.92088-0.02725 0.38871-0.74286 0.02950
   8  -2  -4    3.50    0.84   1-0.58511-0.32373-0.48514-0.94357 0.64983-0.06966
  -8   2   4    3.52    0.94   1-0.05642-0.31730-0.99643-0.53694 0.06266 0.78167
  -8   2   4    3.76    0.78   1-0.66707-0.92541-0.07822 0.37844-0.74086-0.01972
   8  -2  -4    2.57    0.80   1-0.10232 0.15759 0.98823 0.52863-0.11364-0.83409
   8  -2  -3    1.37    0.63   1-0.59948-0.33204-0.44422-0.94326 0.66579-0.00244
  -8   2   3    0.83    0.90   1-0.10889-0.37580-0.98666-0.48662 0.12094 0.78864
  -8   2   3    1.07    0.52   1-0.66337-0.92803-0.13092 0.36643-0.73674-0.06684
   8  -2  -3    0.98    0.65   1-0.19647 0.06944 0.95591 0.45572-0.21821-0.88740
   8  -2  -2    2.99    0.67   1-0.61370-0.34019-0.39850-0.93813 0.68158 0.06460
  -8   2   2    3.04    0.69   1-0.15858-0.43151-0.97150-0.43092 0.17612 0.79253
  -8   2   2    3.58    0.74   1-0.65766-0.92865-0.18436 0.35370-0.73040-0.11173
   8  -2  -2    3.85    0.90   1-0.28128-0.00935 0.90735 0.36656-0.31239-0.93034
   8  -2  -1    0.19    0.87   1-0.62725-0.34767-0.34820-0.92843 0.69663 0.13090
  -8   2   1    0.40    0.62   1-0.20491-0.48387-0.95195-0.37081 0.22758 0.79269
  -8   2   1    0.31    0.51   1-0.64994-0.92728-0.23772 0.34104-0.72184-0.15440
   8  -2  -1    0.09    0.62   1-0.35671-0.07881 0.84605 0.26429-0.39617-0.96121
   8  -2   0    4.20    0.70   1-0.63962-0.35397-0.29368-0.91450 0.71037 0.19589
  -8   2   0    4.10    0.83   1-0.24747-0.53245-0.92909-0.30740 0.27485 0.78866
  -8   2   0    4.12    0.59   1-0.64029-0.92396-0.29038 0.32908-0.71112-0.19492
   8  -2   1    1.52    0.65   1-0.65032-0.35861-0.23540-0.89682 0.72226 0.25903
  -8   2  -1    1.03    0.88   1-0.28598-0.57698-0.90406-0.24183 0.31761 0.78012
  -8   2  -1    2.14    0.75   1-0.62881-0.91881-0.34187 0.31829-0.69836-0.23340
  -8   2  -2   -0.03    0.61   1-0.32029-0.61733-0.87799-0.17521 0.35572 0.76694
  -8   2  -2    0.04    0.52   1-0.61561-0.91194-0.39187 0.30899-0.68370-0.26997
   8  -2   3    8.68    1.05   1-0.66450-0.35762-0.11741-0.85635 0.73800 0.37251
  -8   2  -3    7.48    0.96   1-0.35042-0.65348-0.85189-0.10857 0.38919 0.74910
  -8   2  -3    9.38    1.02   1-0.60081-0.90347-0.44017 0.30138-0.66727-0.30477
   8  -2   4    1.26    0.69   1-0.66824-0.35501-0.05144-0.83128 0.74216 0.42770
  -8   2  -4    0.84    0.92   1-0.37648-0.68556-0.82669-0.04282 0.41812 0.72674
  -8   2  -4    1.49    0.87   1-0.58454-0.89353-0.48666 0.29560-0.64920-0.33793
   8  -2   5   12.58    1.09   1-0.66904-0.34946 0.01586-0.80487 0.74305 0.47962
  -8   2  -5   11.10    0.91   1-0.39864-0.71376-0.80315 0.02126 0.44274 0.70006
  -8   2  -5   10.96    0.84   1-0.56690-0.88275-0.53123 0.29102-0.62961-0.36884
   8  -1  -5    2.57    0.95   1-0.55327-0.22371-0.56240-0.96528 0.61447-0.13480
  -8   1   5    2.18    0.84   1 0.01049-0.31862-0.99987-0.59583-0.01166 0.73719
   8  -1  -4    1.73    0.64   1-0.56879-0.23316-0.52669-0.97017 0.63171-0.06631
  -8   1   4    1.14    0.67   1-0.04096-0.37611-0.99812-0.55353 0.04549 0.74305
   8  -1  -3    4.02    0.81   1-0.58482-0.24312-0.48591-0.96999 0.64951 0.00273
  -8   1   3    2.39    0.69   1-0.09062-0.43179-0.99078-0.50565 0.10064 0.74690
  -8   1   3    3.39    0.56   1-0.64030-0.97937-0.29034 0.19213-0.71113-0.06257
   8  -1  -3    3.36    0.73   1-0.20339 0.13681 0.95267 0.46717-0.22589-0.87351
   8  -1  -2   10.30    1.10   1-0.60084-0.25307-0.44010-0.96478 0.66730 0.07177
  -8   1   2    9.79    1.10   1-0.13786-0.48506-0.97854-0.45286 0.15311 0.74808
  -8   1   2   10.32    1.13   1-0.63091-0.97631-0.33311 0.19006-0.70070-0.10337
   8  -1  -2   12.22    1.26   1-0.29897 0.04723 0.89462 0.36853-0.33204-0.92841
   8  -1  -1    1.95    0.63   1-0.61630-0.26247-0.38942-0.95469 0.68447 0.14020
  -8   1   1    1.00    0.88   1-0.18218-0.53541-0.96222-0.39598 0.20233 0.74600
  -8   1   1    1.10    0.51   1-0.62004-0.97178-0.37592 0.18794-0.68863-0.14254
   8  -1   0    5.36    0.94   1-0.63066-0.27076-0.33417-0.94003 0.70042 0.20740
  -8   1   0    4.76    0.95   1-0.22316-0.58241-0.94274-0.33596 0.24784 0.74021
  -8   1   0    5.46    0.81   1-0.60777-0.96583-0.41830 0.18627-0.67500-0.18014
   8  -1   0    5.12    0.80   1-0.44501-0.08671 0.74678 0.13929-0.49424-0.98644
   8  -1   1    5.70    0.87   1-0.64337-0.27740-0.27474-0.92121 0.71454 0.27278
  -8   1  -1    5.80    0.75   1-0.26049-0.62577-0.92111-0.27378 0.28930 0.73037
  -8   1  -1    6.15    0.69   1-0.59417-0.95856-0.45988 0.18539-0.65989-0.21627
   8  -1   2    5.72    0.85   1-0.65286-0.27809-0.21917-0.90211 0.72507 0.32993
  -8   1  -2    5.43    0.96   1-0.29400-0.66531-0.89829-0.21042 0.32652 0.71629
  -8   1  -2    5.79    1.01   1-0.57931-0.95003-0.50044 0.18553-0.64339-0.25100
   8  -1   3    4.94    0.83   1-0.66123-0.28011-0.15321-0.87705 0.73436 0.39026
  -8   1  -3    5.58    0.86   1-0.32363-0.70097-0.87525-0.14682 0.35943 0.69791
  -8   1  -3    5.13    0.79   1-0.56323-0.94072-0.53988 0.18594-0.62553-0.28365
   8  -1   4    5.79    1.11   1-0.66671-0.27924-0.08487-0.84962 0.74046 0.44739
  -8   1  -4    5.06    0.85   1-0.34943-0.73279-0.85280-0.08383 0.38808 0.67526
  -8   1  -4    5.22    1.04   1-0.54604-0.92990-0.57797 0.18858-0.60644-0.31577
   8   0  -5    0.89    0.65   1-0.53807-0.13425-0.59443-0.98235 0.59759-0.13022
  -8   0   5    0.59    0.70   1 0.02710-0.37629-0.99917-0.61004-0.03009 0.69731
   8   0  -4    6.61    0.97   1-0.55478-0.14489-0.55908-0.98760 0.61615-0.06042
  -8   0   4    6.04    0.90   1-0.02134-0.43077-0.99949-0.56980 0.02370 0.69982
   8   0  -3    6.56    0.88   1-0.57213-0.15617-0.51856-0.98767 0.63541 0.01010
  -8   0   3    6.47    1.14   1-0.06825-0.48370-0.99478-0.52455 0.07580 0.70062
   8   0  -2    4.93    0.78   1-0.58960-0.16757-0.47283-0.98254 0.65482 0.08076
  -8   0   2    4.75    1.04   1-0.11309-0.53456-0.98561-0.47483 0.12560 0.69911
  -8   0   2    4.01    0.78   1-0.57801-0.99781-0.50378 0.00449-0.64194-0.06597
   8   0  -2    5.07    0.86   1-0.31210 0.10839 0.88455 0.37314-0.34662-0.92141
   8   0  -1    0.98    0.85   1-0.60663-0.17854-0.42197-0.97228 0.67374 0.15093
  -8   0   1    0.67    0.64   1-0.15537-0.58287-0.97266-0.42134 0.17256 0.69478
  -8   0   1    0.64    0.57   1-0.56785-0.99426-0.52896 0.01897-0.63066-0.10522
   8   0   0    2.55    0.65   1-0.62264-0.18848-0.36622-0.95712 0.69151 0.21996
  -8   0   0    2.69    0.70   1-0.19470-0.62823-0.95672-0.36485 0.21624 0.68716
  -8   0   0    2.55    0.61   1-0.55630-0.98908-0.55568 0.03297-0.61784-0.14362
   8   0   1    0.19    0.60   1-0.63704-0.19682-0.30592-0.93742 0.70751 0.28721
  -8   0  -1    0.17    0.90   1-0.23077-0.67033-0.93864-0.30622 0.25630 0.67593
  -8   0  -1    0.27    0.82   1-0.54337-0.98251-0.58357 0.04582-0.60347-0.18047
   8   0   2    2.31    0.89   1-0.64931-0.20301-0.24158-0.91368 0.72113 0.35208
  -8   0  -2    2.12    0.69   1-0.26337-0.70895-0.91927-0.24630 0.29251 0.66083
  -8   0  -2    2.78    0.70   1-0.52917-0.97468-0.61201 0.05811-0.58771-0.21592
   8   0   3    1.68    0.92   1-0.65802-0.20267-0.18141-0.89016 0.73081 0.40809
  -8   0  -3    1.46    0.98   1-0.29240-0.74400-0.89946-0.18595 0.32474 0.64177
  -8   0  -3    2.34    0.98   1-0.51381-0.96567-0.64059 0.07026-0.57064-0.25006
   8   0   4   -0.12    0.66   1-0.66499-0.20328-0.11099-0.86064 0.73855 0.46686
  -8   0  -4    0.31    0.70   1-0.31782-0.77545-0.87999-0.12593 0.35297 0.61871
  -8   0  -4    0.07    0.69   1-0.49733-0.95556-0.66900 0.08258-0.55234-0.28298
   8   1  -4   -0.22    0.86   1-0.54348-0.05933-0.58335-0.99690 0.60359-0.05151
  -8  -1   4    0.18    0.97   1 0.00208-0.48161-0.99999-0.58521-0.00231 0.65235
   8   1  -3    1.95    0.64   1-0.56185-0.07164-0.54307-0.99722 0.62400 0.02015
  -8  -1   3    2.09    0.72   1-0.04208-0.53181-0.99801-0.54269 0.04674 0.65012
   8   1  -2    2.35    0.86   1-0.58047-0.08418-0.49743-0.99218 0.64467 0.09207
  -8  -1   2    1.12    0.68   1-0.08448-0.58023-0.99199-0.49612 0.09382 0.64590
   8   1  -1    1.65    0.61   1-0.59874-0.09639-0.44645-0.98180 0.66497 0.16362
  -8  -1   1    1.84    0.95   1-0.12465-0.62642-0.98249-0.44607 0.13844 0.63922
   8   1   0   10.39    1.08   1-0.61606-0.10764-0.39028-0.96623 0.68420 0.23411
  -8  -1   0   11.03    1.26   1-0.16222-0.67002-0.97016-0.39319 0.18016 0.62965
  -8  -1   0    8.50    1.09   1-0.48223-0.98938-0.69325-0.11955-0.53557-0.08266
   8   1   1    0.40    0.87   1-0.63182-0.11733-0.32923-0.94577 0.70171 0.30287
  -8  -1  -1    0.26    0.67   1-0.19688-0.71071-0.95573-0.33821 0.21866 0.61684
  -8  -1  -1    0.53    0.93   1-0.47446-0.98797-0.70512-0.09070-0.52694-0.12524
   8   1   2    4.50    0.97   1-0.64543-0.12488-0.26376-0.92090 0.71682 0.36924
  -8  -1  -2    3.84    1.00   1-0.22840-0.74825-0.93994-0.28187 0.25366 0.60055
  -8  -1  -2    3.53    0.75   1-0.46426-0.98412-0.72014-0.06498-0.51561-0.16512
  -8  -1  -3    4.26    0.83   1-0.45210-0.97833-0.73720-0.04131-0.50211-0.20284
   8   2  -3    0.14    0.73   1-0.55427 0.01019-0.56020-0.99939 0.61558 0.03319
  -8  -2   3    0.58    0.87   1-0.01238-0.57638-0.99982-0.55941 0.01375 0.59568
   8   2  -2    9.54    0.90   1-0.57374-0.00320-0.51456-0.99435 0.63721 0.10607
  -8  -2   2    8.27    1.12   1-0.05225-0.62227-0.99694-0.51598 0.05803 0.58867
   8   2  -1    8.00    0.76   1-0.59295-0.01634-0.46338-0.98377 0.65854 0.17865
  -8  -2   1    8.36    0.88   1-0.09019-0.66623-0.99087-0.46936 0.10016 0.57950
   8   2   0    3.16    0.80   1-0.61127-0.02859-0.40677-0.96775 0.67888 0.25025
  -8  -2   0    2.57    1.00   1-0.12583-0.70790-0.98215-0.42009 0.13975 0.56778
   8   2   1    0.09    0.87   1-0.62805-0.03931-0.34496-0.94655 0.69752 0.32014
  -8  -2  -1    0.11    0.70   1-0.15887-0.74697-0.97140-0.36879 0.17644 0.55318
  -8  -2  -1    0.16    0.94   1-0.38724-0.97511-0.81552-0.21606-0.43007-0.04968
;
_shelx_hkl_checksum              33322
_shelx_res_file
;
TITL proc1
CELL 0.71075 6.6505 9.3580 11.0060 100.280 90.461 100.884
ZERR 2 0.0005 0.0007 0.0008 0.006 0.006 0.006
LATT 1
SFAC  C   H   Br   N   O
UNIT 32 20 2 2 6
omit 0 0 1
LIST 4 ! automatically inserted. Change 6 to 4 for CHECKCIF!!
temp -153
size 0.46 0.22 0.05
mpla 6 c311 c312 c313 c314 c315 c316 o3 c31 n3
mpla 10 o1 c2 c3 c4 c4a c5 c6 c7 c8 c8a o3 c31 n3
mpla 3 o3 c31 n3
mpla 6 c311 c312 c313 c314 c315 c316
mpla 13 o1 c2 c3 c4 c4a c5 c6 c7 c8 c8a o3 c31 n3
L.S. 4
BOND $h
conf
acta 50
eqiv $1 1+x,y,z
eqiv $2 -1+x,y,z
htab n3 o4
htab c312 O3
htab c2 o4_$1
htab c316 o3_$2
FMAP 2
PLAN 20
WGHT    0.025400
FVAR       0.18278
MOLE   1
BR14  3    0.101487    0.283070    0.969277    11.00000    0.02998    0.03136 =
         0.02276    0.01411    0.00436    0.00465
O1    5    0.885987    0.942454    0.349997    11.00000    0.01275    0.02378 =
         0.02627    0.00940    0.00143    0.00260
O3    5    0.783383    0.683290    0.608905    11.00000    0.01472    0.02973 =
         0.02795    0.01132   -0.00206    0.00580
O4    5    0.288389    0.791116    0.421892    11.00000    0.01232    0.02928 =
         0.02657    0.01330    0.00093    0.00415
N3    4    0.433821    0.649477    0.585992    11.00000    0.01279    0.01908 =
         0.01903    0.00730   -0.00079    0.00383
H3    2    0.340842    0.674288    0.544607    11.00000    0.03222
C2    1    0.835851    0.852201    0.430990    11.00000    0.01555    0.01848 =
         0.02022    0.00398   -0.00072    0.00454
AFIX  43
H2    2    0.945003    0.822610    0.470114    11.00000   -1.20000
AFIX   0
C3    1    0.643990    0.799445    0.462065    11.00000    0.01449    0.01501 =
         0.01729    0.00133   -0.00089    0.00390
C4    1    0.470291    0.835407    0.400290    11.00000    0.01437    0.01589 =
         0.01707    0.00149   -0.00034    0.00422
C4A   1    0.526038    0.931308    0.309110    11.00000    0.01774    0.01707 =
         0.01506    0.00265    0.00024    0.00354
C5    1    0.376316    0.974651    0.240889    11.00000    0.01708    0.02282 =
         0.01919    0.00382    0.00099    0.00579
AFIX  43
H5    2    0.235198    0.939364    0.251633    11.00000   -1.20000
AFIX   0
C6    1    0.432971    1.067810    0.158718    11.00000    0.02602    0.02662 =
         0.01983    0.00803    0.00100    0.00939
AFIX  43
H6    2    0.330745    1.095562    0.112020    11.00000   -1.20000
AFIX   0
C7    1    0.640401    1.122284    0.143187    11.00000    0.03028    0.02059 =
         0.01992    0.00707    0.00545    0.00550
AFIX  43
H7    2    0.677812    1.187995    0.087023    11.00000   -1.20000
AFIX   0
C8    1    0.790413    1.081316    0.208692    11.00000    0.02035    0.02114 =
         0.02466    0.00537    0.00615    0.00203
AFIX  43
H8    2    0.931346    1.118406    0.198948    11.00000   -1.20000
AFIX   0
C8A   1    0.730383    0.984246    0.289494    11.00000    0.01577    0.01669 =
         0.01812    0.00247    0.00085    0.00454
C311  1    0.367820    0.562360    0.674899    11.00000    0.01680    0.01421 =
         0.01618    0.00242    0.00060    0.00422
C312  1    0.500778    0.518085    0.753347    11.00000    0.01686    0.01842 =
         0.01903    0.00325   -0.00152    0.00339
AFIX  43
H312  2    0.644886    0.545619    0.747579    11.00000   -1.20000
AFIX   0
C313  1    0.421167    0.433642    0.839765    11.00000    0.02222    0.02248 =
         0.01680    0.00378   -0.00274    0.00767
AFIX  43
H313  2    0.510673    0.402564    0.892980    11.00000   -1.20000
AFIX   0
C314  1    0.211003    0.394864    0.848166    11.00000    0.02534    0.01743 =
         0.01434    0.00388    0.00272    0.00387
C315  1    0.077376    0.436857    0.770194    11.00000    0.01685    0.02070 =
         0.02149    0.00400    0.00215    0.00299
AFIX  43
H315  2   -0.066579    0.408459    0.776097    11.00000   -1.20000
AFIX   0
C316  1    0.155797    0.520413    0.683853    11.00000    0.01640    0.02056 =
         0.01956    0.00531   -0.00134    0.00596
AFIX  43
H316  2    0.065173    0.549667    0.630104    11.00000   -1.20000
AFIX   0
C31   1    0.628390    0.705272    0.559235    11.00000    0.01541    0.01702 =
         0.01807    0.00195   -0.00025    0.00481
MOLE   2
HKLF 4
REM  proc1
REM R1 =  0.0267 for    2525 Fo > 4sig(Fo)  and  0.0340 for all    3017 data
REM    194 parameters refined using      0 restraints
END
WGHT      0.0254      0.0000
REM Highest difference peak  0.530,  deepest hole -0.691,  1-sigma level  0.073
Q1    1   0.2115  0.2209  0.9570  11.00000  0.05    0.53
Q2    1  -0.0040  0.3395  0.9838  11.00000  0.05    0.50
Q3    1   0.1381  0.4018  1.0695  11.00000  0.05    0.36
Q4    1   0.0600  0.1616  0.8729  11.00000  0.05    0.35
Q5    1   0.5010  0.9212  0.3729  11.00000  0.05    0.34
Q6    1   0.0817  0.2805  1.0403  11.00000  0.05    0.31
Q7    1   0.0176  0.2023  0.9661  11.00000  0.05    0.30
Q8    1   0.6350  0.9825  0.3176  11.00000  0.05    0.29
Q9    1   0.2559  0.5061  0.6644  11.00000  0.05    0.29
Q10   1   0.6919  1.1228  0.2030  11.00000  0.05    0.28
Q11   1   0.5435  1.0666  0.1329  11.00000  0.05    0.27
Q12   1   0.7016  0.7212  0.6205  11.00000  0.05    0.27
Q13   1   0.7155  0.6387  0.5786  11.00000  0.05    0.27
Q14   1   0.5317  0.6401  0.5582  11.00000  0.05    0.26
Q15   1   0.7312  0.8601  0.4602  11.00000  0.05    0.26
Q16   1   0.3070  0.4436  0.8712  11.00000  0.05    0.26
Q17   1   0.6150  0.9309  0.2830  11.00000  0.05    0.26
Q18   1   0.1051  0.4365  0.6994  11.00000  0.05    0.25
Q19   1   0.4066  1.0606  0.2315  11.00000  0.05    0.25
Q20   1   0.1414  0.2822  0.8939  11.00000  0.05    0.25
;
_shelx_res_checksum              40271
_shelxl_version_number           2014/6
#END Tags that were not found in dictionaries
loop_
_space_group_symop_operation_xyz
'x, y, z'
'-x, -y, -z'
loop_
_atom_site_type_symbol
_atom_site_label
_atom_site_fract_x
_atom_site_fract_y
_atom_site_fract_z
_atom_site_U_iso_or_equiv
_atom_site_adp_type
_atom_site_calc_flag
_atom_site_occupancy
Br Br14 0.10149(3) 0.28307(2) 0.96928(2) 0.02704(8) Uani d 1
O O1 0.88599(18) 0.94245(15) 0.35000(13) 0.0205(3) Uani d 1
O O3 0.78338(19) 0.68329(16) 0.60891(13) 0.0232(3) Uani d 1
O O4 0.28839(18) 0.79112(15) 0.42189(13) 0.0217(3) Uani d 1
N N3 0.4338(2) 0.64948(18) 0.58599(15) 0.0164(3) Uani d 1
H H3 0.341(4) 0.674(3) 0.545(2) 0.032(6) Uiso d 1
C C2 0.8359(3) 0.8522(2) 0.43099(18) 0.0179(4) Uani d 1
H H2 0.9450 0.8226 0.4701 0.021 Uiso calc 1
C C3 0.6440(3) 0.7994(2) 0.46206(17) 0.0157(4) Uani d 1
C C4 0.4703(3) 0.8354(2) 0.40029(17) 0.0158(4) Uani d 1
C C4A 0.5260(3) 0.9313(2) 0.30911(17) 0.0166(4) Uani d 1
C C5 0.3763(3) 0.9747(2) 0.24089(18) 0.0194(4) Uani d 1
H H5 0.2352 0.9394 0.2516 0.023 Uiso calc 1
C C6 0.4330(3) 1.0678(2) 0.15872(18) 0.0231(4) Uani d 1
H H6 0.3307 1.0956 0.1120 0.028 Uiso calc 1
C C7 0.6404(3) 1.1223(2) 0.14319(19) 0.0231(4) Uani d 1
H H7 0.6778 1.1880 0.0870 0.028 Uiso calc 1
C C8 0.7904(3) 1.0813(2) 0.20869(19) 0.0221(4) Uani d 1
H H8 0.9313 1.1184 0.1989 0.027 Uiso calc 1
C C8A 0.7304(3) 0.9842(2) 0.28949(17) 0.0168(4) Uani d 1
C C311 0.3678(3) 0.5624(2) 0.67490(17) 0.0156(4) Uani d 1
C C312 0.5008(3) 0.5181(2) 0.75335(18) 0.0181(4) Uani d 1
H H312 0.6449 0.5456 0.7476 0.022 Uiso calc 1
C C313 0.4212(3) 0.4336(2) 0.83976(17) 0.0201(4) Uani d 1
H H313 0.5107 0.4026 0.8930 0.024 Uiso calc 1
C C314 0.2110(3) 0.3949(2) 0.84817(17) 0.0189(4) Uani d 1
C C315 0.0774(3) 0.4369(2) 0.77019(18) 0.0197(4) Uani d 1
H H315 -0.0666 0.4085 0.7761 0.024 Uiso calc 1
C C316 0.1558(3) 0.5204(2) 0.68385(18) 0.0183(4) Uani d 1
H H316 0.0652 0.5497 0.6301 0.022 Uiso calc 1
C C31 0.6284(3) 0.7053(2) 0.55924(17) 0.0168(4) Uani d 1
loop_
_atom_site_aniso_label
_atom_site_aniso_U_11
_atom_site_aniso_U_22
_atom_site_aniso_U_33
_atom_site_aniso_U_12
_atom_site_aniso_U_13
_atom_site_aniso_U_23
Br14 0.02998(12) 0.03136(13) 0.02276(11) 0.00465(9) 0.00436(8) 0.01411(9)
O1 0.0127(6) 0.0238(8) 0.0263(7) 0.0026(5) 0.0014(5) 0.0094(6)
O3 0.0147(6) 0.0297(8) 0.0280(8) 0.0058(6) -0.0021(6) 0.0113(6)
O4 0.0123(6) 0.0293(8) 0.0266(8) 0.0041(6) 0.0009(5) 0.0133(6)
N3 0.0128(7) 0.0191(9) 0.0190(8) 0.0038(6) -0.0008(6) 0.0073(7)
C2 0.0156(9) 0.0185(10) 0.0202(10) 0.0045(7) -0.0007(7) 0.0040(8)
C3 0.0145(9) 0.0150(9) 0.0173(9) 0.0039(7) -0.0009(7) 0.0013(8)
C4 0.0144(8) 0.0159(10) 0.0171(9) 0.0042(7) -0.0003(7) 0.0015(8)
C4A 0.0177(9) 0.0171(10) 0.0151(9) 0.0035(7) 0.0002(7) 0.0026(8)
C5 0.0171(9) 0.0228(11) 0.0192(9) 0.0058(8) 0.0010(8) 0.0038(8)
C6 0.0260(10) 0.0266(11) 0.0198(10) 0.0094(9) 0.0010(8) 0.0080(9)
C7 0.0303(10) 0.0206(11) 0.0199(10) 0.0055(9) 0.0054(8) 0.0071(8)
C8 0.0204(9) 0.0211(11) 0.0247(10) 0.0020(8) 0.0062(8) 0.0054(9)
C8A 0.0158(9) 0.0167(10) 0.0181(9) 0.0045(7) 0.0009(7) 0.0025(8)
C311 0.0168(9) 0.0142(9) 0.0162(9) 0.0042(7) 0.0006(7) 0.0024(8)
C312 0.0169(9) 0.0184(10) 0.0190(9) 0.0034(7) -0.0015(7) 0.0033(8)
C313 0.0222(10) 0.0225(11) 0.0168(9) 0.0077(8) -0.0027(8) 0.0038(8)
C314 0.0253(10) 0.0174(10) 0.0143(9) 0.0039(8) 0.0027(7) 0.0039(8)
C315 0.0169(9) 0.0207(10) 0.0215(10) 0.0030(8) 0.0022(8) 0.0040(8)
C316 0.0164(9) 0.0206(10) 0.0196(10) 0.0060(8) -0.0013(7) 0.0053(8)
C31 0.0154(9) 0.0170(10) 0.0181(9) 0.0048(7) -0.0002(7) 0.0020(8)
loop_
_atom_type_symbol
_atom_type_description
_atom_type_scat_dispersion_real
_atom_type_scat_dispersion_imag
_atom_type_scat_source
C C 0.0033 0.0016 'International Tables Vol C Tables 4.2.6.8 and 6.1.1.4'
H H 0.0000 0.0000 'International Tables Vol C Tables 4.2.6.8 and 6.1.1.4'
Br Br -0.2901 2.4595 'International Tables Vol C Tables 4.2.6.8 and 6.1.1.4'
N N 0.0061 0.0033 'International Tables Vol C Tables 4.2.6.8 and 6.1.1.4'
O O 0.0106 0.0060 'International Tables Vol C Tables 4.2.6.8 and 6.1.1.4'
loop_
_geom_angle_atom_site_label_1
_geom_angle_atom_site_label_2
_geom_angle_atom_site_label_3
_geom_angle
C2 O1 C8A 118.38(14)
C31 N3 C311 128.47(15)
C31 N3 H3 114.6(16)
C311 N3 H3 116.9(16)
O1 C2 C3 125.75(16)
O1 C2 H2 117.1
C3 C2 H2 117.1
C2 C3 C4 119.38(17)
C2 C3 C31 115.58(15)
C4 C3 C31 125.04(16)
O4 C4 C3 124.05(17)
O4 C4 C4A 121.35(16)
C3 C4 C4A 114.59(16)
C8A C4A C5 117.93(17)
C8A C4A C4 120.55(16)
C5 C4A C4 121.51(17)
C6 C5 C4A 120.25(18)
C6 C5 H5 119.9
C4A C5 H5 119.9
C5 C6 C7 120.48(18)
C5 C6 H6 119.8
C7 C6 H6 119.8
C8 C7 C6 120.48(19)
C8 C7 H7 119.8
C6 C7 H7 119.8
C7 C8 C8A 118.28(18)
C7 C8 H8 120.9
C8A C8 H8 120.9
O1 C8A C4A 121.24(16)
O1 C8A C8 116.22(16)
C4A C8A C8 122.54(17)
C312 C311 C316 119.63(17)
C312 C311 N3 123.76(16)
C316 C311 N3 116.61(15)
C313 C312 C311 119.65(17)
C313 C312 H312 120.2
C311 C312 H312 120.2
C314 C313 C312 119.81(17)
C314 C313 H313 120.1
C312 C313 H313 120.1
C313 C314 C315 121.13(18)
C313 C314 Br14 119.89(14)
C315 C314 Br14 118.97(15)
C316 C315 C314 119.26(17)
C316 C315 H315 120.4
C314 C315 H315 120.4
C315 C316 C311 120.50(16)
C315 C316 H316 119.7
C311 C316 H316 119.7
O3 C31 N3 124.65(18)
O3 C31 C3 120.84(17)
N3 C31 C3 114.51(15)
loop_
_geom_bond_atom_site_label_1
_geom_bond_atom_site_label_2
_geom_bond_distance
Br14 C314 1.9045(19)
O1 C2 1.337(2)
O1 C8A 1.379(2)
O3 C31 1.231(2)
O4 C4 1.242(2)
N3 C31 1.356(2)
N3 C311 1.404(2)
N3 H3 0.86(2)
C2 C3 1.348(3)
C2 H2 0.9500
C3 C4 1.458(2)
C3 C31 1.495(3)
C4 C4A 1.467(3)
C4A C8A 1.388(3)
C4A C5 1.403(2)
C5 C6 1.372(3)
C5 H5 0.9500
C6 C7 1.401(3)
C6 H6 0.9500
C7 C8 1.376(3)
C7 H7 0.9500
C8 C8A 1.390(3)
C8 H8 0.9500
C311 C312 1.397(2)
C311 C316 1.400(2)
C312 C313 1.388(3)
C312 H312 0.9500
C313 C314 1.384(3)
C313 H313 0.9500
C314 C315 1.386(3)
C315 C316 1.380(3)
C315 H315 0.9500
C316 H316 0.9500
loop_
_geom_hbond_atom_site_label_D
_geom_hbond_atom_site_label_H
_geom_hbond_atom_site_label_A
_geom_hbond_site_symmetry_A
_geom_hbond_distance_DH
_geom_hbond_distance_HA
_geom_hbond_distance_DA
_geom_hbond_angle_DHA
N3 H3 O4 . 0.86(2) 1.95(2) 2.695(2) 145(2)
C312 H312 O3 . 0.95 2.26 2.877(2) 129
C2 H2 O4 1_655 0.95 2.41 3.167(2) 137
C316 H316 O3 1_455 0.95 2.47 3.314(2) 148
loop_
_geom_torsion_atom_site_label_1
_geom_torsion_atom_site_label_2
_geom_torsion_atom_site_label_3
_geom_torsion_atom_site_label_4
_geom_torsion
C8A O1 C2 C3 -1.6(3)
O1 C2 C3 C4 3.0(3)
O1 C2 C3 C31 -177.47(17)
C2 C3 C4 O4 179.41(19)
C31 C3 C4 O4 0.0(3)
C2 C3 C4 C4A -1.2(3)
C31 C3 C4 C4A 179.38(17)
O4 C4 C4A C8A 177.58(18)
C3 C4 C4A C8A -1.9(3)
O4 C4 C4A C5 -1.2(3)
C3 C4 C4A C5 179.33(17)
C8A C4A C5 C6 -0.7(3)
C4 C4A C5 C6 178.16(18)
C4A C5 C6 C7 -0.9(3)
C5 C6 C7 C8 1.0(3)
C6 C7 C8 C8A 0.4(3)
C2 O1 C8A C4A -1.7(3)
C2 O1 C8A C8 178.33(17)
C5 C4A C8A O1 -177.77(17)
C4 C4A C8A O1 3.4(3)
C5 C4A C8A C8 2.2(3)
C4 C4A C8A C8 -176.67(18)
C7 C8 C8A O1 177.90(17)
C7 C8 C8A C4A -2.1(3)
C31 N3 C311 C312 0.1(3)
C31 N3 C311 C316 179.50(18)
C316 C311 C312 C313 -0.3(3)
N3 C311 C312 C313 179.06(17)
C311 C312 C313 C314 -0.5(3)
C312 C313 C314 C315 1.1(3)
C312 C313 C314 Br14 -178.50(15)
C313 C314 C315 C316 -0.8(3)
Br14 C314 C315 C316 178.72(15)
C314 C315 C316 C311 0.0(3)
C312 C311 C316 C315 0.6(3)
N3 C311 C316 C315 -178.89(17)
C311 N3 C31 O3 2.3(3)
C311 N3 C31 C3 -177.52(17)
C2 C3 C31 O3 2.3(3)
C4 C3 C31 O3 -178.23(18)
C2 C3 C31 N3 -177.91(17)
C4 C3 C31 N3 1.6(3)
