#------------------------------------------------------------------------------
#$Date: 2015-06-14 05:27:57 +0300 (Sun, 14 Jun 2015) $
#$Revision: 139208 $
#$URL: svn://www.crystallography.net/cod/cif/2/24/08/2240841.cif $
#------------------------------------------------------------------------------
#
# This file is available in the Crystallography Open Database (COD),
# http://www.crystallography.net/. The original data for this entry
# were provided by IUCr Journals, http://journals.iucr.org/.
#
# The file may be used within the scientific community so long as
# proper attribution is given to the journal article from which the
# data were obtained.
#
data_2240841
loop_
_publ_author_name
'Gomes, Ligia R.'
'Low, John Nicolson'
'Cagide, Fernando'
'Borges, Fernanda'
_publ_section_title
;
 Crystal structures of two
 6-(2-hydroxybenzoyl)-5<i>H</i>-thiazolo[3,2-<i>a</i>]pyrimidin-5-ones
;
_journal_issue                   7
_journal_name_full               'Acta Crystallographica Section E'
_journal_page_first              766
_journal_page_last               771
_journal_paper_doi               10.1107/S2056989015011044
_journal_volume                  71
_journal_year                    2015
_chemical_formula_iupac          'C14 H10 N2 O3 S'
_chemical_formula_moiety         'C14 H10 N2 O3 S'
_chemical_formula_sum            'C14 H10 N2 O3 S'
_chemical_formula_weight         286.30
_chemical_name_systematic
;
6-(2-Hydroxybenzoyl)-2-methyl-5<i>H</i>-thiazolo[3,2-<i>a</i>]pyrimidin-5-one
;
_space_group_crystal_system      monoclinic
_space_group_IT_number           4
_space_group_name_Hall           'P 2yb'
_space_group_name_H-M_alt        'P 1 21 1'
_symmetry_space_group_name_Hall  'P 2yb'
_symmetry_space_group_name_H-M   'P 1 21 1'
_atom_sites_solution_hydrogens   geom
_audit_creation_method           SHELXL-2014/7
_cell_angle_alpha                90
_cell_angle_beta                 94.201(14)
_cell_angle_gamma                90
_cell_formula_units_Z            2
_cell_length_a                   3.931(2)
_cell_length_b                   10.459(6)
_cell_length_c                   14.657(8)
_cell_measurement_reflns_used    1337
_cell_measurement_temperature    100(2)
_cell_measurement_theta_max      31.1
_cell_measurement_theta_min      2.4
_cell_volume                     601.0(6)
_computing_cell_refinement
;
<i>CrystalClear-SM Expert</i> (Rigaku, 2012)
;
_computing_data_collection
;
<i>CrystalClear-SM Expert</i> (Rigaku, 2012)
;
_computing_data_reduction
;
<i>CrystalClear-SM Expert</i> (Rigaku, 2012)
;
_computing_molecular_graphics
;
Mercury (Macrae <i>et al.</i>,  2006)
;
_computing_publication_material
;
Oscail (McArdle <i>et al.</i>,  2004),
SHELXL2014 (Sheldrick, 2015) and
PLATON (Spek, 2009)
;
_computing_structure_refinement
;
Oscail (McArdle <i>et al.</i>,  2004),
<i>ShelXle</i> (H\"ubschle <i>et al.</i>,  2011) and
SHELXL2014 (Sheldrick, 2015)
;
_computing_structure_solution
;
SHELXS (Sheldrick, 2008),
PLATON (Spek, 2009) and
<i>Flipper 25</i> (Oszl\'anyi & S\"ut\>o, 2004)
;
_diffrn_ambient_temperature      100
_diffrn_detector_area_resol_mean 28.5714
_diffrn_measured_fraction_theta_full 0.996
_diffrn_measured_fraction_theta_max 0.921
_diffrn_measurement_device
;
AFC12 (Right): Kappa 3 circle
;
_diffrn_measurement_device_type
;
Rigaku Saturn724+ (2x2 bin mode)
;
_diffrn_measurement_method       'profile data from \w-scans'
_diffrn_radiation_monochromator  Confocal
_diffrn_radiation_type           MoK\a
_diffrn_radiation_wavelength     0.71075
_diffrn_reflns_av_R_equivalents  0.0228
_diffrn_reflns_limit_h_max       5
_diffrn_reflns_limit_h_min       -5
_diffrn_reflns_limit_k_max       14
_diffrn_reflns_limit_k_min       -14
_diffrn_reflns_limit_l_max       20
_diffrn_reflns_limit_l_min       -18
_diffrn_reflns_number            4859
_diffrn_reflns_theta_full        25.000
_diffrn_reflns_theta_max         31.194
_diffrn_reflns_theta_min         2.394
_exptl_absorpt_coefficient_mu    0.278
_exptl_absorpt_correction_T_max  0.975
_exptl_absorpt_correction_T_min  0.931
_exptl_absorpt_correction_type   multi-scan
_exptl_absorpt_process_details
;
<i>CrystalClear-SM Expert</i> (Rigaku, 2012)
;
_exptl_crystal_colour            yellow
_exptl_crystal_density_diffrn    1.582
_exptl_crystal_description       block
_exptl_crystal_F_000             296
_exptl_crystal_size_max          0.260
_exptl_crystal_size_mid          0.130
_exptl_crystal_size_min          0.090
_refine_diff_density_max         0.349
_refine_diff_density_min         -0.335
_refine_ls_abs_structure_details
;
Flack <i>x</i> determined using 981 quotients
[(<i>I</i>^+^)-(<i>I</i>^-^)]/[(<i>I</i>^+^)+(<i>I</i>^-^)]
(Parsons <i>et al.</i>,  2013)
;
_refine_ls_abs_structure_Flack   -0.03(4)
_refine_ls_extinction_method     none
_refine_ls_goodness_of_fit_ref   1.043
_refine_ls_hydrogen_treatment    constr
_refine_ls_matrix_type           full
_refine_ls_number_parameters     183
_refine_ls_number_reflns         3175
_refine_ls_number_restraints     1
_refine_ls_restrained_S_all      1.042
_refine_ls_R_factor_all          0.0394
_refine_ls_R_factor_gt           0.0313
_refine_ls_shift/su_max          0.000
_refine_ls_shift/su_mean         0.000
_refine_ls_structure_factor_coef Fsqd
_refine_ls_weighting_details
'w=1/[\s^2^(Fo^2^)+(0.0296P)^2^] where P=(Fo^2^+2Fc^2^)/3'
_refine_ls_weighting_scheme      calc
_refine_ls_wR_factor_gt          0.0625
_refine_ls_wR_factor_ref         0.0667
_reflns_number_gt                2808
_reflns_number_total             3175
_reflns_threshold_expression     'I > 2\s(I)'
_cod_data_source_file            hb7437sup1.cif
_cod_data_source_block           2
_cod_database_code               2240841
_shelx_space_group_comment
;
The symmetry employed for this shelxl refinement is uniquely defined
by the following loop, which should always be used as a source of
symmetry information in preference to the above space-group names.
They are only intended as comments.
;
_shelx_estimated_absorpt_t_min   0.931
_shelx_estimated_absorpt_t_max   0.975
_shelx_hkl_file
;
   0   0   210641.07  442.35   1 0.54801-0.54097-0.83638 0.83667-0.01170-0.08555
   0   0  -210436.45  455.72   1 0.52976-0.53680-0.84390 0.84361 0.08472 0.01253
   0   0   3212291.9 2150.81   1 0.55175-0.54119-0.83323 0.83367-0.03586-0.11002
   0   0  -3215623.1 2160.06   1 0.52516-0.53588-0.84364 0.84360 0.11161 0.03409
   0   0   4 5839.56  399.15   1 0.55517-0.54108-0.82956 0.83014-0.06005-0.13447
   0   0  -4 5751.38  368.04   1 0.51948-0.53376-0.84365 0.84359 0.13561 0.05866
   0   0  -5 1416.30  231.46   1 0.51346-0.53132-0.84313 0.84307 0.15958 0.08325
   0   0  -6  354.27  143.62   1 0.50712-0.52854-0.84210 0.84202 0.18353 0.10787
   0   0   8 1880.97 1073.52   1 0.56667-0.53844-0.80894 0.80986-0.15650-0.23282
   0   0   913480.18  867.47   1 0.56839-0.53662-0.80264 0.80368-0.18082-0.25716
   0   0  10  159.59  192.41   1 0.56974-0.53445-0.79579 0.79695-0.20517-0.28148
   0   0  10  233.88  260.76   1 0.82701-0.79125-0.53161 0.53156-0.18290-0.30228
   0   0  1164367.12 2141.59   1 0.57074-0.53191-0.78839 0.78966-0.22954-0.30577
   0   0  1165427.45 2282.73   1 0.82424-0.78491-0.52686 0.52680-0.20750-0.32621
   0   0  1257648.85 2082.11   1 0.57137-0.52901-0.78041 0.78179-0.25393-0.33004
   0   0  1259944.55 2029.59   1 0.82092-0.77801-0.52174 0.52168-0.23214-0.35009
   0   0  1369558.92 2287.77   1 0.57162-0.52574-0.77185 0.77335-0.27836-0.35429
   0   0  1368687.09 2455.95   1 0.81704-0.77055-0.51624 0.51617-0.25682-0.37393
   0   0  14 1392.63  805.70   1 0.57149-0.52207-0.76269 0.76430-0.30280-0.37850
   0   0  14 2348.37  749.94   1 0.81259-0.76252-0.51035 0.51028-0.28154-0.39773
   0   0  15 2938.00 1294.59   1 0.57096-0.51802-0.75291 0.75464-0.32728-0.40269
   0   0  15 3006.07  503.25   1 0.80754-0.75390-0.50405 0.50398-0.30630-0.42149
   0   0  16 4082.46 2280.28   1 0.57002-0.51355-0.74250 0.74435-0.35179-0.42686
   0   0  16 4748.11 1713.41   1 0.80188-0.74467-0.49735 0.49727-0.33111-0.44520
   0   0  17 6212.49  765.30   1 0.79560-0.73481-0.49022 0.49014-0.35597-0.46886
   0   0  18 1147.81  958.61   1 0.78867-0.72430-0.48265 0.48256-0.38087-0.49248
   0   0  19 3227.70  623.06   1 0.78106-0.71311-0.47463 0.47453-0.40582-0.51604
   0  -1  19 2395.19 1427.22   1 0.76783-0.69969-0.46267 0.53100-0.44315-0.47800
   0  -1  18 3024.35 1702.21   1 0.77612-0.71173-0.46954 0.53738-0.42094-0.45241
   0  -1  1711010.91 3507.39   1 0.78323-0.72241-0.47689 0.54474-0.39893-0.42590
   0  -1  1631254.55 1509.41   1 0.78970-0.73247-0.48377 0.55162-0.37729-0.39902
   0  -1  1572175.24 2848.10   1 0.79557-0.74191-0.49019 0.55805-0.35608-0.37170
   0  -1  1413998.81 2497.89   1 0.80085-0.75076-0.49615 0.56402-0.33539-0.34388
   0  -1  13 9167.67 2899.95   1 0.56952-0.52373-0.73804 0.80769-0.36185-0.27079
   0  -1  13 8775.95 1782.88   1 0.80555-0.75904-0.50167 0.56953-0.31532-0.31543
   0  -1  12 3058.43 1296.71   1 0.57032-0.52806-0.74538 0.81492-0.34514-0.23883
   0  -1  12 3512.45 1483.76   1 0.80971-0.76677-0.50672 0.57459-0.29602-0.28621
   0  -1  11 2033.20  882.40   1 0.57089-0.53216-0.75189 0.82131-0.32976-0.20555
   0  -1  11 2300.39 1042.06   1 0.81332-0.77396-0.51129 0.57917-0.27767-0.25603
   0  -1  10 4236.32  701.00   1 0.57125-0.53606-0.75746 0.82677-0.31609-0.17056
   0  -1  10 3846.28  492.28   1 0.81640-0.78062-0.51537 0.58325-0.26056-0.22463
   0  -1   975560.46 2266.76   1 0.57146-0.53980-0.76197 0.83116-0.30465-0.13333
   0  -1   977342.67 1704.97   1 0.81896-0.78675-0.51890 0.58679-0.24507-0.19160
   0  -1   849152.36 1941.86   1 0.57156-0.54343-0.76520 0.83428-0.29626-0.09306
   0  -1   850722.35 1950.47   1 0.82097-0.79234-0.52181 0.58971-0.23179-0.15636
   0  -1   616016.83  826.68   1 0.57158-0.55050-0.76598 0.83482-0.29421 0.00221
   0   1  -615008.77  759.05   1 0.54676-0.56773-0.83727 0.76820-0.00407 0.29586
   0  -1   616379.57  811.67   1 0.82316-0.80168-0.52513 0.59303-0.21602-0.07508
   0  -1   465714.50 1127.48   1 0.57077-0.55675-0.75040 0.81902-0.33332 0.13866
   0   1  -460981.77 2138.94   1 0.56386-0.57778-0.81432 0.74554-0.13762 0.33215
   0  -1   462646.35 1025.95   1 0.82102-0.80669-0.52188 0.58980-0.23147 0.03739
   0   1  -386045.85 1163.98   1 0.57100-0.58149-0.78564 0.71714-0.23814 0.38413
   0  -1   389299.64 1138.24   1 0.81502-0.80427-0.51351 0.58143-0.26844 0.12288
   0   1  -2463754.8 3710.75   1 0.82095-0.82812-0.52177 0.45385-0.23197 0.32901
   0   1   1165509.8 1404.84   1 0.87943-0.87590-0.28035 0.21229 0.38475-0.43331
   0   1   386279.73 1204.10   1 0.46059-0.44976-0.82400 0.75594 0.32995-0.47566
   0  -1  -387478.19 1201.04   1 0.39595-0.40674-0.78095 0.84896 0.48303-0.33736
   0   1   463788.49 1108.00   1 0.49643-0.48204-0.83941 0.77137 0.22120-0.41547
   0  -1  -462047.12 1072.26   1 0.42400-0.43836-0.80158 0.86957 0.42152-0.22730
   0   1   5247611.0 2796.75   1 0.51766-0.49970-0.84354 0.77551 0.14299-0.38584
   0  -1  -5235835.5 2680.43   1 0.43692-0.45487-0.81020 0.87818 0.39073-0.14794
   0   1   616489.59  831.00   1 0.53100-0.50971-0.84368 0.77635 0.07896-0.37075
   0  -1  -615085.11  785.00   1 0.44249-0.46401-0.81371 0.88168 0.37691-0.08558
   0   1   7224563.7 4786.05   1 0.54122-0.51641-0.84042 0.77324 0.02754-0.36797
   0   1   846863.12 1897.78   1 0.54892-0.52059-0.83569 0.76865-0.01737-0.37168
   0   1   970541.39 1691.57   1 0.55488-0.52303-0.82991 0.76302-0.05790-0.37978
   0   1  10 4369.01 1386.78   1 0.55955-0.52418-0.82329 0.75654-0.09533-0.39098
   0   1  11 1330.40  496.74   1 0.56320-0.52431-0.81594 0.74934-0.13050-0.40444
   0   1  12 3194.03  954.79   1 0.56723-0.52477-0.80709 0.74032-0.16383-0.42015
   0   1  12 3425.62 1275.83   1 0.82794-0.78505-0.53335 0.46536-0.17339-0.40884
   0   1  13 8471.88 2590.11   1 0.56927-0.52329-0.79843 0.73178-0.19600-0.43664
   0   1  13 8292.10 2172.23   1 0.82478-0.77831-0.52774 0.45974-0.20310-0.42765
   0   1  1413158.33 2132.31   1 0.57066-0.52114-0.78913 0.72260-0.22716-0.45415
   0   1  1413291.14 1772.14   1 0.82092-0.77087-0.52173 0.45373-0.23217-0.44709
   0   1  1571284.49 2950.20   1 0.57143-0.51838-0.77919 0.71277-0.25751-0.47246
   0   1  1571273.92 3393.22   1 0.81637-0.76275-0.51533 0.44732-0.26075-0.46704
   0   1  1626795.60 1572.26   1 0.57162-0.51504-0.76860 0.70229-0.28721-0.49143
   0   1  1626205.27 1456.14   1 0.81114-0.75395-0.50851 0.44050-0.28893-0.48738
   0   1  1710918.81 1359.18   1 0.57125-0.51114-0.75734 0.69115-0.31639-0.51092
   0   1  1710486.07 2625.27   1 0.80522-0.74445-0.50127 0.43325-0.31679-0.50803
   0   1  18 2498.88 1726.44   1 0.57032-0.50668-0.74539 0.67931-0.34513-0.53084
   0   1  18 3416.42 2274.65   1 0.79860-0.73425-0.49359 0.42557-0.34441-0.52894
   0   1  19 2168.05 1747.70   1 0.79126-0.72334-0.48545 0.41743-0.37182-0.55004
   0   1  2020391.21 1624.95   1 0.78318-0.71168-0.47684 0.40881-0.39908-0.57131
   0  -2  1916123.06 1326.38   1 0.75226-0.68407-0.44745 0.58365-0.48365-0.43750
   0  -2  18 8277.62  879.23   1 0.76003-0.69542-0.45497 0.59115-0.46409-0.40858
   0  -2  17 8717.99 2868.37   1 0.76712-0.70610-0.46196 0.59812-0.44512-0.37906
   0  -2  16 4174.94 2091.97   1 0.77412-0.71686-0.46752 0.60330-0.42682-0.34949
   0  -2  1529705.04 2451.30   1 0.77993-0.72624-0.47345 0.60924-0.40935-0.31844
   0  -2  1437147.75 2611.11   1 0.78509-0.73498-0.47885 0.61464-0.39287-0.28639
   0  -2  1359239.77 1971.66   1 0.78962-0.74309-0.48367 0.61947-0.37759-0.25315
   0  -2  1247660.88 1740.33   1 0.79349-0.75054-0.48789 0.62370-0.36380-0.21843
   0  -2  1129799.24 1330.10   1 0.79668-0.75730-0.49143 0.62724-0.35186-0.18185
   0  -2  1030894.59 1123.06   1 0.79914-0.76333-0.49420 0.63001-0.34229-0.14289
   0  -2   945829.68 1289.35   1 0.80074-0.76851-0.49603 0.63185-0.33583-0.10083
   0  -2   863124.71 1792.54   1 0.80129-0.77264-0.49667 0.63250-0.33355-0.05460
   0  -2   761996.26 2234.33   1 0.80044-0.77537-0.49569 0.63152-0.33705-0.00258
   0  -2   626338.29 1149.75   1 0.79746-0.77596-0.49230 0.62814-0.34886 0.05774
   0  -2   5157168.5 2016.64   1 0.79088-0.77296-0.48504 0.62088-0.37316 0.13056
   0   2  -4113706.2 1623.94   1 0.57057-0.58449-0.74805 0.61129-0.33890 0.53356
   0  -2   4114098.1 1476.82   1 0.77736-0.76302-0.47081 0.60666-0.41720 0.22312
   0  -2   378413.62 1059.44   1 0.74769-0.73685-0.44309 0.57892-0.49461 0.34916
   0   2  -378521.75 1061.44   1 0.81289-0.82366-0.51074 0.37488-0.27995 0.42551
   0   2  -297558.09  949.22   1 0.21609-0.22332 0.48921-0.62508 0.84500-0.74797
   0  -2   2101019.0 1129.01   1 0.67906-0.67181-0.38141 0.51721-0.62722 0.53026
   0   2  -297604.89 1161.26   1 0.76696-0.77422-0.46181 0.32601-0.44554 0.54251
   0   2  -113931.92  495.55   1 0.60942-0.61292 0.18313-0.31921 0.77144-0.72282
   0  -2   115731.98  574.28   1 0.40154-0.39790 0.36566-0.22975 0.83970-0.88822
   0  -2   115637.02  602.87   1 0.49507-0.49145-0.23484 0.37076-0.83652 0.78805
   0   2  -114347.92  529.54   1 0.63094-0.63455-0.34203 0.20624-0.69638 0.74486
   0   2   0244614.9 2024.21   1 0.79964-0.79966-0.06806-0.06791 0.59664-0.59664
   0  -2   0245979.8 2045.87   1 0.70817-0.70821 0.06825 0.06782 0.70276-0.70276
   0   2   0244491.0 1998.15   1 0.27089-0.27092-0.06798-0.06786-0.96022 0.96022
   0  -2   0242307.6 2224.93   1 0.14789-0.14788 0.06800 0.06802-0.98666 0.98666
   0   2   0246728.6 2275.75   1 0.23409-0.23409-0.06799-0.06800-0.96983 0.96983
   0   2   113768.97  523.12   1 0.86331-0.85981-0.21714 0.08108 0.45560-0.50416
   0  -2  -115245.94  578.61   1 0.81885-0.82228-0.10449 0.24045 0.56445-0.51582
   0  -2  -115167.05  589.33   1-0.08463 0.08108 0.40034-0.26432-0.91244 0.96102
   0   2   114068.90  605.52   1 0.01232-0.00876 0.26763-0.40365-0.96344 0.91487
   0  -2  -2101245.6 1134.91   1 0.85583-0.86289-0.19468 0.33078 0.47926-0.38214
   0   2   298168.50 1294.11   1 0.23128-0.22413-0.62428 0.48845 0.74617-0.84331
   0   2   2100520.3 1201.58   1-0.16041 0.16757 0.49743-0.63333-0.85254 0.75551
   0  -2  -378631.47 1014.67   1 0.87080-0.88143-0.24296 0.37910 0.42745-0.28176
   0   2   381957.19 1254.09   1 0.34560-0.33476-0.73860 0.60255 0.57881-0.72447
   0  -2  -378389.16 1173.07   1 0.23603-0.24673-0.62944 0.76521 0.74033-0.59462
   0  -2  -4109184.4 1356.52   1 0.87708-0.89128-0.26892 0.40511 0.39804-0.20379
   0   2   4113828.0 1644.42   1 0.41481-0.40039-0.79510 0.65906 0.44242-0.63665
   0  -2  -4110422.2 1569.75   1 0.29988-0.31412-0.69555 0.83126 0.65289-0.45861
   0   2   5157559.1 2134.30   1 0.45866-0.44057-0.82295 0.68682 0.33521-0.57806
   0  -2  -5154167.6 2102.11   1 0.33727-0.35505-0.73113 0.86677 0.59303-0.35019
   0  -2  -623361.98  930.20   1 0.88067-0.90200-0.28692 0.42319 0.37700-0.08563
   0   2   624428.64 1147.67   1 0.48807-0.46642-0.83660 0.70049 0.24873-0.54014
   0  -2  -622840.02 1039.96   1 0.35889-0.38048-0.75036 0.88637 0.55511-0.26377
   0   2   757593.92 2175.43   1 0.50893-0.48370-0.84244 0.70634 0.17683-0.51682
   0   2   863593.67 1869.02   1 0.52434-0.49555-0.84368 0.70759 0.11517-0.50373
   0   2   945821.70 1365.96   1 0.53527-0.50327-0.84265 0.70756 0.05836-0.49605
   0   2  1026659.71 1102.24   1 0.54448-0.50895-0.83872 0.70377 0.00932-0.49564
   0   2  1125959.22 1385.50   1 0.55172-0.51267-0.83326 0.69846-0.03564-0.49930
   0   2  1243562.54 1791.55   1 0.55742-0.51485-0.82660 0.69194-0.07749-0.50609
   0   2  1354768.77 1955.91   1 0.56188-0.51578-0.81891 0.68441-0.11690-0.51531
   0   2  1434473.45 1772.24   1 0.56652-0.51690-0.80943 0.67474-0.15450-0.52681
   0   2  1435686.16 1912.62   1 0.82648-0.77646-0.53065 0.39471-0.18802-0.49125
   0   2  1527067.37 2521.55   1 0.56896-0.51582-0.80001 0.66543-0.19042-0.53956
   0   2  1527195.97 1387.72   1 0.82262-0.76902-0.52430 0.38835-0.22005-0.50774
   0   2  16 3065.28 1808.72   1 0.57059-0.51391-0.78979 0.65532-0.22508-0.55356
   0   2  16 3800.98 1327.98   1 0.81796-0.76078-0.51750 0.38155-0.25130-0.52501
   0   2  1711266.17 1585.88   1 0.57145-0.51124-0.77879 0.64444-0.25870-0.56861
   0   2  17 9187.82 1816.16   1 0.81251-0.75176-0.51025 0.37430-0.28191-0.54292
   0   2  18 8471.53 1649.28   1 0.57160-0.50787-0.76701 0.63278-0.29147-0.58451
   0   2  18 7699.16  996.43   1 0.80629-0.74197-0.50255 0.36659-0.31200-0.56134
   0   2  1916027.05 2392.37   1 0.57107-0.50381-0.75446 0.62034-0.32352-0.60112
   0   2  1916433.71 1388.50   1 0.79929-0.73139-0.49437 0.35841-0.34167-0.58019
   0  -3  19 7629.31  866.52   1 0.73348-0.66525-0.42978 0.63386-0.52660-0.39455
   0  -3  18 3405.22 1629.22   1 0.74109-0.67645-0.43687 0.64093-0.50984-0.36283
   0  -3  1720767.44 2585.81   1 0.74797-0.68691-0.44336 0.64739-0.49395-0.33023
   0  -3  16 6886.34  861.33   1 0.75411-0.69664-0.44923 0.65324-0.47908-0.29663
   0  -3  1516290.60 1033.15   1 0.75952-0.70562-0.45447 0.65845-0.46541-0.26181
   0  -3  1459847.92 2438.19   1 0.76416-0.71385-0.45902 0.66299-0.45318-0.22556
   0  -3  1329540.87 1469.11   1 0.76800-0.72127-0.46284 0.66678-0.44269-0.18757
   0  -3  1241889.80 1526.68   1 0.77160-0.72863-0.46497 0.66871-0.43410-0.14813
   0  -3  1111342.22 2121.91   1 0.77359-0.73419-0.46698 0.67072-0.42836-0.10535
   0  -3  10 8454.40  770.13   1 0.77441-0.73859-0.46781 0.67156-0.42597-0.05922
   0  -3   924016.02 1679.13   1 0.77375-0.74151-0.46714 0.67090-0.42789-0.00878
   0  -3   819181.08 1367.72   1 0.77043-0.74163-0.46528 0.66910-0.43584 0.04798
   0  -3   785746.53 2155.01   1 0.76494-0.73972-0.45980 0.66359-0.45108 0.11170
   0  -3   6144950.0 3179.72   1 0.75504-0.73340-0.45012 0.65389-0.47678 0.18589
   0   3  -572236.64 1231.01   1 0.82746-0.84540-0.53243 0.32865-0.17847 0.42107
   0   3  -4 3519.22  259.77   1 0.04561-0.05996 0.57731-0.78132 0.81528-0.62128
   0  -3   4 3287.58  284.66   1 0.70741-0.69295-0.40618 0.60991-0.57844 0.38451
   0   3  -4 3214.95  271.28   1 0.81416-0.82853-0.51238 0.30860-0.27317 0.46725
   0   3  -3267509.9 2289.55   1 0.30307-0.31390 0.43520-0.63901 0.84781-0.70227
   0  -3   3268671.0 2576.41   1 0.65059-0.63983-0.35839 0.56211-0.66955 0.52409
   0   3  -3266613.8 2575.28   1 0.78434-0.79514-0.47806 0.27428-0.39531 0.54087
   0   3  -2 2137.70  151.16   1 0.55659-0.56376 0.23449-0.43840 0.79703-0.70001
   0  -3   2 2080.56  150.03   1 0.16421-0.15703 0.51855-0.31464 0.83916-0.93615
   0  -3   2 2119.04  255.02   1 0.54388-0.53667-0.27208 0.47578-0.79384 0.69687
   0   3  -2 2195.71  176.67   1 0.71851-0.72580-0.41612 0.21244-0.55732 0.65429
   0   3  -1 1471.05  182.40   1 0.72715-0.73064 0.04289-0.24701 0.68516-0.63654
   0  -3   1 1516.65  258.23   1 0.49061-0.48703 0.29428-0.09037 0.82021-0.86872
   0  -3   1 1439.35  133.81   1 0.34115-0.33748-0.12010 0.32393-0.93231 0.88385
   0   3  -1 1350.33  195.41   1 0.57764-0.58128-0.29879 0.09510-0.75965 0.80814
   0  -3   1 1296.51  179.91   1 0.26814-0.26457-0.12415 0.32818-0.95534 0.90680
   0   3   0   66.44   79.73   1 0.81763-0.81765-0.10206-0.10190 0.56666-0.56666
   0  -3   0   55.76   31.79   1 0.68114-0.68120 0.10226 0.10184 0.72500-0.72500
   0   3   0  110.19   52.59   1 0.31626-0.31639-0.10208-0.10168-0.94317 0.94317
   0  -3   0   42.63  116.01   1 0.12561-0.12559 0.10201 0.10203-0.98682 0.98682
   0   3   1 1429.64  147.48   1 0.85930-0.85584-0.20478 0.00071 0.46871-0.51728
   0  -3  -1 1405.05  148.00   1 0.77683-0.78026-0.02913 0.23309 0.62906-0.58043
   0  -3  -1 1591.98  511.79   1-0.03369 0.03013 0.33167-0.12762-0.94279 0.99136
   0   3   1 1584.10  280.28   1 0.10783-0.10422 0.12881-0.33284-0.98579 0.93720
   0   3   2 2312.60  225.00   1 0.87915-0.87212-0.27888 0.07477 0.38646-0.48359
   0  -3  -2 1850.10  556.15   1 0.82285-0.82973-0.11264 0.31657 0.55701-0.45975
   0  -3  -2 2162.58  208.39   1-0.17653 0.16936 0.51744-0.31357-0.83731 0.93433
   0   3   2 2178.12  272.12   1-0.02813 0.03525 0.32403-0.52804-0.94562 0.84848
   0  -3  -3263576.3 2531.88   1 0.84616-0.85648-0.16527 0.36919 0.50668-0.36079
   0   3   3279456.5 2992.89   1 0.25658-0.24585-0.65139 0.44764 0.71404-0.85975
   0   3   3262435.9 3824.01   1-0.13390 0.14464 0.46396-0.66781-0.87567 0.73013
   0  -3  -4 2992.99  247.98   1 0.85702-0.87119-0.19810 0.40229 0.47571-0.28146
   0   3   4 3201.80  333.19   1 0.33952-0.32524-0.73319 0.52950 0.58919-0.78347
   0   3   4 3648.76  292.43   1-0.20850 0.22282 0.55632-0.76016-0.80438 0.61032
   0  -3  -576229.44 1193.34   1 0.86363-0.88136-0.21815 0.42239 0.45452-0.21171
   0   3   577867.14 1548.80   1 0.39772-0.37966-0.78232 0.57825 0.47935-0.72213
   0  -3  -577208.86 1426.20   1 0.23052-0.24834-0.62345 0.82707 0.74710-0.50425
   0   3   6144728.6 3324.83   1 0.43984-0.41821-0.81206 0.60800 0.38352-0.67485
   0   3   783531.00 2250.62   1 0.47091-0.44557-0.82927 0.62506 0.30091-0.64089
   0   3   820332.14 1484.85   1 0.49425-0.46534-0.83874 0.63455 0.22853-0.61708
   0   3   923302.09 1702.76   1 0.51223-0.47975-0.84297 0.63880 0.16434-0.60147
   0   3  10 8254.63  849.13   1 0.52632-0.49027-0.84358 0.63942 0.10656-0.59226
   0   3  11 9522.43  836.92   1 0.53664-0.49744-0.84223 0.63923 0.05150-0.58645
   0   3  1239848.22 2249.53   1 0.54563-0.50290-0.83802 0.63516 0.00263-0.58621
   0   3  1327608.91 1501.19   1 0.55280-0.50655-0.83220 0.62949-0.04302-0.58918
   0   3  1458438.66 2787.39   1 0.55847-0.50870-0.82504 0.62248-0.08608-0.59475
   0   3  1518007.91 2983.61   1 0.56287-0.50958-0.81672 0.61430-0.12702-0.60245
   0   3  1514552.31 1005.83   1 0.82683-0.77325-0.53127 0.32739-0.18473-0.54306
   0   3  16 8086.65 1935.67   1 0.56742-0.51065-0.80640 0.60379-0.16654-0.61210
   0   3  16 7414.01 2728.01   1 0.82280-0.76565-0.52458 0.32070-0.21869-0.55762
   0   3  1720796.42 2026.44   1 0.56970-0.50939-0.79606 0.59356-0.20426-0.62305
   0   3  1719655.15 1890.63   1 0.81789-0.75716-0.51740 0.31352-0.25174-0.57309
   0   3  18 2790.54 2058.43   1 0.57108-0.50724-0.78479 0.58240-0.24076-0.63521
   0   3  18 2495.86 1539.55   1 0.81210-0.74780-0.50973 0.30584-0.28405-0.58930
   0   3  19 6907.50 1525.67   1 0.57162-0.50425-0.77262 0.57035-0.27624-0.64840
   0   3  19 6649.45 2259.72   1 0.80546-0.73758-0.50155 0.29766-0.31574-0.60612
   0  -4  19 7321.20  801.58   1 0.71116-0.64289-0.40952 0.68148-0.57145-0.34970
   0  -4  18 6884.12  744.88   1 0.71842-0.65373-0.41604 0.68797-0.55749-0.31518
   0  -4  17 9562.52  979.19   1 0.72484-0.66374-0.42186 0.69377-0.54465-0.27954
   0  -4  1516335.74 1028.13   1 0.73508-0.68115-0.43127 0.70313-0.52313-0.20409
   0  -4  14 3007.11 1081.60   1 0.73880-0.68845-0.43472 0.70656-0.51498-0.16377
   0  -4  13  282.11  355.94   1 0.74146-0.69469-0.43721 0.70902-0.50902-0.12124
   0  -4  1271134.28 2100.31   1 0.74291-0.69972-0.43857 0.71036-0.50572-0.07605
   0  -4  1113194.29  898.21   1 0.74292-0.70332-0.43858 0.71035-0.50570-0.02760
   0  -4  10167175.6 3950.40   1 0.74114-0.70512-0.43691 0.70865-0.50974 0.02491
   0  -4   9 8406.79  805.62   1 0.73703-0.70460-0.43308 0.70480-0.51888 0.08254
   0  -4   883747.89 1666.68   1 0.72974-0.70089-0.42634 0.69803-0.53454 0.14668
   0   4  -762863.78 1485.93   1-0.07453 0.04936 0.62650-0.89842 0.77588-0.43642
   0  -4   762575.69 3904.37   1 0.71787-0.69261-0.41554 0.68721-0.55857 0.21920
   0   4  -651266.12 1710.90   1 0.04769-0.06921 0.57637-0.84842 0.81582-0.52483
   0  -4   646385.02 1723.69   1 0.69911-0.67743-0.39884 0.67049-0.59345 0.30256
   0   4  -5125451.9 2539.03   1 0.20567-0.22370 0.49524-0.76694 0.84408-0.60150
   0  -4   5122727.2 2706.53   1 0.66948-0.65139-0.37321 0.64483-0.64228 0.39986
   0   4  -5115656.1 2570.21   1 0.81879-0.83675-0.51866 0.24695-0.24614 0.48874
   0   4  -442099.07 1429.00   1 0.38959-0.40403 0.37462-0.64637 0.84138-0.64732
   0  -4   443389.76 1600.09   1 0.62094-0.60659-0.33380 0.60543-0.70924 0.51529
   0   4  -440807.44 1509.20   1 0.79867-0.81306-0.49366 0.22195-0.34415 0.53823
   0   4  -3188235.6 1782.96   1 0.56378-0.57454 0.22758-0.49946 0.79397-0.64845
   0  -4   3190268.9 1859.64   1-0.01359 0.02436 0.60262-0.33073 0.79794-0.94343
   0  -4   3196001.5 2222.03   1 0.54364-0.53285-0.27190 0.54350-0.79407 0.64861
   0   4  -3190486.4 2093.98   1 0.75964-0.77057-0.45459 0.18302-0.46508 0.61053
   0   4  -295808.21 1098.86   1 0.69659-0.70361 0.08311-0.35528 0.71267-0.61543
   0  -4   291616.82 1118.43   1 0.28268-0.27541 0.44845-0.17663 0.84795-0.94498
   0  -4   293577.03 1224.92   1 0.41694-0.40970-0.17582 0.44765-0.89177 0.79484
   0   4  -294105.17 1220.76   1 0.68896-0.69630-0.38997 0.11841-0.61096 0.70793
   0  -4   293177.25 1534.44   1 0.30557-0.29844-0.18766 0.45972-0.93349 0.83641
   0   4  -1233833.9 2155.77   1 0.78305-0.78653-0.03936-0.23261 0.62074-0.57211
   0  -4   1228363.1 2214.91   1 0.50813-0.50456 0.27900-0.00713 0.81486-0.86337
   0  -4   1232148.4 2251.82   1 0.22633-0.22272-0.03648 0.30822-0.97338 0.92488
   0   4  -1231129.0 2191.29   1 0.56190-0.56556-0.28627 0.01470-0.77610 0.82459
   0  -4   1231097.8 2647.19   1 0.21469-0.21113-0.03659 0.30862-0.97599 0.92745
   0   4   048861.69 1666.49   1 0.83378-0.83381-0.13606-0.13590 0.53510-0.53510
   0  -4   051384.63 1737.75   1 0.65228-0.65236 0.13627 0.13587 0.74566-0.74566
   0   4   049731.33 1673.24   1 0.36307-0.36325-0.13608-0.13561-0.92178 0.92178
   0  -4   052744.30 1878.83   1 0.10301-0.10299 0.13602 0.13603-0.98533 0.98533
   0   4   049136.70 1770.93   1 0.27520-0.27519-0.13598-0.13600-0.95172 0.95172
   0   4   1231694.5 2267.91   1 0.86163-0.85820-0.21185-0.06022 0.46125-0.50981
   0  -4  -1232486.6 2288.36   1 0.73672-0.74035 0.02957 0.24256 0.67558-0.62696
   0  -4  -1232605.8 2639.07   1-0.01786 0.01432 0.30986-0.03779-0.95061 0.99918
   0   4   1226261.5 2475.92   1 0.16743-0.16383 0.03776-0.30981-0.98516 0.93657
   0   4   294392.25 1272.62   1 0.87770-0.87070-0.27179-0.00032 0.39473-0.49185
   0  -4  -288731.10 1250.55   1 0.78734-0.79420-0.04657 0.31849 0.61479-0.51753
   0  -4  -293041.96 1391.41   1-0.13289 0.12572 0.46267-0.19084-0.87651 0.97353
   0   4   292981.66 1413.68   1 0.06123-0.05401 0.19763-0.46966-0.97836 0.88119
   0  -4  -3185206.1 2083.12   1 0.81618-0.82649-0.09918 0.37109 0.56925-0.42336
   0   4   3191256.5 2263.36   1-0.03181 0.04249 0.32909-0.60109-0.94376 0.79804
   0   4   443323.84 1723.00   1 0.28144-0.26713-0.67711 0.40545 0.67993-0.87421
   0   4   440526.21 1533.67   1-0.10688 0.12121 0.42914-0.70094-0.89689 0.70283
   0   4   5129310.9 3052.05   1 0.34551-0.32739-0.73851 0.46639 0.57897-0.82175
   0   4   5115807.4 2865.18   1-0.16422 0.18212 0.50218-0.77397-0.84902 0.60645
   0   4   649544.15 1952.48   1 0.39515-0.37346-0.78033 0.50822 0.48469-0.77603
   0   4   764201.31 1933.39   1 0.43343-0.40816-0.80794 0.53584 0.39920-0.73910
   0   4   884374.18 2432.11   1 0.46336-0.43434-0.82547 0.55318 0.32231-0.71086
   0   4   9 9635.62  901.60   1 0.48688-0.45428-0.83616 0.56388 0.25255-0.68968
   0   4  10157551.5 4036.45   1 0.50561-0.46945-0.84179 0.56953 0.18902-0.67471
   0   4  1114840.56 2403.84   1 0.52068-0.48094-0.84369 0.57144 0.13067-0.66494
   0   4  1268479.02 2241.91   1 0.53193-0.48905-0.84349 0.57244 0.07454-0.65812
   0   4  13  508.04  268.59   1 0.54188-0.49548-0.84011 0.56920 0.02391-0.65612
   0   4  14 2654.78 1086.86   1 0.54992-0.49999-0.83488 0.56412-0.02375-0.65709
   0   4  1515387.86 4145.92   1 0.55634-0.50289-0.82809 0.55747-0.06893-0.66054
   0   4  16 1118.49  572.13   1 0.56138-0.50440-0.81994 0.54947-0.11203-0.66607
   0   4  16  889.92  420.50   1 0.82611-0.76898-0.52999 0.25818-0.19148-0.58483
   0   4  1710130.16 1122.28   1 0.56647-0.50607-0.80957 0.53892-0.15392-0.67339
   0   4  17 8403.63 1052.69   1 0.82171-0.76100-0.52291 0.25110-0.22663-0.59819
   0   4  18 4916.21 2982.41   1 0.56915-0.50522-0.79907 0.52853-0.19377-0.68220
   0   4  18 7839.47 1085.70   1 0.81635-0.75207-0.51530 0.24347-0.26087-0.61247
   0   4  19 5432.77 2887.98   1 0.57083-0.50337-0.78749 0.51707-0.23236-0.69227
   0   4  19 7483.16 1001.41   1 0.81005-0.74219-0.50714 0.23532-0.29434-0.62753
   0  -5  19 9858.97 2044.35   1 0.68498-0.61666-0.38652 0.72635-0.61759-0.30356
   0  -5  18 1016.89  821.93   1 0.69167-0.62694-0.39233 0.73214-0.60636-0.26631
   0  -5  1714835.14 1498.09   1 0.69739-0.63625-0.39734 0.73712-0.59647-0.22772
   0  -5  1614916.12 1386.78   1 0.70209-0.64452-0.40147 0.74123-0.58814-0.18756
   0  -5  1528053.97 1337.60   1 0.70568-0.65170-0.40464 0.74438-0.58163-0.14559
   0  -5  14 5952.54 1714.64   1 0.70805-0.65765-0.40675 0.74646-0.57726-0.10148
   0  -5  13 5434.03  955.00   1 0.70903-0.66222-0.40762 0.74731-0.57544-0.05482
   0   5 -1230092.17 1456.09   1-0.11834 0.07527 0.64147-0.98152 0.75799-0.17606
   0  -5  1233745.08 1575.05   1 0.70837-0.66515-0.40704 0.74670-0.57666-0.00511
   0   5 -11116476.1 2341.07   1-0.08475 0.04525 0.63012-0.97013 0.77189-0.23845
   0  -5  11115439.9 2841.37   1 0.70572-0.66608-0.40468 0.74433-0.58155 0.04824
   0   5 -1036243.05 1080.27   1-0.03707 0.00114 0.61253-0.95249 0.78961-0.30466
   0  -5  1036931.41 1357.76   1 0.70055-0.66450-0.40012 0.73973-0.59088 0.10606
   0   5  -959363.71 1488.55   1 0.02704-0.05931 0.58554-0.92566 0.81022-0.37374
   0  -5   957584.16 1753.83   1 0.69209-0.65962-0.39270 0.73229-0.60565 0.16931
   0   5  -853428.05  987.16   1 0.11252-0.14120 0.54550-0.88558 0.83055-0.44257
   0  -5   853091.17 1413.66   1 0.67916-0.65027-0.38150 0.72107-0.62707 0.23921
   0   5  -710955.73  757.75   1 0.21736-0.24257 0.48847-0.82806 0.84510-0.50549
   0  -5   710947.18 1110.31   1 0.65898-0.63391-0.36545 0.70501-0.65742 0.31801
   0   5  -621886.35 1389.10   1 0.34317-0.36481 0.40802-0.74766 0.84604-0.55495
   0  -5   620613.64 1408.73   1 0.63068-0.60917-0.34181 0.68136-0.69672 0.40580
   0   5  -5242932.0 4695.74   1 0.47689-0.49483 0.30596-0.64582 0.82402-0.58147
   0  -5   5247970.814829.98   1 0.58898-0.57104-0.30787 0.64740-0.74721 0.50478
   0   5  -4172350.1 3398.90   1 0.59838-0.61273 0.19310-0.53295 0.77762-0.58358
   0  -5   4174071.2 3621.12   1 0.52730-0.51292-0.25914 0.59865-0.80921 0.61526
   0   5  -335763.83 1221.72   1 0.69740-0.70795 0.08208-0.42231 0.71199-0.56614
   0  -5   335211.75 1223.22   1 0.09841-0.08763 0.55249-0.21266 0.82771-0.97321
   0  -5   336909.53 1337.04   1 0.43502-0.42420-0.18932 0.52914-0.88030 0.73490
   0   5  -335912.88 1313.41   1 0.74459-0.75556-0.44015 0.10070-0.50186 0.64731
   0  -5   336487.97 1502.88   1 0.31570-0.30500-0.20520 0.54530-0.92640 0.78078
   0   5  -2102226.7 2123.86   1 0.76917-0.77610-0.01688-0.32310 0.63885-0.54159
   0  -5   2101149.2 2141.76   1 0.32777-0.32046 0.41864-0.07884 0.84696-0.94399
   0  -5   2102213.1 2193.41   1 0.30614-0.29897-0.09318 0.43288-0.94742 0.85044
   0   5  -2100098.0 2156.24   1 0.67611-0.68349-0.37887 0.03945-0.63194 0.72890
   0  -5   2104627.5 2516.74   1 0.25134-0.24421-0.09625 0.43631-0.96310 0.86602
   0   5  -191994.34 1950.77   1 0.81689-0.82037-0.10059-0.23937 0.56799-0.51935
   0  -5   190298.65 1944.52   1 0.50161-0.49803 0.28474 0.05509 0.81692-0.86543
   0   5  -189935.36 1962.04   1 0.56609-0.56977-0.28959-0.04986-0.77181 0.82030
   0  -5   194897.92 2273.62   1 0.17175-0.16811 0.03104 0.30905-0.98465 0.93606
   0   5   0   62.25  114.13   1 0.84677-0.84694-0.17043-0.16960 0.50395-0.50395
   0   5   0   51.54  112.47   1 0.40920-0.40942-0.17007-0.16954-0.89646 0.89646
   0  -5   0   20.81  235.23   1 0.08008-0.08006 0.17003 0.17004-0.98218 0.98218
   0   5   191120.55 2024.59   1 0.86667-0.86328-0.22821-0.11186 0.44366-0.49222
   0  -5  -190727.82 2002.18   1 0.69938-0.70303 0.07957 0.26060 0.71033-0.66171
   0   5   189293.71 1904.97   1 0.21964-0.21617-0.03179-0.30779-0.97507 0.92658
   0  -5  -193807.48 2502.59   1-0.01735 0.01381 0.30915 0.03094-0.95085 0.99942
   0   5   188393.25 2110.19   1 0.21167-0.20809-0.03175-0.30819-0.97682 0.92828
   0   5   298323.47 2183.01   1 0.87877-0.87181-0.27699-0.06313 0.38868-0.48580
   0  -5  -298433.89 2180.10   1 0.75134-0.75820 0.01029 0.32961 0.65986-0.56260
   0  -5  -2104627.4 2410.81   1-0.11243 0.10525 0.43636-0.09656-0.89272 0.98974
   0   5   298153.60 2320.37   1 0.12648-0.11927 0.10069-0.44073-0.98684 0.88967
   0  -5  -335980.65 1397.73   1-0.19838 0.18762 0.54413-0.20435-0.81521 0.96074
   0   5   334381.46 1355.86   1 0.04720-0.03652 0.21783-0.55786-0.97484 0.82913
   0   5   4175484.5 3935.17   1 0.24135-0.22701-0.63517 0.29554 0.73368-0.92796
   0   5   5251999.615155.74   1 0.30585-0.28796-0.70140 0.36183 0.64380-0.88665
   0   5   623279.71 1670.87   1 0.35796-0.33622-0.74954 0.40939 0.55681-0.84814
   0   5   7 9913.00  881.66   1 0.40041-0.37508-0.78439 0.44425 0.47371-0.81360
   0   5   855217.34 1600.05   1 0.43465-0.40575-0.80873 0.46860 0.39626-0.78471
   0   5   958314.84 2023.51   1 0.46249-0.42978-0.82502 0.48464 0.32471-0.76184
   0   5  1036236.38 1533.02   1 0.48508-0.44879-0.83546 0.49510 0.25824-0.74394
   0   5  11117833.8 3153.97   1 0.50354-0.46369-0.84133 0.50098 0.19649-0.73075
   0   5  1231514.91 1847.23   1 0.51869-0.47527-0.84361 0.50327 0.13885-0.72168
   0   5  13 5699.94 2130.38   1 0.53015-0.48359-0.84383 0.50473 0.08289-0.71511
   0   5  14 3883.72 1752.60   1 0.54045-0.49036-0.84077 0.50182 0.03169-0.71254
   0   5  1527327.85 1555.88   1 0.54884-0.49523-0.83575 0.49694-0.01688-0.71259
   0   5  1614743.76 3902.71   1 0.55559-0.49846-0.82904 0.49037-0.06322-0.71488
   0   5  1716692.47 2526.63   1 0.56091-0.50026-0.82084 0.48232-0.10764-0.71909
   0   5  1715467.06 1571.74   1 0.82432-0.76363-0.52698 0.18723-0.20690-0.61792
   0   5  18 1642.23  922.81   1 0.56495-0.50078-0.81129 0.47291-0.15041-0.72495
   0   5  18  939.11  831.33   1 0.81932-0.75506-0.51941 0.17966-0.24277-0.63057
   0   5  19 9303.05 1694.46   1 0.56908-0.50152-0.79943 0.46086-0.19246-0.73217
   0   5  19 9743.98 1429.23   1 0.81330-0.74547-0.51127 0.17151-0.27776-0.64411
   0  -6  18  342.41  664.89   1 0.65973-0.59541-0.36608 0.77372-0.65632-0.21644
   0  -6  17 2032.42 1374.38   1 0.66531-0.60412-0.36966 0.77732-0.64863-0.17555
   0  -6  1611473.70 1768.44   1 0.66884-0.61123-0.37266 0.78030-0.64327-0.13244
   0  -6  15 4701.75 1814.74   1 0.67101-0.61699-0.37451 0.78212-0.63992-0.08730
   0  -6  14 7937.30  714.45   1 0.67164-0.62121-0.37505 0.78264-0.63894-0.03980
   0  -6  1316307.81  979.46   1 0.67050-0.62365-0.37408 0.78164-0.64071 0.01044
   0   6 -1295049.64 2872.75   1 0.10434-0.14736 0.54957-0.95779 0.82893-0.24695
   0  -6  12103090.8 2250.61   1 0.66724-0.62397-0.37130 0.77884-0.64571 0.06393
   0  -6  1165977.88 2941.30   1 0.66045-0.62109-0.36669 0.77421-0.65526 0.12190
   0  -6  1025705.33 1528.51   1 0.65126-0.61547-0.35895 0.76645-0.66860 0.18372
   0   6  -9 9944.58  523.96   1 0.28495-0.31736 0.44700-0.85449 0.84796-0.41132
   0  -6   9 9886.92 1829.15   1 0.63782-0.60559-0.34773 0.75521-0.68723 0.25085
   0   6  -873432.81 1687.47   1 0.37221-0.40104 0.38738-0.79491 0.84347-0.45534
   0  -6   872213.20 1994.22   1 0.61872-0.59005-0.33198 0.73945-0.71203 0.32414
   0   6  -711012.01  791.89   1 0.46850-0.49362 0.31299-0.72083 0.82619-0.48662
   0  -6   711129.19  883.59   1 0.59195-0.56685-0.31025 0.71770-0.74388 0.40447
   0   6  -6 5376.72  592.14   1 0.56219-0.58372 0.22912-0.63695 0.79466-0.50360
   0  -6   6 4833.98  512.65   1 0.55462-0.53309-0.28053 0.68796-0.78340 0.49247
   0   6  -516785.45 1217.42   1 0.64849-0.66612 0.14058-0.54886 0.74815-0.50506
   0  -6   516124.13 1137.08   1 0.50137-0.48344-0.23968 0.64755-0.83138 0.58905
   0   6  -425597.28 1095.42   1 0.71825-0.73233 0.05495-0.46322 0.69364-0.49916
   0  -6   423107.01 1478.72   1-0.06596 0.08053 0.62340-0.21583 0.77915-0.97312
   0  -6   425060.16 1093.12   1 0.42942-0.41503-0.18513 0.59294-0.88393 0.69006
   0   6  -423012.84 1600.56   1 0.77966-0.79409-0.47318 0.06560-0.41018 0.60426
   0  -6   424875.44 1242.84   1 0.31377-0.29950-0.20185 0.60998-0.92779 0.73363
   0   6  -3100512.9 2127.88   1 0.77318-0.78356-0.02324-0.38475 0.63379-0.48790
   0  -6   393739.92 2044.94   1 0.15263-0.14184 0.52477-0.11700 0.83748-0.98297
   0  -6   399166.07 2219.30   1 0.33128-0.32041-0.11293 0.52067-0.93676 0.79136
   0   6  -396231.55 2175.58   1 0.73816-0.74917-0.43412 0.02680-0.51640 0.66185
   0  -6   398851.72 2510.37   1 0.26462-0.25392-0.11828 0.52637-0.95707 0.81144
   0   6  -212737.77  563.13   1 0.81263-0.81957-0.09225-0.31572 0.57546-0.47820
   0  -6   211040.11  523.65   1 0.33920-0.33187 0.41078-0.00301 0.84631-0.94334
   0  -6   211310.62  543.40   1 0.20428-0.19709-0.02104 0.42866-0.97869 0.88171
   0   6  -213020.62  644.85   1 0.67541-0.68284-0.37828-0.02902-0.63304 0.73000
   0  -6   211509.61  703.43   1 0.20479-0.19766-0.02075 0.42881-0.97858 0.88150
   0   6  -116741.83  701.37   1 0.84077-0.84426-0.15213-0.25582 0.51961-0.47098
   0  -6   116689.95 1409.02   1 0.48348-0.47991 0.30038 0.10741 0.82223-0.87074
   0   6  -114853.58 1059.69   1 0.58141-0.58512-0.30180-0.10554-0.75557 0.80406
   0  -6   117561.82  887.54   1 0.13465-0.13101 0.08827 0.31984-0.98695 0.93837
   0   6   099386.85 2170.30   1 0.85919-0.85940-0.20444-0.20360 0.46907-0.46907
   0  -6   092296.82 2100.12   1 0.58773-0.58776 0.20394 0.20385 0.78295-0.78295
   0   6   096486.66 2088.28   1 0.45461-0.45488-0.20406-0.20347-0.86701 0.86701
   0  -6   087668.03 2207.50   1 0.05682-0.05679 0.20404 0.20405-0.97731 0.97731
   0   6   116108.09  717.59   1 0.87256-0.86920-0.24972-0.15837 0.41990-0.46846
   0  -6  -115768.47  739.47   1 0.66208-0.66575 0.12496 0.28325 0.73897-0.69035
   0   6   115686.55  661.88   1 0.30340-0.29995-0.09121-0.31629-0.94849 0.90000
   0  -6  -115248.00  783.40   1-0.02482 0.02129 0.31948 0.08863-0.94726 0.99583
   0   6   212078.38  704.50   1 0.88116-0.87423-0.28965-0.11847 0.37375-0.47088
   0  -6  -211624.07  704.80   1-0.10546 0.09827 0.42729-0.01953-0.89794 0.99496
   0  -6  -398123.72 2431.84   1-0.18073 0.16997 0.52261-0.11487-0.83319 0.97873
   0   6   516468.09 1273.13   1 0.27734-0.25943-0.67293 0.26538 0.68573-0.92858
   0   6   6 4748.75  732.24   1 0.32979-0.30833-0.72422 0.31673 0.60558-0.89700
   0   6   710825.27  973.52   1 0.37344-0.34806-0.76277 0.35458 0.52793-0.86782
   0   6   874766.10 2332.78   1 0.41015-0.38120-0.79170 0.38353 0.45273-0.84118
   0   6   911037.13 2587.98   1 0.44068-0.40814-0.81259 0.40442 0.38144-0.81844
   0   6  1025508.47 1271.97   1 0.46619-0.42979-0.82693 0.41847 0.31440-0.80009
   0   6  1168158.21 2711.46   1 0.48734-0.44737-0.83633 0.42788 0.25107-0.78534
   0   6  1299378.14 3438.45   1 0.50496-0.46143-0.84165 0.43322 0.19137-0.77421
   0   6  1314881.45 3720.18   1 0.51965-0.47254-0.84365 0.43523 0.13493-0.76633
   0   6  14 7510.08 2303.57   1 0.53084-0.48059-0.84371 0.43655 0.07970-0.76055
   0   6  15 6488.44 2086.98   1 0.54103-0.48726-0.84051 0.43350 0.02857-0.75805
   0   6  1612618.46 4307.47   1 0.54938-0.49209-0.83532 0.42845-0.02030-0.75780
   0   6  17 3140.10 1282.81   1 0.55612-0.49531-0.82837 0.42165-0.06722-0.75951
   0   6  17 2083.97 1827.21   1 0.82596-0.76530-0.52974 0.12205-0.19282-0.63201
   0   6  18  284.98  543.28   1 0.56142-0.49709-0.81986 0.41328-0.11242-0.76295
   0   6  18  546.99  527.19   1 0.82123-0.75699-0.52219 0.11450-0.23002-0.64333
   0   6  1917701.54 1479.56   1 0.81541-0.74759-0.51403 0.10634-0.26626-0.65560
   0  -7  1818811.59 1547.47   1 0.62389-0.55955-0.33622 0.81175-0.70550-0.16726
   0  -7  1724570.38 2494.34   1 0.62745-0.56667-0.33915 0.81466-0.70093-0.12335
   0  -7  1610403.32 2350.70   1 0.62953-0.57232-0.34087 0.81636-0.69822-0.07756
   0  -7  1522375.60 2013.53   1 0.62996-0.57631-0.34122 0.81670-0.69766-0.02963
   0  -7  14 1109.46  428.65   1 0.62850-0.57842-0.34002 0.81548-0.69956 0.02074
   0  -7  13 4573.56 1062.23   1 0.62484-0.57833-0.33701 0.81245-0.70428 0.07394
   0  -7  1210567.12 2338.55   1 0.61855-0.57561-0.33184 0.80727-0.71224 0.13039
   0  -7  1111320.09 2212.33   1 0.60904-0.56966-0.32408 0.79949-0.72391 0.19055
   0   7 -1025107.71  605.28   1 0.45372-0.48961 0.32515-0.80097 0.82973-0.34464
   0  -7  1024452.51 1318.71   1 0.59551-0.55969-0.31312 0.78851-0.73982 0.25495
   0   7  -949607.78 1093.86   1 0.51796-0.55026 0.27025-0.74606 0.81162-0.37503
   0  -7   949704.35 1567.93   1 0.57687-0.54461-0.29817 0.77354-0.76048 0.32410
   0   7  -816638.79  467.56   1 0.58379-0.61250 0.20790-0.68371 0.78486-0.39679
   0  -7   816088.51 1006.69   1 0.55161-0.52292-0.27816 0.75352-0.78636 0.39846
   0   7  -748396.44 1176.86   1 0.64859-0.67330 0.14047-0.61681 0.74809-0.40775
   0  -7   748553.66 1540.17   1 0.51772-0.49260-0.25171 0.72705-0.81769 0.47828
   0   7  -673763.21 1662.98   1 0.70437-0.72553 0.07318-0.54951 0.70608-0.41436
   0  -7   676427.20 2006.02   1 0.47113-0.44962-0.21656 0.69242-0.85508 0.56427
   0   7  -5102773.1 1437.58   1 0.75241-0.76970 0.00870-0.48473 0.65866-0.41551
   0  -7   5100839.4 2422.59   1 0.41121-0.39324-0.17156 0.64735-0.89526 0.65292
   0  -7   5100753.8 2738.75   1 0.30523-0.28740-0.18708 0.66325-0.93371 0.69101
   0  -7   452687.55  983.17   1-0.01518 0.02956 0.60327-0.12751 0.79742-0.99142
   0  -7   454469.19 1155.95   1 0.33274-0.31830-0.11399 0.58972-0.93611 0.74224
   0  -7   456848.33 1520.73   1 0.26575-0.25148-0.12016 0.59629-0.95652 0.76236
   0   7  -341592.87  848.85   1 0.81943-0.82982-0.10566-0.37032 0.56339-0.41750
   0  -7   338847.00  843.06   1 0.17376-0.16297 0.51334-0.03763 0.84044-0.98593
   0  -7   341002.20  950.70   1 0.23448-0.22373-0.04222 0.51780-0.97121 0.82574
   0  -7   342142.40 1270.59   1 0.21846-0.20776-0.04266 0.51875-0.97491 0.82929
   0   7  -2 2163.11  629.17   1 0.84178-0.84872-0.15454-0.32142 0.51726-0.42000
   0  -7   2 1920.37  318.11   1 0.33255-0.32518 0.41537 0.06037 0.84671-0.94374
   0   7  -2 1819.10  434.87   1 0.68313-0.69060-0.38492-0.09025-0.62063 0.71759
   0  -7   2 2004.28  657.96   1 0.16315-0.15589 0.04442 0.43172-0.98560 0.88843
   0   7  -1 3609.16  502.13   1 0.85730-0.86111-0.19890-0.27711 0.47488-0.42632
   0  -7   1 2156.64  548.73   1 0.45827-0.45471 0.32143 0.15432 0.82868-0.87719
   0   7  -1 2681.51  811.41   1 0.60327-0.60700-0.31940-0.15583-0.73079 0.77928
   0  -7   1 3302.81 1090.35   1 0.10084-0.09719 0.13926 0.33686-0.98510 0.93652
   0   7   0  187.63  156.80   1 0.86958-0.86982-0.23845-0.23760 0.43243-0.43243
   0   7   0   87.51   58.78   1 0.49925-0.49955-0.23805-0.23741-0.83313 0.83313
   0  -7   0   62.74  276.64   1 0.03310-0.03307 0.23809 0.23809-0.97067 0.97067
   0   7   1 3603.77  687.44   1 0.87823-0.87490-0.27435-0.20175 0.39176-0.44032
   0   7   1 2770.97  479.47   1 0.37422-0.37100-0.14424-0.33115-0.91606 0.86759
   0  -7  -1 3570.17  952.28   1-0.03705 0.03352 0.33628 0.13986-0.94103 0.98960
   0   7   2 2306.31  626.97   1 0.88392-0.87703-0.30715-0.16898 0.35267-0.44979
   0   7   2 1536.92  448.55   1 0.24029-0.23330-0.04631-0.42909-0.96960 0.87262
   0  -7  -2 2387.55  717.06   1-0.10686 0.09967 0.42912 0.04659-0.89690 0.99393
   0  -7  -339363.66 1181.13   1-0.17329 0.16252 0.51344-0.03773-0.84044 0.98598
   0   7   5101114.7 2773.21   1 0.25867-0.24072-0.65359 0.17806 0.71127-0.95412
   0   7   674932.09 2301.27   1 0.30935-0.28786-0.70481 0.22934 0.63838-0.92980
   0   7   748238.95 1922.50   1 0.35292-0.32748-0.74512 0.26888 0.56589-0.90578
   0   7   815912.55 1287.59   1 0.39055-0.36153-0.77671 0.30048 0.49416-0.88261
   0   7   949943.17 1833.84   1 0.42259-0.39000-0.80061 0.32440 0.42477-0.86177
   0   7  1027782.84 1506.72   1 0.44980-0.41363-0.81813 0.34194 0.35822-0.84379
   0   7  1111810.87 3087.31   1 0.47299-0.43291-0.83025 0.35370 0.29487-0.82914
   0   7  12 9831.25 3057.71   1 0.49251-0.44886-0.83816 0.36163 0.23432-0.81715
   0   7  13 3749.08 1444.27   1 0.50899-0.46177-0.84246 0.36594 0.17658-0.80799
   0   7  14 1076.43  659.22   1 0.52287-0.47208-0.84371 0.36720 0.12145-0.80143
   0   7  1522955.88 2411.35   1 0.53347-0.47955-0.84314 0.36793 0.06717-0.79665
   0   7  16 9155.88 3660.08   1 0.54324-0.48579-0.83941 0.36435 0.01640-0.79451
   0   7  1722135.19 1765.65   1 0.55124-0.49028-0.83371 0.35879-0.03245-0.79428
   0   7  1722671.39 1588.49   1 0.82684-0.76619-0.53129 0.05567-0.18462-0.64020
   0   7  1813913.39 5003.67   1 0.55769-0.49320-0.82622 0.35145-0.07961-0.79576
   0   7  1818434.23 1451.49   1 0.82223-0.75802-0.52371 0.04808-0.22287-0.65047
   0  -8  17  879.08  539.30   1 0.58528-0.52448-0.30490 0.84830-0.75133-0.07294
   0  -8  16 2727.01 1062.24   1 0.58568-0.52845-0.30522 0.84860-0.75088-0.02490
   0  -8  15  351.32  346.11   1 0.58413-0.53046-0.30397 0.84734-0.75260 0.02529
   0  -8  14 7059.88 2123.14   1 0.58032-0.53022-0.30093 0.84428-0.75676 0.07794
   0  -8  1315103.26 3213.46   1 0.57389-0.52735-0.29579 0.83913-0.76365 0.13332
   0  -8  1214997.30  984.12   1 0.56433-0.52136-0.28820 0.83152-0.77362 0.19177
   0  -8  1113691.07  907.87   1 0.55098-0.51158-0.27766 0.82096-0.78698 0.25362
   0  -8  10 8390.72  785.01   1 0.53298-0.49714-0.26356 0.80684-0.80404 0.31917
   0  -8   919541.45 1113.87   1 0.50773-0.47559-0.24458 0.78856-0.82607 0.38987
   0   8  -829952.60  988.18   1 0.73187-0.76011 0.03637-0.58076 0.68050-0.29154
   0  -8   837735.71 1516.75   1 0.47665-0.44803-0.22076 0.76467-0.85093 0.46319
   0   8  -7 2583.14  602.95   1 0.76466-0.78885-0.00985-0.53420 0.64438-0.30397
   0  -8   7 3141.15  723.90   1 0.43643-0.41135-0.19038 0.73423-0.87937 0.54010
   0  -8   7 3999.76 1677.38   1 0.31983-0.29486-0.21241 0.75663-0.92335 0.58357
   0   8  -6  821.31  239.37   1 0.79213-0.81287-0.05479-0.48923 0.60792-0.31613
   0  -8   6 1139.22  287.67   1 0.38481-0.36327-0.15203 0.69581-0.91040 0.61959
   0  -8   6  623.39  216.22   1 0.29243-0.27103-0.16514 0.70934-0.94191 0.65067
   0   8  -527925.04  983.97   1 0.81525-0.83254-0.09735-0.44666 0.57090-0.32775
   0  -8   526405.07 1153.18   1 0.31924-0.30123-0.10423 0.64795-0.94193 0.69960
   0  -8   525499.46 1176.13   1 0.25960-0.24177-0.10993 0.65409-0.95943 0.71673
   0   8  -4 4903.80  483.84   1 0.83431-0.84815-0.13723-0.40676 0.53397-0.33945
   0  -8   4 3891.94  319.35   1 0.00829 0.00609 0.59358-0.04988 0.80476-0.99876
   0  -8   4 4720.79  475.62   1 0.23959-0.22528-0.04582 0.58936-0.96980 0.77583
   0  -8   4 5723.45 1476.74   1 0.22085-0.20659-0.04652 0.59065-0.97419 0.78003
   0   8  -318956.17  674.09   1 0.84852-0.85950-0.17493-0.36900 0.49944-0.35375
   0  -8   315211.39  742.25   1 0.17458-0.16377 0.51289 0.03075 0.84054-0.98604
   0  -8   317847.33 1080.11   1 0.17585-0.16497 0.02462 0.51956-0.98410 0.83835
   0   8  -2126391.7 2754.26   1 0.86092-0.86832-0.20965-0.33432 0.46357-0.36645
   0  -8   2123307.3 3139.88   1 0.12500-0.11774 0.10292 0.44123-0.98680 0.88963
   0   8  -169928.01 1812.40   1 0.87057-0.87441-0.24208-0.30193 0.42841-0.37985
   0   8  -163357.16 1734.27   1 0.62905-0.63281-0.34047-0.20264-0.69885 0.74733
   0  -8   172655.47 2130.30   1 0.06901-0.06536 0.18628 0.35786-0.98007 0.93148
   0   8   051586.70 1461.34   1 0.87784-0.87811-0.27246-0.27160 0.39395-0.39395
   0   8   171730.72 1939.78   1 0.88302-0.87973-0.30102-0.24309 0.36012-0.40869
   0   8   163559.39 1588.91   1 0.43994-0.43676-0.19301-0.35030-0.87705 0.82858
   0  -8  -171179.48 2023.66   1-0.05240 0.04887 0.35716 0.18701-0.93257 0.98114
   0   8   2106845.4 2503.44   1 0.32540-0.31869-0.10869-0.43456-0.93932 0.84238
   0  -8  -2121655.0 3140.09   1-0.11383 0.10663 0.43816 0.10551-0.89165 0.98868
   0  -8  -317696.83  978.62   1-0.17298 0.16220 0.51305 0.03061-0.84074 0.98628
   0   8   527084.11 1271.48   1 0.24790-0.22992-0.64219 0.09869 0.72534-0.96819
   0   8   6  899.76  355.61   1 0.29604-0.27451-0.69175 0.14831 0.65866-0.95007
   0   8   7 2364.13  476.88   1 0.33874-0.31367-0.73248 0.18910 0.59052-0.93051
   0   8   838477.79 1839.85   1 0.37592-0.34685-0.76484 0.22057 0.52316-0.91161
   0   8   918721.44 2500.98   1 0.40849-0.37584-0.79048 0.24622 0.45636-0.89337
   0   8  10 8794.31 2206.19   1 0.43666-0.40043-0.81003 0.26579 0.39136-0.87693
   0   8  1113714.02 2916.35   1 0.46105-0.42085-0.82425 0.27960 0.32869-0.86296
   0   8  1216863.10 2142.19   1 0.48189-0.43812-0.83418 0.28955 0.26816-0.85100
   0   8  1312845.17 3241.35   1 0.49971-0.45238-0.84035 0.29573 0.20995-0.84136
   0   8  14 6811.40 1529.93   1 0.51490-0.46399-0.84330 0.29869 0.15398-0.83395
   0   8  15  181.80  403.32   1 0.52664-0.47256-0.84432 0.30091 0.09885-0.82833
   0   8  16 3047.61 1221.18   1 0.53757-0.47997-0.84191 0.29865 0.04676-0.82488
   0   8  17  831.90  558.16   1 0.54667-0.48554-0.83734 0.29422-0.00353-0.82321
   0   8  18  882.59  519.30   1 0.82241-0.75821-0.52397-0.01958-0.22162-0.65173
   0  -9  17 2865.03 1340.69   1 0.53777-0.47695-0.26730 0.87859-0.79960-0.02467
   0  -9  16 1306.16  874.40   1 0.53631-0.47905-0.26616 0.87743-0.80097 0.02517
   0  -9  1516209.77 3394.47   1 0.53257-0.47888-0.26324 0.87450-0.80442 0.07711
   0  -9  1430835.62 1820.99   1 0.52622-0.47609-0.25830 0.86954-0.81018 0.13136
   0  -9  1310556.04 1483.06   1 0.51683-0.47027-0.25102 0.86224-0.81846 0.18813
   0  -9  12 2081.39  752.16   1 0.50236-0.45957-0.24044 0.85254-0.83056 0.24896
   0  -9  11 2085.30  543.98   1 0.48510-0.44585-0.22721 0.83924-0.84443 0.31129
   0  -9  10 4387.69 1107.96   1 0.46268-0.42696-0.21016 0.82213-0.86126 0.37659
   0  -9   947234.59 1659.07   1 0.43401-0.40182-0.18856 0.80046-0.88096 0.44476
   0  -9   946887.36 1872.43   1 0.31998-0.28787-0.21266 0.82496-0.92324 0.48638
   0  -9   8 5252.84 1703.40   1 0.39771-0.36905-0.16155 0.77338-0.90318 0.51545
   0  -9   8 4743.28  632.72   1 0.30017-0.27162-0.17837 0.79063-0.93706 0.54873
   0  -9   722640.25  861.83   1 0.35220-0.32708-0.12814 0.73991-0.92712 0.58785
   0  -9   722960.22 1302.53   1 0.27650-0.25153-0.13818 0.75041-0.95102 0.61124
   0   9  -5 4505.46  826.98   1 0.85264-0.87079-0.18585-0.42601 0.48835-0.24555
   0  -9   5 4681.59 1279.65   1 0.22889-0.21102-0.03829 0.64979-0.97271 0.73025
   0  -9   5 5555.70 2061.91   1 0.21596-0.19813-0.03865 0.65081-0.97563 0.73293
   0   9  -420594.10  658.40   1 0.86123-0.87581-0.21063-0.40127 0.46254-0.26830
   0  -9   418053.20  677.38   1 0.14580-0.13147 0.01947 0.59198-0.98913 0.79516
   0  -9   420054.70 1263.41   1 0.17840-0.16390 0.02062 0.59158-0.98374 0.78940
   0   9  -389404.60 1836.92   1 0.86869-0.87970-0.23524-0.37670 0.43598-0.29029
   0  -9   389096.92 2417.07   1 0.13604-0.12516 0.08615 0.52604-0.98695 0.84119
   0   9  -223277.51  941.32   1 0.87495-0.88239-0.25949-0.35250 0.40885-0.31173
   0  -9   224007.48 1031.38   1 0.08913-0.08187 0.15666 0.45552-0.98362 0.88645
   0   9  -172015.75 1637.53   1 0.87999-0.88387-0.28326-0.32877 0.38133-0.33277
   0  -9   171629.21 2053.74   1 0.03824-0.03463 0.23072 0.38155-0.97226 0.92369
   0   9   0   66.42  143.74   1 0.88382-0.88413-0.30647-0.30560 0.35350-0.35350
   0  -9   0  326.31  210.95   1-0.01516 0.01521 0.30612 0.30612-0.95187 0.95187
   0  -9  -168547.37 1948.95   1-0.06994 0.06642 0.38078 0.23141-0.92201 0.97058
   0  -9  -223911.49 1192.47   1-0.12470 0.11749 0.45219 0.15945-0.88316 0.98018
   0  -9  -386112.11 2228.57   1-0.17782 0.16704 0.51903 0.09260-0.83605 0.98159
   0   9   5 4901.52 1563.24   1 0.24342-0.22540-0.63740 0.02591 0.73107-0.97392
   0   9   648730.60 2108.22   1 0.28870-0.26714-0.68444 0.07302 0.66946-0.96088
   0   9   722702.54 1439.54   1 0.32965-0.30455-0.72409 0.11273 0.60581-0.94580
   0   9   8 5144.98 1894.02   1 0.36601-0.33688-0.75649 0.14417 0.54199-0.93044
   0   9   944821.50 2559.20   1 0.39838-0.36567-0.78283 0.17053 0.47798-0.91498
   0   9  10 4207.13 1508.43   1 0.42682-0.39054-0.80352 0.19123 0.41494-0.90050
   0   9  11 1429.05  984.27   1 0.45181-0.41150-0.81909 0.20635 0.35347-0.88774
   0   9  12 2321.30  771.20   1 0.47344-0.42956-0.83046 0.21773 0.29355-0.87639
   0   9  1311030.99 2354.40   1 0.49216-0.44471-0.83805 0.22533 0.23545-0.86686
   0   9  1431594.57 5117.95   1 0.50829-0.45727-0.84233 0.22962 0.17919-0.85917
   0   9  1516726.65 1617.47   1 0.52210-0.46751-0.84371 0.23102 0.12472-0.85326
   0   9  16 1918.27 1117.11   1 0.53272-0.47496-0.84332 0.23186 0.07079-0.84891
   0 -10  15 6591.16  744.49   1 0.47357-0.42014-0.21842 0.89864-0.85325 0.12624
   0 -10  1415666.87 1156.33   1 0.46455-0.41466-0.21158 0.89173-0.85991 0.18137
   0 -10  13 1887.69  862.56   1 0.45213-0.40577-0.20219 0.88227-0.86874 0.23867
   0 -10  12 7297.50 1492.85   1 0.43574-0.39291-0.18986 0.86988-0.87983 0.29822
   0 -10  12 6406.18 1845.25   1 0.32297-0.28015-0.21790 0.89829-0.92098 0.33849
   0 -10  1119710.49 2944.87   1 0.41469-0.37539-0.17414 0.85410-0.89315 0.36001
   0 -10  1120580.95 1973.95   1 0.31088-0.27163-0.19684 0.87720-0.92984 0.39589
   0 -10  1013433.77 1371.38   1 0.38813-0.35236-0.15447 0.83436-0.90858 0.42390
   0 -10  1013723.40 1053.45   1 0.29623-0.26055-0.17164 0.85196-0.93956 0.45416
   0 -10   929115.63 1167.37   1 0.35504-0.32281-0.13021 0.81003-0.92575 0.48954
   0 -10   927246.84 1426.23   1 0.27873-0.24662-0.14193 0.82222-0.94982 0.51295
   0 -10   8 8994.66 1509.66   1 0.31655-0.28801-0.10067 0.78020-0.94323 0.55529
   0 -10   8 9723.62 3114.31   1 0.25805-0.22951-0.10736 0.78761-0.96014 0.57182
   0 -10   7 2464.45  941.62   1 0.26691-0.24192-0.06515 0.74465-0.96152 0.62208
   0 -10   7 3107.60 1009.27   1 0.23388-0.20891-0.06763 0.74786-0.96991 0.63012
   0 -10   6 5846.50 1159.22   1 0.20706-0.18562-0.02298 0.70245-0.97807 0.68711
   0 -10   6 6432.08  711.82   1 0.20594-0.18454-0.02258 0.70277-0.97830 0.68706
   0  10  -5 4327.66  287.95   1 0.87551-0.89368-0.26189-0.41797 0.40612-0.16331
   0 -10   5 9411.21 1496.05   1 0.17396-0.15584 0.02758 0.65266-0.98436 0.74144
   0  10  -434712.20 1307.65   1 0.87837-0.89298-0.27502-0.40488 0.39097-0.19672
   0 -10   433123.20 1576.93   1 0.13802-0.12352 0.08312 0.59710-0.98693 0.79259
   0  10  -3 9345.45  775.82   1 0.88121-0.89226-0.28998-0.38997 0.37337-0.22769
   0 -10   310722.52 1155.92   1 0.09818-0.08730 0.14321 0.53699-0.98481 0.83905
   0  10  -246643.09 1681.73   1 0.88378-0.89125-0.30613-0.37386 0.35391-0.25679
   0 -10   246520.54 1934.96   1 0.05481-0.04754 0.20695 0.47324-0.97681 0.87964
   0 -10   143709.35 1869.26   1 0.00839-0.00478 0.27317 0.40713-0.96192 0.91335
   0 -10   023798.02 1047.77   1-0.03987 0.03992 0.34013 0.34013-0.93953 0.93953
   0 -10  -143828.79 1816.94   1-0.08916 0.08564 0.40633 0.27390-0.90936 0.95793
   0 -10  -246613.06 1870.03   1-0.13846 0.13125 0.46977 0.20983-0.87186 0.96888
   0 -10  -310033.65 1937.60   1-0.18651 0.17573 0.52970 0.14989-0.82742 0.97296
   0  10   5 8659.81  954.78   1 0.24393-0.22588-0.63795-0.04150 0.73042-0.97327
   0  10   6 6491.13 2271.05   1 0.28634-0.26475-0.68207 0.00267 0.67289-0.96431
   0  10   7 2229.67  459.06   1 0.32526-0.30012-0.71998 0.04064 0.61304-0.95303
   0  10   8 9433.58  849.30   1 0.36037-0.33119-0.75164 0.07127 0.55241-0.94086
   0  10   926198.49 2206.99   1 0.39204-0.35928-0.77789 0.09754 0.49111-0.92811
   0  10  1013972.25 1867.68   1 0.42025-0.38391-0.79897 0.11863 0.43015-0.91571
   0  10  1117849.02 1923.02   1 0.44521-0.40529-0.81539 0.13506 0.37003-0.90415
   0  10  12 7693.29 1795.32   1 0.46733-0.42333-0.82750 0.14667 0.31118-0.89402
   0  10  13 1582.76  479.93   1 0.48655-0.43899-0.83603 0.15521 0.25357-0.88498
   0  10  1414889.09 3882.64   1 0.50328-0.45214-0.84126 0.16046 0.19741-0.87739
   0  10  15 5125.82 2269.59   1 0.51773-0.46302-0.84355 0.16275 0.14272-0.87127
   0  10  16  400.47  645.81   1 0.52892-0.47100-0.84403 0.16437 0.08856-0.86668
   0 -11  1318912.55 1581.65   1 0.29496-0.24857-0.16946 0.91789-0.94036 0.30933
   0 -11  12  551.24  854.18   1 0.28414-0.24132-0.15106 0.89946-0.94680 0.36431
   0 -11  1113713.61 1258.22   1 0.27109-0.23184-0.12909 0.87745-0.95385 0.41991
   0 -11  10  139.33  252.25   1 0.31057-0.27492-0.09636 0.84389-0.94566 0.46074
   0 -11  10  589.85  322.23   1 0.25558-0.21990-0.10326 0.85159-0.96125 0.47585
   0 -11   912471.29 1152.24   1 0.27371-0.24161-0.06999 0.81748-0.95927 0.52284
   0 -11   911556.41 2852.04   1 0.23737-0.20526-0.07333 0.82163-0.96864 0.53178
   0 -11   820922.65 1280.32   1 0.21624-0.18770-0.03909 0.78735-0.97555 0.58723
   0 -11   712566.51  670.32   1 0.17651-0.15150-0.00172 0.74914-0.98431 0.64486
   0 -11   714883.30 1058.93   1 0.19192-0.16657-0.00067 0.74897-0.98141 0.64132
   0 -11   614145.08 3368.54   1 0.16436-0.14262 0.04255 0.70573-0.98548 0.69397
   0 -11   532449.66 1462.02   1 0.13342-0.11530 0.09014 0.65812-0.98695 0.74403
   0 -11   4 8943.49 2203.85   1 0.09915-0.08465 0.14177 0.60647-0.98492 0.79058
   0 -11   312834.10 2811.01   1 0.06174-0.05085 0.19688 0.55134-0.97848 0.83272
   0 -11   214879.34 1184.64   1 0.02136-0.01417 0.25483 0.49354-0.96675 0.86960
   0 -11   117752.24 2476.38   1-0.02103 0.02465 0.31425 0.43408-0.94910 0.90053
   0 -11   0  199.61  268.59   1-0.06499 0.06505 0.37415 0.37414-0.92508 0.92508
   0 -11  -118373.66 2297.30   1-0.10977 0.10613 0.43290 0.31468-0.89473 0.94324
   0 -11  -215719.67  952.89   1-0.15445 0.14724 0.48997 0.25759-0.85794 0.95496
   0 -11  -310487.56 1429.12   1-0.19820 0.18740 0.54391 0.20365-0.81540 0.96094
   0  11   529777.20 1480.00   1 0.24848-0.23040-0.64280-0.10462 0.72460-0.96745
   0  11   614335.82 1381.81   1 0.28812-0.26649-0.68385-0.06352 0.67032-0.96174
   0  11   713951.98 1063.73   1 0.32490-0.29973-0.71964-0.02766 0.61363-0.95362
   0  11   821979.36 1332.08   1 0.35853-0.32930-0.75004 0.00163 0.55577-0.94422
   0  11   912676.87 2372.82   1 0.38917-0.35636-0.77562 0.02722 0.49694-0.93395
   0  11  10  225.86  358.93   1 0.41678-0.38039-0.79651 0.04813 0.43801-0.92357
   0  11  1111248.46 2346.12   1 0.44148-0.40151-0.81309 0.06471 0.37944-0.91356
   0  11  1316910.45 4864.01   1 0.48298-0.43530-0.83463 0.08571 0.26478-0.89619
   0  11  14 4266.66 1510.71   1 0.49999-0.44874-0.84043 0.09152 0.20898-0.88896
   0 -12  1226172.28 1881.92   1 0.24443-0.20161-0.08489 0.90128-0.96594 0.38345
   0 -12  1110674.04 1568.82   1 0.23069-0.19144-0.06245 0.87881-0.97102 0.43707
   0 -12  1012104.57 1202.38   1 0.21462-0.17894-0.03648 0.85280-0.97601 0.49061
   0 -12   9 7174.89  762.02   1 0.19599-0.16340-0.00711 0.82347-0.98058 0.54332
   0 -12   8 9048.91 1905.18   1 0.17473-0.14575 0.02637 0.78995-0.98426 0.59558
   0 -12   7 1007.43  523.67   1 0.15068-0.12532 0.06371 0.75260-0.98652 0.64643
   0 -12   6 1864.18  992.23   1 0.12376-0.10202 0.10481 0.71148-0.98676 0.69525
   0 -12   5 8312.95 1678.86   1 0.09397-0.07585 0.14948 0.66680-0.98429 0.74136
   0 -12   4  856.60  586.81   1 0.06141-0.04690 0.19736 0.61890-0.97840 0.78406
   0 -12   3 4322.57 2028.39   1 0.02608-0.01532 0.24811 0.56831-0.96838 0.82266
   0 -12   223634.99 1193.53   1-0.01121 0.01840 0.30063 0.51576-0.95367 0.85653
   0 -12   116310.76  992.81   1-0.05028 0.05391 0.35430 0.46206-0.93378 0.88520
   0 -12   033363.10 1443.22   1-0.09055 0.09061 0.40817 0.40815-0.90840 0.90840
   0 -12  -116708.99  953.27   1-0.13146 0.12781 0.46084 0.35470-0.87768 0.92620
   0 -12  -223623.42 1579.65   1-0.17225 0.16502 0.51215 0.30338-0.84144 0.93847
   0 -12  -3 5259.59 1228.37   1-0.21227 0.20147 0.56082 0.25470-0.80026 0.94580
   0  12   5 6176.35 2379.90   1 0.25633-0.23822-0.65113-0.16428 0.71436-0.95721
   0  12   6  866.08  763.72   1 0.29335-0.27169-0.68908-0.12626 0.66264-0.95406
   0  12   7  734.09  409.61   1 0.32800-0.30280-0.72255-0.09273 0.60854-0.94853
   0  12   9 5594.14 3061.86   1 0.38946-0.35659-0.77584-0.04059 0.49637-0.93338
   0  12  1013045.93 1249.24   1 0.41621-0.37976-0.79610-0.02032 0.43929-0.92486
   0  12  1111990.62 1490.95   1 0.44036-0.40033-0.81238-0.00402 0.38224-0.91636
   0  12  1215533.95 5059.12   1 0.46217-0.41795-0.82485 0.00781 0.32559-0.90843
   0  12  13  266.60  501.51   1 0.48145-0.43365-0.83400 0.01698 0.26951-0.90091
   0 -13  10 2975.08 1756.88   1 0.17339-0.13718 0.02847 0.85591-0.98444 0.49859
   0 -13   9 6577.69 2546.87   1 0.15469-0.12209 0.05753 0.82683-0.98628 0.54902
   0 -13   8 2384.36 1351.56   1 0.13357-0.10459 0.08991 0.79443-0.98695 0.59827
   0 -13   712304.36 4066.55   1 0.10997-0.08461 0.12559 0.75873-0.98596 0.64587
   0 -13   6 4757.69 1379.55   1 0.08388-0.06213 0.16443 0.71988-0.98281 0.69131
   0 -13   5 8984.41 1720.66   1 0.05534-0.03720 0.20619 0.67810-0.97694 0.73402
   0 -13   412577.18 1802.99   1 0.02424-0.00991 0.25074 0.63376-0.96775 0.77346
   0 -13   3 3871.22 2273.12   1-0.00868 0.01944 0.29710 0.58736-0.95480 0.80909
   0 -13   2  258.13  339.09   1-0.04340 0.05060 0.34494 0.53948-0.93762 0.84047
   0 -13   1 5040.52 1209.15   1-0.07952 0.08315 0.39356 0.49082-0.91585 0.86728
   0 -13  -1 5325.36  574.66   1-0.15414 0.15048 0.48958 0.39393-0.85822 0.90673
   0 -13  -2  543.42  423.34   1-0.19155 0.18432 0.53584 0.34765-0.82230 0.91932
   0  13   415881.25 1649.00   1 0.23069-0.21609-0.62364-0.25981 0.74689-0.94117
   0  13   5 9536.44 1912.75   1 0.26696-0.24881-0.66224-0.22114 0.70011-0.94296
   0  13   6 4870.58  729.92   1 0.30152-0.27983-0.69717-0.18615 0.65040-0.94182
   0  13   711283.20 3220.84   1 0.33410-0.30886-0.72821-0.15505 0.59839-0.93838
   0  13   8 2110.25 1793.32   1 0.36450-0.33515-0.75520-0.12930 0.54479-0.93324
   0  13   9 8790.46 1515.77   1 0.39257-0.35964-0.77831-0.10618 0.49002-0.92702
   0  13  10 1804.07 2271.86   1 0.41830-0.38179-0.79759-0.08688 0.43459-0.92015
   0 -14   7 3016.95 1713.29   1 0.06965-0.04428 0.18534 0.76700-0.98020 0.64011
   0 -14   6 8529.96 3486.82   1 0.04421-0.02274 0.22214 0.73045-0.97401 0.68258
   0 -14   4 2101.92 1637.64   1-0.01215 0.02648 0.30193 0.65059-0.95325 0.75896
   0 -14   314564.16 1193.11   1-0.04305 0.05382 0.34447 0.60802-0.93781 0.79209
   0 -14   220911.79 1943.69   1-0.07542 0.08262 0.38809 0.56435-0.91852 0.82138
   0 -14   117104.35 1246.89   1-0.10888 0.11236 0.43174 0.51976-0.89540 0.84688
   0 -14   0   85.27  201.78   1-0.14316 0.14307 0.47573 0.47576-0.86786 0.86786
   0 -14  -116169.00 1180.00   1-0.17774 0.17407 0.51893 0.43254-0.83613 0.88464
   0 -14  -222720.82 1538.04   1-0.21217 0.20493 0.56071 0.39075-0.80036 0.89739
   0  14   4 2280.14 1581.26   1 0.24624-0.23161-0.64042-0.31100 0.72747-0.92175
   0  14   5 1090.86  539.49   1 0.27996-0.26178-0.67560-0.27576 0.68204-0.92489
   0  14   612341.82 1308.99   1 0.31223-0.29051-0.70759-0.24371 0.63389-0.92531
  -1  12   332704.59 1394.68   1 0.22747-0.39760-0.62012-0.19541 0.75080-0.89650
   1 -12  -1 4168.72  961.85   1-0.17594 0.35356 0.51672 0.29883-0.83788 0.88639
   1 -12   2  442.83  332.56   1-0.03340 0.22199 0.33127 0.48512-0.94294 0.84580
   1 -12   3 4379.00  828.48   1 0.01110 0.18104 0.26935 0.54708-0.96297 0.81726
   1 -12   4 1550.49  496.25   1 0.05298 0.14291 0.20960 0.60665-0.97635 0.78201
   1 -12   513035.66 3329.28   1 0.09122 0.10828 0.15356 0.66272-0.98392 0.74099
   1 -12   6 6142.06 2163.69   1 0.12577 0.07736 0.10177 0.71452-0.98682 0.69532
   1 -12   713676.45 3577.93   1 0.15653 0.05021 0.05469 0.76162-0.98615 0.64606
   1 -12   8 1629.28 1690.95   1 0.18357 0.02678 0.01250 0.80383-0.98292 0.59425
   1 -12   945724.54 2522.13   1 0.20722 0.00623-0.02463 0.84092-0.97798 0.54111
   1 -12  10 1257.56 1478.72   1 0.22744-0.01042-0.05718 0.87350-0.97211 0.48670
   1 -12  11  609.06  538.58   1 0.24464-0.02404-0.08523 0.90159-0.96586 0.43191
  -1  11   8 8338.84 1438.43   1 0.42032-0.57237-0.79902 0.05061 0.42997-0.81842
  -1  11   710935.95  819.30   1 0.38822-0.54385-0.77486 0.02643 0.49887-0.83876
  -1  11   6 2422.72  432.63   1 0.35152-0.51072-0.74388-0.00455 0.56839-0.85973
  -1  11   511406.60  823.86   1 0.31020-0.47327-0.70562-0.04180 0.63707-0.87992
  -1  11   4 2253.32 1095.98   1 0.26422-0.43083-0.65939-0.08810 0.70384-0.89811
   1 -11  -214516.68  746.73   1-0.20576 0.37981 0.55303 0.19453-0.80734 0.90437
   1 -11  -1 4233.07 1376.19   1-0.15340 0.33102 0.48865 0.25893-0.85888 0.90740
   1 -11   0 5051.34  966.12   1-0.09984 0.28104 0.41996 0.32764-0.90203 0.90203
   1 -11   1 6490.73  886.54   1-0.04669 0.23170 0.34942 0.39891-0.93580 0.88723
   1 -11   275346.39 2182.45   1 0.00468 0.18389 0.27839 0.46997-0.96045 0.86331
   1 -11   3 1415.59  388.74   1 0.05333 0.13894 0.20910 0.53912-0.97643 0.83068
   1 -11   420378.49 1024.68   1 0.09793 0.09796 0.14359 0.60465-0.98478 0.79044
   1 -11   5 9539.84 2488.62   1 0.13816 0.06135 0.08292 0.66534-0.98693 0.74401
   1 -11   615013.43  925.00   1 0.17380 0.02932 0.02782 0.72045-0.98438 0.69288
   1 -11   7 1735.67 1083.52   1 0.20507 0.00123-0.02120 0.76942-0.97851 0.63873
   1 -11   815205.16 1568.17   1 0.23191-0.02202-0.06443 0.81269-0.97060 0.58227
   1 -11   916789.82 1616.12   1 0.25479-0.04134-0.10196 0.85026-0.96160 0.52473
   1 -11  10 7519.80  755.63   1 0.27410-0.05707-0.13414 0.88247-0.95229 0.46689
   1 -11  11 4421.95 1313.63   1 0.29021-0.06962-0.16137 0.90973-0.94325 0.40931
   1 -11  1211938.31 1510.62   1 0.30349-0.07932-0.18409 0.93248-0.93488 0.35239
   1 -11  13 4765.35 2628.64   1 0.31426-0.08652-0.20270 0.95113-0.92744 0.29641
   1 -11  14 1924.90 1638.38   1 0.32280-0.09150-0.21760 0.96606-0.92111 0.24154
  -1  10  12 2159.99  760.49   1 0.51372-0.65111-0.84317 0.16233 0.15858-0.74142
  -1  10  11 4475.68 1494.65   1 0.49700-0.63796-0.83958 0.15873 0.21926-0.75353
  -1  10  10 2987.67  947.55   1 0.47702-0.62155-0.83210 0.15123 0.28294-0.76863
  -1  10   9  777.84  698.81   1 0.45326-0.60135-0.81993 0.13905 0.34965-0.78678
  -1  10   8 9539.58 1110.74   1 0.42509-0.57719-0.80233 0.12197 0.41899-0.80744
  -1  10   721385.59 1364.92   1 0.39208-0.54776-0.77792 0.09754 0.49103-0.83093
  -1  10   6 4598.28  703.91   1 0.35363-0.51289-0.74575 0.06536 0.56462-0.85595
  -1  10   5 8455.53  665.14   1 0.30961-0.47271-0.70505 0.02559 0.63799-0.88084
  -1  10   414368.95  939.37   1 0.25966-0.42631-0.65463-0.02489 0.70995-0.90423
   1 -10  -2 3632.14  597.04   1-0.19122 0.36527 0.53544 0.14417-0.82264 0.91966
   1 -10  -123674.30  906.26   1-0.13232 0.30995 0.46194 0.21768-0.87698 0.92549
   1 -10   0 2904.80  861.04   1-0.07200 0.25345 0.38353 0.29673-0.92071 0.92071
   1 -10   1  945.30  365.24   1-0.01248 0.19749 0.30239 0.37791-0.95310 0.90453
   1 -10   245088.08 1792.20   1 0.04442 0.14415 0.22184 0.45849-0.97407 0.87692
   1 -10   313413.10 1916.34   1 0.09742 0.09485 0.14435 0.53585-0.98471 0.83896
   1 -10   4 1899.90  890.58   1 0.14503 0.05086 0.07240 0.60783-0.98677 0.79243
   1 -10   521786.38 1489.39   1 0.18699 0.01251 0.00711 0.67313-0.98233 0.73941
   1 -10   626630.70 1546.51   1 0.22346-0.02071-0.05073 0.73092-0.97339 0.68214
   1 -10   722418.68 1140.76   1 0.25440-0.04808-0.10132 0.78154-0.96177 0.62199
   1 -10   813452.66  939.00   1 0.28046-0.07057-0.14485 0.82511-0.94887 0.56054
   1 -10   910862.72  871.35   1 0.30217-0.08871-0.18182 0.86211-0.93575 0.49888
   1 -10  10 2723.89 1645.53   1 0.32008-0.10305-0.21283 0.89316-0.92317 0.43776
  -1   9  15 1605.27  760.77   1 0.55072-0.67807-0.83418 0.22257-0.02900-0.70047
  -1   9  14  192.30  186.85   1 0.54210-0.67297-0.84000 0.22825 0.02271-0.70356
  -1   9  13 2237.79  711.45   1 0.53141-0.66580-0.84360 0.23170 0.07701-0.70923
  -1   9  1222280.94 3882.07   1 0.51972-0.65722-0.84366 0.23092 0.13460-0.71744
  -1   9  11 3688.01 1002.02   1 0.50400-0.64507-0.84143 0.22869 0.19482-0.72909
  -1   9  1017909.44 3514.06   1 0.48495-0.62959-0.83542 0.22265 0.25864-0.74433
  -1   9   922117.18 1108.83   1 0.46192-0.61013-0.82471 0.21194 0.32629-0.76342
  -1   9   814266.97  939.84   1 0.43411-0.58626-0.80838 0.19606 0.39758-0.78603
  -1   9   712649.74  811.67   1 0.40082-0.55656-0.78471 0.17238 0.47283-0.81272
  -1   9   632001.00 1471.11   1 0.36115-0.52046-0.75231 0.13997 0.55099-0.84233
  -1   9   533299.79 1495.59   1 0.31465-0.47778-0.70991 0.09842 0.63009-0.87294
  -1   9   419863.27  925.15   1 0.26052-0.42720-0.65553 0.04398 0.70880-0.90308
   1  -9  -281985.32 1946.59   1-0.18007 0.35413 0.52180 0.08984-0.83384 0.93086
   1  -9  -153325.86 1466.95   1-0.11304 0.29068 0.43714 0.17451-0.89225 0.94077
   1  -9   027412.79  999.27   1-0.04427 0.22571 0.34612 0.26611-0.93714 0.93714
   1  -9   137121.82 1215.84   1 0.02316 0.16184 0.25227 0.36000-0.96737 0.91880
   1  -9   212907.88 1499.69   1 0.08686 0.10179 0.16003 0.45215-0.98328 0.88611
   1  -9   337036.72 1272.28   1 0.14441 0.04785 0.07334 0.53884-0.98679 0.84104
   1  -9   417862.39  508.88   1 0.17465 0.02084-0.00043 0.61190-0.98464 0.79067
   1  -9   417524.26  903.36   1 0.19491 0.00097-0.00541 0.61763-0.98080 0.78646
   1  -9   5 1284.21  448.51   1 0.29864-0.09959-0.08780 0.69930-0.95033 0.70787
   1  -9   5 1514.52  367.56   1 0.23830-0.03911-0.07484 0.68700-0.96830 0.72560
   1  -9   630504.44 1144.24   1 0.38443-0.18166-0.15175 0.76345-0.91061 0.61980
   1  -9   636134.26 1602.51   1 0.27456-0.07181-0.13491 0.74710-0.95205 0.66081
   1  -9   7 6695.61  851.74   1 0.44878-0.24247-0.19966 0.81143-0.87106 0.53179
   1  -9   7 7203.11  652.48   1 0.30456-0.09824-0.18593 0.79815-0.93416 0.59438
   1  -9   8 5015.14  700.27   1 0.49540-0.28557-0.23510 0.84693-0.83625 0.44851
   1  -9   9 2400.60 1047.61   1 0.53113-0.31778-0.26212 0.87327-0.80573 0.36935
   1  -9  10 2241.19 1371.27   1 0.55577-0.33886-0.28144 0.89261-0.78225 0.29738
   1  -9  1150023.81 1580.17   1 0.57356-0.35309-0.29554 0.90672-0.76400 0.23064
   1  -9  1230664.81 2519.19   1 0.58613-0.36209-0.30558 0.91679-0.75039 0.16854
   1  -9  13 4393.15 1301.68   1 0.59463-0.36702-0.31241 0.92363-0.74083 0.11049
   1  -9  14 4623.87 1521.39   1 0.59986-0.36869-0.31663 0.92787-0.73479 0.05597
  -1   8  17 8995.59 1068.08   1 0.56490-0.68537-0.81144 0.26832-0.14979-0.67695
  -1   8  16 2423.34 1401.09   1 0.56055-0.68454-0.82151 0.27825-0.10433-0.67377
  -1   8  1512873.55 2581.21   1 0.55474-0.68225-0.83007 0.28666-0.05690-0.67257
  -1   8  14 6847.55 1762.71   1 0.54727-0.67830-0.83692 0.29337-0.00717-0.67367
  -1   8  14 4910.26 2341.76   1 0.80316-0.93436-0.49884-0.04469-0.32574-0.35353
  -1   8  13 1791.48  679.81   1 0.53787-0.67242-0.84181 0.29811 0.04526-0.67747
  -1   8  13 2817.41  449.76   1 0.80862-0.94339-0.50537-0.03815-0.30125-0.32949
  -1   8  1234675.38 1475.53   1 0.52745-0.66506-0.84349 0.29886 0.10153-0.68437
  -1   8  1234625.83 1286.23   1 0.81343-0.95178-0.51143-0.03209-0.27711-0.30512
  -1   8  11 2975.52  868.64   1 0.51324-0.65442-0.84311 0.29846 0.16046-0.69472
  -1   8  11 2498.71  987.64   1 0.81762-0.95955-0.51703-0.02648-0.25338-0.28033
  -1   8  1022534.12 1604.95   1 0.49574-0.64050-0.83920 0.29454 0.22352-0.70922
  -1   8  1021351.89  936.52   1 0.82121-0.96671-0.52216-0.02135-0.23018-0.25501
  -1   8   943517.53 2070.87   1 0.47422-0.62254-0.83083 0.28615 0.29126-0.72839
  -1   8   942508.18 1767.14   1 0.82422-0.97330-0.52682-0.01668-0.20770-0.22897
  -1   8   825475.23 1064.16   1 0.44766-0.59987-0.81686 0.27259 0.36377-0.75222
  -1   8   824792.19  798.47   1 0.82667-0.97933-0.53099-0.01251-0.18622-0.20193
  -1   8   721051.12  979.39   1 0.41508-0.57087-0.79529 0.25101 0.44183-0.78172
  -1   8   6 4802.44 1344.02   1 0.37510-0.53447-0.76415 0.21986 0.52475-0.81608
  -1   8   561959.93 1868.11   1 0.32678-0.48995-0.72141 0.17790 0.61055-0.85340
  -1   8   452233.00 1013.15   1 0.28672-0.45382-0.07926-0.46399-0.95474 0.76077
  -1   8   373572.18 1472.93   1 0.56229-0.73283-0.28659-0.25646-0.77570 0.63024
   1  -8  -255055.57 1524.86   1-0.17365 0.34772 0.51388 0.02979-0.84010 0.93712
   1  -8  -1185387.5 4046.80   1-0.09610 0.27397 0.41547 0.12870-0.90451 0.95308
   1  -8   048817.50 1443.20   1-0.01638 0.19782 0.30781 0.23640-0.95130 0.95130
   1  -8   1 2225.62  603.75   1 0.63221-0.44729 0.15870 0.38561 0.75839-0.80701
   1  -8   1 3506.42  832.82   1 0.06132 0.12370 0.19749 0.34665-0.97838 0.92980
   1  -8   249264.45 1197.93   1 0.50087-0.31240 0.28538 0.25835 0.81714-0.91416
   1  -8   256353.33 1664.80   1 0.13272 0.05592 0.09121 0.45295-0.98694 0.88978
   1  -8   3 7346.99  551.80   1 0.26898-0.07670 0.45715 0.08652 0.84776-0.99331
   1  -8   3 7735.60  408.95   1 0.17382 0.01811 0.00013 0.54336-0.98479 0.83931
   1  -8   3 8228.39  810.46   1 0.19536-0.00309-0.00612 0.55030-0.98071 0.83496
   1  -8   4 3267.85  289.34   1 0.32886-0.13320-0.11118 0.65483-0.93782 0.74395
   1  -8   4 3980.01 1114.43   1 0.24849-0.05287-0.09156 0.63568-0.96429 0.77013
   1  -8   554170.30 1317.80   1 0.43509-0.23590-0.18938 0.73309-0.88025 0.63792
   1  -8   554240.00 1674.22   1 0.29202-0.09284-0.16445 0.70861-0.94216 0.69946
   1  -8   623157.03  728.34   1 0.50845-0.30582-0.24454 0.78775-0.82565 0.53472
   1  -8   711361.95  615.63   1 0.55722-0.35102-0.28258 0.82580-0.78082 0.44141
   1  -8   816202.49  889.33   1 0.59102-0.38126-0.30950 0.85275-0.74493 0.35703
   1  -8   913342.01 1007.64   1 0.61460-0.40127-0.32861 0.87187-0.71715 0.28076
   1  -8  1024627.68 1226.36   1 0.63097-0.41409-0.34206 0.88534-0.69633 0.21146
   1  -8  1114633.43 1430.58   1 0.64211-0.42166-0.35130 0.89460-0.68139 0.14803
   1  -8  12 5441.07  576.03   1 0.64931-0.42529-0.35731 0.90063-0.67137 0.08953
   1  -8  1313252.78 1575.81   1 0.65344-0.42586-0.36078 0.90411-0.66548 0.03515
   1  -8  14  845.26 1016.63   1 0.65512-0.42397-0.36219 0.90554-0.66306-0.01576
   1  -8  15 6255.51 1038.40   1 0.65477-0.42006-0.36190 0.90526-0.66357-0.06373
   1  -8  16  443.87  720.24   1 0.65268-0.41440-0.36014 0.90352-0.66657-0.10921
   1  -8  17  824.60  491.66   1 0.64906-0.40722-0.35710 0.90051-0.67172-0.15255
  -1   7  18 1806.20 1640.02   1 0.57048-0.68776-0.79066 0.31566-0.22226-0.65371
  -1   7  17 4068.81 2060.53   1 0.56840-0.68920-0.80260 0.32748-0.18098-0.64633
  -1   7  17 2969.37 2280.85   1 0.78366-0.90411-0.47735 0.00173-0.39752-0.42730
  -1   7  16 1341.80 1074.82   1 0.56377-0.68791-0.81455 0.33949-0.13661-0.64149
  -1   7  16 1675.28 1026.01   1 0.79095-0.91498-0.48512 0.00951-0.37291-0.40340
  -1   7  1521390.56 4305.20   1 0.55914-0.68681-0.82397 0.34876-0.09178-0.63769
  -1   7  1523367.47 2073.12   1 0.79755-0.92515-0.49240 0.01679-0.34854-0.37925
  -1   7  14 1930.86  616.61   1 0.55304-0.68423-0.83195 0.35659-0.04471-0.63613
  -1   7  14 1663.65  727.07   1 0.80346-0.93464-0.49919 0.02359-0.32444-0.35482
  -1   7  1322460.57 4476.01   1 0.54522-0.67993-0.83827 0.36277 0.00503-0.63724
  -1   7  1321662.30 1094.66   1 0.80874-0.94349-0.50552 0.02992-0.30068-0.33006
  -1   7  1214440.49 3377.75   1 0.53535-0.67358-0.84263 0.36699 0.05797-0.64156
  -1   7  1216899.94  896.95   1 0.81339-0.95172-0.51138 0.03579-0.27732-0.30490
  -1   7  1125890.28 1189.18   1 0.52426-0.66556-0.84368 0.36713 0.11553-0.64980
  -1   7  1123381.31 1604.30   1 0.81744-0.95934-0.51678 0.04119-0.25446-0.27924
  -1   7  1063232.16 2425.49   1 0.50901-0.65387-0.84246 0.36590 0.17654-0.66224
  -1   7  1061494.05 2198.85   1 0.82091-0.96639-0.52171 0.04613-0.23225-0.25294
  -1   7   934745.25 1399.63   1 0.48988-0.63832-0.83726 0.36068 0.24290-0.68003
  -1   7   935071.60 1195.86   1 0.82382-0.97288-0.52617 0.05060-0.21091-0.22576
  -1   7   8124923.5 2974.98   1 0.46579-0.61780-0.82673 0.35014 0.31551-0.70407
  -1   7   8125455.5 2581.36   1 0.82618-0.97882-0.53012 0.05455-0.19079-0.19736
  -1   7   725344.45 1000.92   1 0.43525-0.59110-0.80912 0.33288 0.39480-0.73469
  -1   7   632383.41 1347.61   1 0.39654-0.55597-0.78141 0.30516 0.48182-0.77316
  -1   7   5 5727.12  481.21   1 0.34743-0.51044-0.74024 0.26398 0.57560-0.81839
  -1   7   4 5370.46  532.58   1 0.28627-0.45302-0.68199 0.20640 0.67299-0.86727
  -1   7   316631.38 1027.19   1 0.37727-0.54816-0.14648-0.32878-0.91445 0.76905
  -1   7   321616.65 1459.05   1 0.24269-0.41332-0.08203-0.39384-0.96662 0.82100
   1  -7  -214382.34 1290.77   1-0.17421 0.34829 0.51458-0.03886-0.83955 0.93658
  -1   7   212067.67 1186.87   1 0.31661-0.49080-0.20678-0.26913-0.92574 0.82866
   1  -7  -114994.45 1053.90   1-0.08279 0.26065 0.39790 0.07824-0.91368 0.96225
   1  -7   018342.64 1201.54   1 0.77246-0.59088-0.02210 0.49803 0.63471-0.63471
   1  -7   019400.76 1590.76   1 0.01200 0.16942 0.26808 0.20810-0.96332 0.96332
   1  -7   156114.28  911.33   1 0.70200-0.51706 0.07622 0.40005 0.70811-0.75673
   1  -7   156823.42 1402.38   1 0.10310 0.08192 0.13588 0.34024-0.98534 0.93676
   1  -7   246944.92  763.28   1 0.57179-0.38331 0.21979 0.25598 0.79044-0.88746
   1  -7   248341.03 1246.70   1 0.18395 0.00469 0.01190 0.46424-0.98286 0.88569
   1  -7   368607.51  846.16   1 0.30032-0.10807 0.43701 0.03869 0.84786-0.99341
   1  -7   373480.72 1040.75   1 0.34934-0.15726-0.12605 0.60172-0.92849 0.78308
   1  -7   372804.41 1638.40   1 0.25182-0.05977-0.09704 0.57314-0.96289 0.81727
   1  -7   435329.14  992.41   1 0.48331-0.28769-0.22584 0.70157-0.84583 0.65196
   1  -7   436234.98 1283.44   1 0.30602-0.11040-0.18844 0.66456-0.93318 0.73902
   1  -7   552073.80 1467.86   1 0.56606-0.36702-0.28957 0.76488-0.77184 0.52941
   1  -7   6 5727.84 1305.57   1 0.61670-0.41410-0.33033 0.80565-0.71454 0.42362
   1  -7   740101.90 1182.43   1 0.64941-0.44324-0.35739 0.83273-0.67123 0.33182
   1  -7   832381.21 1180.16   1 0.67211-0.46208-0.37545 0.85077-0.63821 0.25036
   1  -7   9 7836.00 1040.73   1 0.68616-0.47254-0.38754 0.86288-0.61564 0.17930
   1  -7  10 3637.97 1287.67   1 0.69517-0.47797-0.39538 0.87075-0.60036 0.11553
   1  -7  11 4838.32  938.64   1 0.70055-0.47977-0.40011 0.87551-0.59088 0.05758
   1  -7  1247278.03 1619.87   1 0.70322-0.47886-0.40247 0.87789-0.58609 0.00431
   1  -7  13 6179.95  834.93   1 0.70377-0.47581-0.40295 0.87839-0.58511-0.04515
   1  -7  1428079.68 2818.16   1 0.70257-0.47104-0.40190 0.87736-0.58726-0.09148
   1  -7  1518633.66 1746.82   1 0.69991-0.46479-0.39955 0.87504-0.59202-0.13520
   1  -7  1618232.49 1333.75   1 0.69597-0.45726-0.39609 0.87160-0.59896-0.17674
   1  -7  17  619.72  471.96   1 0.69085-0.44856-0.39162 0.86716-0.60776-0.21643
   1  -7  18 4822.88 1313.95   1 0.68465-0.43878-0.38623 0.86180-0.61813-0.25454
  -1   6  19 1822.10 1681.99   1 0.57160-0.68545-0.76688 0.36015-0.29183-0.63281
  -1   6  19 1463.94 1394.98   1 0.76609-0.87930-0.46093 0.05413-0.44796-0.47320
  -1   6  18 3731.80 3099.56   1 0.57138-0.68876-0.78021 0.37337-0.25452-0.62145
  -1   6  18 6094.27 1031.58   1 0.77483-0.89169-0.46823 0.06054-0.42474-0.44860
  -1   6  17 5379.81 2666.87   1 0.57023-0.69114-0.79255 0.38559-0.21605-0.61125
  -1   6  17 4305.84 2881.42   1 0.78264-0.90307-0.47627 0.06859-0.40082-0.42400
  -1   6  16 6145.10 1334.64   1 0.56809-0.69252-0.80388 0.39680-0.17619-0.60245
  -1   6  16 4686.67 2448.59   1 0.78973-0.91374-0.48380 0.07612-0.37719-0.39912
  -1   6  1552743.60 2029.25   1 0.56347-0.69129-0.81530 0.40829-0.13331-0.59616
  -1   6  1557288.23 1799.85   1 0.79615-0.92374-0.49084 0.08316-0.35388-0.37391
  -1   6  1419963.08 2377.79   1 0.55889-0.69024-0.82437 0.41721-0.08966-0.59118
  -1   6  1423534.52 1202.23   1 0.80192-0.93308-0.49740 0.08973-0.33095-0.34831
  -1   6  13 2434.77  815.93   1 0.55287-0.68774-0.83212 0.42482-0.04354-0.58867
  -1   6  13 1917.03  704.75   1 0.80706-0.94180-0.50348 0.09582-0.30849-0.32225
  -1   6  12 1259.26  426.89   1 0.54512-0.68351-0.83833 0.43088 0.00560-0.58919
  -1   6  12 1416.60  469.30   1 0.81160-0.94991-0.50909 0.10143-0.28660-0.29562
  -1   6  11 5860.13 1457.99   1 0.53525-0.67716-0.84266 0.43507 0.05848-0.59343
  -1   6  11 6552.67 1412.02   1 0.81555-0.95744-0.51422 0.10657-0.26544-0.26827
  -1   6  1032313.58 1321.82   1 0.52394-0.66893-0.84369 0.43523 0.11688-0.60258
  -1   6  1032863.07 1191.35   1 0.81893-0.96440-0.51887 0.11122-0.24522-0.23996
  -1   6   924220.05 1036.17   1 0.50814-0.65670-0.84230 0.43382 0.17975-0.61687
  -1   6   922734.19  922.00   1 0.82176-0.97080-0.52299 0.11534-0.22629-0.21038
  -1   6   8 2495.50  753.68   1 0.48778-0.63991-0.83650 0.42801 0.24965-0.63821
  -1   6   8 2645.98  701.80   1 0.82404-0.97665-0.52652 0.11889-0.20916-0.17898
  -1   6   7 6713.56  586.59   1 0.46123-0.61692-0.82434 0.41584 0.32819-0.66818
  -1   6   7 7280.97  497.04   1 0.82575-0.98194-0.52937 0.12173-0.19474-0.14489
  -1   6   652771.80 1301.34   1 0.42611-0.58559-0.80303 0.39483 0.41660-0.70794
  -1   6   648900.92  982.73   1 0.82684-0.98660-0.53129 0.12366-0.18463-0.10648
  -1   6   514338.91 1070.04   1 0.37930-0.54236-0.76762 0.35941 0.51660-0.75938
  -1   6   512683.87 1453.33   1 0.01892-0.18251 0.25829-0.66627-0.96588 0.72302
  -1   6   4 7399.94  617.84   1 0.31723-0.48401-0.71238 0.30477 0.62599-0.82026
  -1   6   4 6722.86  509.98   1 0.82567-0.99259-0.52923 0.12161-0.19546 0.00138
  -1   6   4 6114.34 1179.27   1 0.09712-0.26407 0.14480-0.55282-0.98468 0.79034
  -1   6   3152874.6 1424.27   1 0.81767-0.98817-0.51711 0.10949-0.25302 0.10746
  -1   6   3158267.4 2059.09   1 0.18708-0.35764 0.00698-0.41502-0.98232 0.83656
   1  -6  -262751.14 1153.18   1-0.18593 0.36001 0.52898-0.12123-0.82801 0.92503
  -1   6   260576.10 1147.13   1 0.28206-0.45626-0.14754-0.26037-0.94798 0.85090
   1  -6  -1 2425.08  309.12   1 0.85206-0.67401-0.18427 0.59236 0.48997-0.44141
   1  -6  -1 3161.54  814.21   1-0.07520 0.25306 0.38781 0.02031-0.91866 0.96723
   1  -6   034751.75  679.95   1 0.82843-0.64685-0.12434 0.53229 0.54615-0.54615
   1  -6   036226.76  839.73   1 0.04159 0.13982 0.22591 0.18225-0.97326 0.97326
   1  -6   159381.58  869.60   1 0.77618-0.59117-0.02809 0.43605 0.62991-0.67854
   1  -6   160860.96 1242.08   1 0.15121 0.03381 0.06289 0.34521-0.98650 0.93791
   1  -6   2 7608.89  514.69   1 0.65348-0.46497 0.13490 0.27335 0.74485-0.84209
   1  -6   2 7647.15  525.93   1 0.34218-0.15368-0.12085 0.52852-0.93184 0.83490
   1  -6   2 8221.42 1001.56   1 0.24342-0.05494-0.08323 0.49128-0.96634 0.86926
   1  -6   3  737.91  182.97   1 0.30463-0.11241 0.43418-0.02644 0.84778-0.99333
   1  -6   3 1150.86  345.33   1 0.53254-0.34065-0.26322 0.67060-0.80445 0.65898
   1  -6   3 1262.16  278.56   1 0.31486-0.12281-0.20374 0.61184-0.92701 0.78139
   1  -6   417112.86 1236.78   1 0.62620-0.43075-0.33812 0.74552-0.70254 0.50859
   1  -6   5120371.7 1695.98   1 0.67861-0.47937-0.38102 0.78840-0.62795 0.38554
   1  -6   6 9034.66  584.01   1 0.70798-0.50516-0.40669 0.81409-0.57739 0.28649
   1  -6   718293.36 1001.90   1 0.72565-0.51924-0.42259 0.83002-0.54301 0.20364
   1  -6   864153.12 1829.99   1 0.73634-0.52635-0.43243 0.83988-0.52040 0.13254
   1  -6   970115.53 1866.36   1 0.74257-0.52900-0.43825 0.84573-0.50649 0.07015
   1  -6  1035623.60 1497.97   1 0.74576-0.52860-0.44126 0.84876-0.49914 0.01432
   1  -6  1135861.17 1581.05   1 0.74674-0.52600-0.44219 0.84971-0.49684-0.03645
   1  -6  1214792.00  901.76   1 0.74603-0.52171-0.44152 0.84906-0.49851-0.08327
   1  -6  1313795.30  876.18   1 0.74395-0.51604-0.43955 0.84712-0.50334-0.12692
   1  -6  14 1926.95  944.17   1 0.74070-0.50921-0.43650 0.84409-0.51073-0.16802
   1  -6  15 6303.58 1594.93   1 0.73642-0.50135-0.43251 0.84013-0.52022-0.20701
   1  -6  16 8700.10  799.70   1 0.73120-0.49254-0.42768 0.83532-0.53146-0.24425
   1  -6  1767937.75 3436.65   1 0.72508-0.48284-0.42208 0.82974-0.54417-0.28002
   1  -6  18 8419.21  933.71   1 0.71810-0.47227-0.41575 0.82343-0.55813-0.31454
  -1   5  19 6139.86 1217.67   1 0.57101-0.68495-0.75353 0.41496-0.32577-0.59886
  -1   5  19 5900.53  971.93   1 0.76346-0.87663-0.45834 0.11941-0.45504-0.46612
  -1   5  18 7923.75 1316.52   1 0.57160-0.68908-0.76703 0.42833-0.29143-0.58454
  -1   5  18 8140.47 1077.46   1 0.77206-0.88889-0.46543 0.12568-0.43279-0.44055
  -1   5  17 1829.13  898.55   1 0.57141-0.69242-0.77965 0.44085-0.25617-0.57114
  -1   5  17 1374.87  407.63   1 0.77969-0.90010-0.47321 0.13346-0.41008-0.41475
  -1   5  16 3835.25 1752.35   1 0.57039-0.69492-0.79142 0.45250-0.21979-0.55885
  -1   5  16 3713.07 1666.83   1 0.78664-0.91062-0.48048 0.14074-0.38775-0.38855
  -1   5  15 9381.17 1788.26   1 0.56846-0.69653-0.80231 0.46327-0.18205-0.54792
  -1   5  15 8821.33 2695.23   1 0.79292-0.92048-0.48726 0.14752-0.36589-0.36190
  -1   5  1427750.84 1359.94   1 0.56420-0.69570-0.81341 0.47446-0.14151-0.53933
  -1   5  1428615.69 1308.70   1 0.79856-0.92970-0.49354 0.15381-0.34457-0.33469
  -1   5  1318554.17 3671.17   1 0.56007-0.69510-0.82238 0.48328-0.09998-0.53223
  -1   5  1317141.37 1016.23   1 0.80358-0.93830-0.49933 0.15960-0.32393-0.30682
  -1   5  1229114.81 1444.71   1 0.55460-0.69315-0.83023 0.49098-0.05587-0.52770
  -1   5  1228442.88 1827.68   1 0.80801-0.94630-0.50462 0.16490-0.30412-0.27811
  -1   5  11 6272.28 1621.19   1 0.54749-0.68956-0.83676 0.49737-0.00852-0.52642
  -1   5  11 6992.86 1654.30   1 0.81184-0.95371-0.50940 0.16967-0.28538-0.24833
  -1   5  1029392.50 1194.59   1 0.53831-0.68389-0.84165 0.50211 0.04298-0.52930
  -1   5  1030222.21 1149.28   1 0.81509-0.96053-0.51361 0.17389-0.26804-0.21715
  -1   5   917439.17  908.91   1 0.52757-0.67624-0.84348 0.50310 0.10099-0.53812
  -1   5   918190.91  854.19   1 0.81774-0.96676-0.51720 0.17749-0.25260-0.18407
  -1   5   8165160.8 3862.35   1 0.51217-0.66440-0.84296 0.50257 0.16459-0.55315
  -1   5   8167244.4 3688.80   1 0.81977-0.97236-0.52006 0.18035-0.23984-0.14830
  -1   5   771623.20 1750.28   1 0.49154-0.64735-0.83784 0.49743 0.23749-0.57748
  -1   5   782001.01 1450.25   1 0.82108-0.97725-0.52197 0.18227-0.23108-0.10855
  -1   5   612148.75 1043.97   1 0.46321-0.62259-0.82539 0.48498 0.32272-0.61413
  -1   5   611779.38  849.77   1 0.82143-0.98117-0.52249 0.18279-0.22864-0.06247
  -1   5   612335.25 1003.71   1-0.14512-0.01465 0.47822-0.81796-0.86616 0.57508
  -1   5   564221.19 1319.94   1 0.42314-0.58626-0.80099 0.46082 0.42350-0.66628
  -1   5   561468.51 1013.88   1 0.82017-0.98349-0.52063 0.18094-0.23724-0.00535
  -1   5   558132.16 1103.85   1-0.08171-0.08187 0.39647-0.73642-0.91440 0.67154
  -1   5   459731.01 2137.89   1 0.36509-0.53178-0.75570 0.41552 0.54370-0.73793
  -1   5   457526.83 1877.98   1 0.81509-0.98199-0.51361 0.17392-0.26805 0.07397
  -1   5   456921.98 2122.36   1 0.00333-0.17048 0.28029-0.62028-0.95990 0.76562
  -1   5   3 5379.83  365.34   1 0.28099-0.45135-0.67665 0.33695 0.68057-0.82628
  -1   5   3 5112.60  248.01   1 0.79528-0.96575-0.48986 0.15018-0.35718 0.21162
  -1   5   3 5232.15  415.28   1 0.11206-0.28262 0.12246-0.46248-0.98612 0.84037
   1  -5  -2 8068.26  403.88   1-0.21706 0.39115 0.56654-0.22675-0.79492 0.89195
  -1   5   2 8094.10  428.29   1 0.23750-0.41170-0.07354-0.26638-0.96860 0.87151
   1  -5  -145941.54 1549.83   1 0.88193-0.70391-0.29413 0.63422 0.36841-0.31985
   1  -5  -149640.56 1667.11   1-0.07824 0.25609 0.39185-0.05175-0.91669 0.96526
   1  -5   0 4575.76  283.30   1 0.87188-0.69030-0.24707 0.58711 0.42286-0.42286
   1  -5   0 4706.32  494.89   1 0.07402 0.10738 0.17893 0.16114-0.98107 0.98107
   1  -5   170850.91 1497.84   1 0.84549-0.66047-0.16359 0.50356 0.50836-0.55699
   1  -5   173033.31 1419.14   1 0.23671-0.05191-0.04379 0.38345-0.97060 0.92211
   1  -5   173649.69 1845.19   1 0.21080-0.02589-0.03036 0.37038-0.97705 0.92851
   1  -5   2104977.3 2057.99   1 0.75439-0.56593 0.00576 0.33422 0.65643-0.75369
   1  -5   2112748.2 2244.10   1 0.58269-0.39439-0.30282 0.64230-0.75418 0.65720
   1  -5   2112577.9 2498.30   1 0.31435-0.12587-0.20286 0.54292-0.92737 0.83029
   1  -5   372403.64 1596.55   1 0.69507-0.50305-0.39530 0.73475-0.60052 0.45507
  -1   5  -424539.02 1376.34   1 0.57163-0.76676-0.77020 0.42897-0.28288 0.47755
   1  -5   426135.52 1024.89   1 0.74104-0.54544-0.43682 0.77630-0.50995 0.31602
   1  -5   537061.52  871.31   1 0.76337-0.56418-0.45825 0.79775-0.45529 0.21288
   1  -5   6 5338.90  503.31   1 0.77589-0.57323-0.46931 0.80894-0.42162 0.13050
   1  -5   720205.03 1442.91   1 0.78196-0.57572-0.47556 0.81519-0.40298 0.06334
   1  -5   892564.40 2393.03   1 0.78479-0.57498-0.47853 0.81816-0.39386 0.00570
   1  -5   9 9676.78 1126.27   1 0.78552-0.57213-0.47930 0.81892-0.39146-0.04521
   1  -5  10127307.7 2918.37   1 0.78475-0.56779-0.47849 0.81811-0.39397-0.09121
   1  -5  1115298.75  855.52   1 0.78284-0.56230-0.47648 0.81609-0.40018-0.13352
   1  -5  1282169.89 2918.05   1 0.77996-0.55585-0.47349 0.81309-0.40924-0.17298
   1  -5  1317375.28  971.33   1 0.77624-0.54855-0.46967 0.80927-0.42056-0.21019
   1  -5  1411491.28 1383.11   1 0.77175-0.54049-0.46512 0.80472-0.43367-0.24559
   1  -5  15 3884.72 1885.93   1 0.76583-0.53079-0.46068 0.80042-0.44866-0.27857
   1  -5  1618152.21 1717.16   1 0.75989-0.52128-0.45484 0.79460-0.46443-0.31128
   1  -5  17 1120.27  679.10   1 0.75324-0.51104-0.44839 0.78818-0.48123-0.34296
   1  -5  18 1374.68  397.50   1 0.74586-0.50008-0.44136 0.78117-0.49890-0.37377
  -1   4  20  716.59  410.64   1 0.74998-0.85953-0.44527 0.17425-0.48915-0.48048
  -1   4  19  686.21  858.63   1 0.56943-0.68347-0.73730 0.46687-0.36350-0.56114
  -1   4  19  796.43  562.09   1 0.75888-0.87201-0.45385 0.18279-0.46705-0.45410
  -1   4  18 6048.51 2843.93   1 0.57080-0.68838-0.75079 0.48025-0.33239-0.54358
  -1   4  18 6116.68 2790.44   1 0.76703-0.88375-0.46188 0.19080-0.44535-0.42732
  -1   4  17 2533.06 1394.07   1 0.57152-0.69262-0.76351 0.49286-0.30067-0.52664
  -1   4  17 1864.60 1040.98   1 0.77482-0.89521-0.46822 0.19640-0.42478-0.40005
  -1   4  16 2983.08 1760.27   1 0.57156-0.69620-0.77548 0.50471-0.26819-0.51045
  -1   4  16 2577.73 1374.92   1 0.78162-0.90558-0.47521 0.20339-0.40406-0.37224
  -1   4  1514819.47 1452.01   1 0.57091-0.69907-0.78672 0.51583-0.23480-0.49518
  -1   4  1515551.97 1702.47   1 0.78775-0.91529-0.48168 0.20987-0.38398-0.34381
  -1   4  1411574.20 1149.06   1 0.56950-0.70119-0.79722 0.52622-0.20026-0.48105
  -1   4  1412016.99 2581.05   1 0.79325-0.92437-0.48763 0.21583-0.36466-0.31460
  -1   4  1338227.10 1762.90   1 0.56726-0.70249-0.80698 0.53586-0.16429-0.46835
  -1   4  1339096.66 1751.19   1 0.79812-0.93281-0.49305 0.22125-0.34629-0.28446
  -1   4  1235965.57 1489.13   1 0.56273-0.70143-0.81706 0.54601-0.12547-0.45810
  -1   4  1237604.69 1438.21   1 0.80237-0.94064-0.49791 0.22612-0.32908-0.25314
  -1   4  1176485.53 2447.62   1 0.55837-0.70059-0.82520 0.55400-0.08523-0.44971
  -1   4  1182407.97 2199.13   1 0.80599-0.94783-0.50218 0.23040-0.31338-0.22033
  -1   4  10 7443.75  650.75   1 0.55264-0.69838-0.83236 0.56102-0.04190-0.44441
  -1   4  10 8080.31 1474.44   1 0.80895-0.95437-0.50578 0.23400-0.29964-0.18554
  -1   4   920241.09  985.83   1 0.54512-0.69439-0.83833 0.56684 0.00559-0.44328
  -1   4   920470.98  974.93   1 0.81121-0.96021-0.50860 0.23682-0.28858-0.14809
  -1   4   841972.50 1186.35   1 0.53518-0.68797-0.84268 0.57105 0.05881-0.44787
  -1   4   841368.89 1106.22   1 0.81264-0.96521-0.51042 0.23864-0.28125-0.10690
  -1   4   769532.74 1432.90   1 0.52296-0.67888-0.84371 0.57140 0.12111-0.46109
  -1   4   770638.66 1332.22   1 0.81299-0.96914-0.51086 0.23910-0.27943-0.06020
  -1   4   641328.97 1589.40   1 0.50430-0.66380-0.84150 0.56919 0.19374-0.48516
  -1   4   640473.61 1593.37   1 0.81168-0.97140-0.50919 0.23742-0.28622-0.00489
  -1   4   5177453.9 3779.73   1 0.47667-0.63973-0.83194 0.55961 0.28400-0.52685
  -1   4   5173825.5 3528.18   1 0.80726-0.97056-0.50372 0.23196-0.30759 0.06500
  -1   4   5172536.9 3560.07   1-0.20445 0.04108 0.55145-0.82324-0.80876 0.56619
  -1   4   4167568.1 3453.14   1 0.43288-0.59963-0.80757 0.53544 0.40053-0.59475
  -1   4   4161241.0 3266.43   1 0.79536-0.96224-0.48996 0.21820-0.35687 0.16279
  -1   4   4163196.5 3316.03   1-0.12349-0.04345 0.45062-0.72243-0.88413 0.69007
  -1   4   3119557.2 2512.92   1 0.35869-0.52902-0.75018 0.47803 0.55548-0.70115
  -1   4   3113447.5 2236.36   1 0.75818-0.92866-0.45317 0.18174-0.46884 0.32339
  -1   4   3117268.0 2422.44   1 0.00007-0.17079 0.28486-0.55686-0.95856 0.81285
  -1   4   243203.39 1504.83   1 0.23052-0.40446-0.62346 0.35167 0.74709-0.84423
  -1   4   240574.91 1285.10   1 0.53468-0.70869-0.26489-0.00662-0.80247 0.70550
  -1   4   242524.89 1553.24   1 0.16995-0.34412 0.03385-0.30588-0.98487 0.88770
   1  -4  -164107.03  857.71   1-0.10570 0.28337 0.42761-0.15576-0.89776 0.94627
   1  -4   070903.20  962.26   1 0.11286 0.06853 0.12125 0.15081-0.98618 0.98618
   1  -4   157616.47 1779.14   1 0.65598-0.47116-0.36177 0.63330-0.66244 0.61396
   1  -4   157116.76 1950.02   1 0.29112-0.10621-0.16291 0.43494-0.94271 0.89417
   1  -4   286207.84 1668.05   1 0.86358-0.67490-0.21798 0.48993 0.45470-0.55182
  -1   4  -286477.02 1939.36   1 0.56969-0.75786-0.73949 0.46665-0.35860 0.45593
  -1   4  -3203994.2 4808.90   1 0.57138-0.76308-0.78023 0.50727-0.25447 0.40046
   1  -4   3223442.3 4373.49   1 0.80327-0.61136-0.49896 0.77068-0.32528 0.17972
   1  -4   457795.50 1956.66   1 0.81256-0.61707-0.51031 0.78202-0.28169 0.08761
  -1   4  -554075.87 2055.39   1 0.56100-0.75957-0.82066 0.54714-0.10852 0.35168
   1  -4   562339.59 2149.33   1 0.81611-0.61705-0.51498 0.78668-0.26224 0.01964
   1  -4   619879.22 1372.39   1 0.81717-0.61453-0.51641 0.78812-0.25604-0.03507
   1  -4   755630.42 1317.69   1 0.81686-0.61064-0.51599 0.78768-0.25790-0.08173
  -1   4  -860122.71  686.21   1 0.50075-0.71079 0.28549-0.55740 0.81718-0.42910
   1  -4   860832.05 1427.10   1 0.81562-0.60584-0.51432 0.78601-0.26503-0.12311
  -1   4  -944540.76 1000.67   1 0.62182-0.83522 0.16997-0.44221 0.76451-0.32694
   1  -4   948195.91 1602.75   1 0.81367-0.60031-0.51175 0.78343-0.27581-0.16086
  -1   4 -10 1248.32  491.50   1 0.67365-0.89060 0.11131-0.38357 0.73065-0.24445
   1  -4  10 3069.67  816.01   1 0.81109-0.59415-0.50844 0.78012-0.28920-0.19598
   1  -4  1112693.74  780.85   1 0.80791-0.58740-0.50451 0.77619-0.30456-0.22915
   1  -4  1210466.41  760.66   1 0.80417-0.58007-0.50002 0.77169-0.32142-0.26081
   1  -4  13  573.07  297.13   1 0.79984-0.57217-0.49500 0.76667-0.33946-0.29128
   1  -4  14 6280.34  720.63   1 0.79494-0.56369-0.48948 0.76115-0.35846-0.32081
   1  -4  15 8505.81 1249.61   1 0.78943-0.55461-0.48348 0.75513-0.37823-0.34956
   1  -4  1614268.34 1438.25   1 0.78331-0.54492-0.47698 0.74863-0.39865-0.37766
   1  -4  1725319.36 2275.77   1 0.77656-0.53459-0.46999 0.74164-0.41961-0.40521
   1  -4  18 3405.12  834.55   1 0.76850-0.52276-0.46334 0.73528-0.44128-0.43139
   1  -4  19 2301.36 2176.43   1 0.76041-0.51109-0.45535 0.72730-0.46308-0.45807
  -1   3  2025092.62 1789.81   1 0.74356-0.85306-0.43918 0.23603-0.50424-0.46540
  -1   3  1811391.60 1044.70   1 0.76028-0.87694-0.45521 0.25201-0.46344-0.40923
  -1   3  1724969.53 2805.07   1 0.57016-0.69137-0.74381 0.54131-0.34878-0.47852
  -1   3  1726532.35 2393.10   1 0.76756-0.88781-0.46240 0.25918-0.44390-0.38029
  -1   3  1635004.07 1926.08   1 0.57115-0.69588-0.75567 0.55305-0.32053-0.45811
  -1   3  1639171.44 1661.59   1 0.77454-0.89849-0.46794 0.26406-0.42559-0.35072
  -1   3  15 5282.76 1524.48   1 0.57160-0.69986-0.76686 0.56413-0.29187-0.43810
  -1   3  15 5804.95  806.13   1 0.78050-0.90801-0.47404 0.27017-0.40758-0.32021
  -1   3  14 9330.15 2400.18   1 0.57150-0.70330-0.77741 0.57456-0.26270-0.41861
  -1   3  14 8152.49 2350.06   1 0.78578-0.91688-0.47958 0.27571-0.39059-0.28867
  -1   3  13 9130.11 2196.32   1 0.57085-0.70617-0.78733 0.58437-0.23287-0.39977
  -1   3  13 8002.55 2104.27   1 0.79040-0.92507-0.48452 0.28066-0.37485-0.25590
  -1   3  1267503.17 2086.03   1 0.56960-0.70845-0.79665 0.59358-0.20221-0.38177
  -1   3  1269998.30 2059.36   1 0.79434-0.93259-0.48883 0.28497-0.36067-0.22156
  -1   3  1116139.93 1091.81   1 0.56770-0.71008-0.80539 0.60220-0.17045-0.36486
  -1   3  1117581.06  950.15   1 0.79756-0.93938-0.49241 0.28856-0.34848-0.18522
  -1   3  1040497.16 1712.32   1 0.56374-0.70964-0.81462 0.61148-0.13632-0.34999
  -1   3  1039260.01 1418.27   1 0.79998-0.94538-0.49516 0.29131-0.33890-0.14629
  -1   3   9142540.9 2702.86   1 0.56018-0.70960-0.82219 0.61891-0.10092-0.33676
  -1   3   9141338.6 2283.80   1 0.80148-0.95045-0.49688 0.29303-0.33280-0.10386
  -1   3   831103.81 1021.70   1 0.55551-0.70846-0.82914 0.62571-0.06260-0.32644
  -1   3   831952.36  968.40   1 0.80177-0.95433-0.49722 0.29339-0.33157-0.05658
  -1   3   735630.71 1446.15   1 0.54933-0.70579-0.83536 0.63179-0.01996-0.32045
   1  -3  -731996.72 1446.53   1 0.36018-0.20411-0.75147 0.95552 0.55277-0.21287
  -1   3   733272.91 1552.48   1 0.80037-0.95649-0.49560 0.29177-0.33734-0.00228
  -1   3   632417.70 1264.56   1 0.54087-0.70085-0.84059 0.63686 0.02945-0.32124
   1  -3  -630898.75 1217.65   1 0.34097-0.18118-0.73451 0.93807 0.58671-0.29529
  -1   3   632932.53 1274.48   1 0.79617-0.95588-0.49086 0.28703-0.35380 0.06268
  -1   3   5 8500.42  510.54   1 0.52855-0.69206-0.84409 0.64022 0.09026-0.33342
   1  -3  -5 8906.26  476.95   1 0.30566-0.14233-0.70122 0.90484 0.64408-0.40124
  -1   3   5 8801.62  621.09   1 0.78668-0.94996-0.48053 0.27671-0.38760 0.14500
  -1   3   424340.38  952.48   1 0.51025-0.67700-0.84267 0.63843 0.17188-0.36616
   1  -3  -423602.94  917.32   1 0.24101-0.07413-0.63482 0.83850 0.73410-0.53983
  -1   3   425219.89 1050.90   1 0.76493-0.93178-0.45979 0.25626-0.45109 0.25716
  -1   3   3 7034.53  423.14   1 0.47276-0.64309-0.83015 0.62589 0.29553-0.44124
  -1   3   3 6480.70  379.23   1 0.70907-0.87951-0.40766 0.20410-0.57536 0.42991
  -1   3   3 6732.15  381.26   1-0.17911 0.00858 0.52062-0.72447-0.83478 0.68925
  -1   3   2 7659.29  337.76   1 0.38010-0.55406-0.76828 0.56417 0.51503-0.61215
  -1   3   2 7371.51  294.31   1 0.51677-0.69076-0.25097 0.04734-0.81852 0.72155
  -1   3   2 7792.14  387.18   1 0.03826-0.21253 0.23070-0.43471-0.97227 0.87513
   1  -3   0359338.2 2639.96   1 0.33566-0.15435-0.11611 0.31988-0.93481 0.93481
   1  -3   0363915.0 2940.78   1 0.17334 0.00805 0.02855 0.17549-0.98444 0.98444
  -1   3  -129635.14 1133.79   1 0.57161-0.75635-0.77308 0.56851-0.27493 0.32360
   1  -3   2 2436.89  151.79   1-0.00898 0.19749 0.60075-0.39684 0.79942-0.89641
  -1   3  -2 2501.43  638.02   1 0.56679-0.75507-0.80855 0.60386-0.15805 0.25538
  -1   3  -3254414.6 2641.17   1 0.55819-0.74987-0.82547 0.62044-0.08376 0.22965
  -1   3  -4252825.8 2803.68   1 0.55011-0.74531-0.83471 0.62954-0.02498 0.21951
  -1   3  -521966.81  700.25   1 0.06212-0.26137 0.56978-0.77384 0.81947-0.57698
  -1   3  -519727.19  908.77   1 0.54203-0.74075-0.84004 0.63471 0.02312 0.22003
  -1   3  -6 8945.26  347.37   1 0.44811-0.65097 0.32970-0.53363 0.83098-0.53993
  -1   3  -7  511.28  223.47   1 0.60634-0.81279 0.18487-0.38880 0.77345-0.43388
  -1   3  -824392.61  922.05   1 0.67978-0.88965 0.10392-0.30812 0.72604-0.33708
  -1   3  -945084.41  828.19   1 0.71724-0.93066 0.05630-0.26051 0.69458-0.25700
  -1   3 -1094286.17 2073.37   1 0.73671-0.95368 0.02959-0.23381 0.67559-0.18939
   1  -3  10105962.0 2826.75   1 0.82656-0.60965-0.53080 0.73455-0.18723-0.29796
   1  -3  1237981.81 1463.26   1 0.82029-0.59621-0.52081 0.72455-0.23644-0.34579
   1  -3  13 6772.72  703.52   1 0.81630-0.58865-0.51523 0.71896-0.26116-0.36958
   1  -3  14 5102.99 1237.19   1 0.81173-0.58050-0.50925 0.71298-0.28596-0.39330
   1  -3  1510460.72  861.79   1 0.80655-0.57175-0.50286 0.70658-0.31084-0.41695
   1  -3  1611645.40 2088.80   1 0.80075-0.56238-0.49605 0.69977-0.33577-0.44053
   1  -3  17  359.14  288.67   1 0.79431-0.55236-0.48879 0.69251-0.36078-0.46405
   1  -3  18  466.17  615.37   1 0.78720-0.54167-0.48109 0.68480-0.38585-0.48750
   1  -3  19  229.71  487.63   1 0.77940-0.53029-0.47291 0.67661-0.41099-0.51088
  -1   2  2027160.91 2457.18   1 0.73503-0.84449-0.43122 0.29595-0.52325-0.44639
  -1   2  19 4185.94  985.14   1 0.74358-0.85662-0.43920 0.30390-0.50419-0.41696
  -1   2  1813310.49 1435.34   1 0.75138-0.86800-0.44661 0.31128-0.48578-0.38689
  -1   2  1741768.35 1815.29   1 0.75846-0.87867-0.45344 0.31809-0.46813-0.35605
  -1   2  1636016.41 1612.90   1 0.76483-0.88862-0.45968 0.32431-0.45138-0.32433
  -1   2  1538229.66 1761.02   1 0.57001-0.69838-0.74238 0.60781-0.35205-0.37793
  -1   2  1535661.46 1675.37   1 0.77049-0.89786-0.46533 0.32994-0.43569-0.29153
  -1   2  1435103.55 1739.15   1 0.57092-0.70282-0.75240 0.61771-0.32851-0.35280
  -1   2  1435030.37 1710.67   1 0.77587-0.90694-0.46929 0.33335-0.42168-0.25759
  -1   2  13 4475.48 1238.24   1 0.57146-0.70688-0.76177 0.62696-0.30518-0.32746
  -1   2  13 3914.25  526.30   1 0.78009-0.91474-0.47362 0.33769-0.40885-0.22189
  -1   2  1238605.61 1506.56   1 0.57163-0.71058-0.77048 0.63556-0.28211-0.30187
  -1   2  1239117.01 1482.00   1 0.78352-0.92174-0.47719 0.34127-0.39800-0.18423
  -1   2  11119687.1 3154.84   1 0.57146-0.71394-0.77856 0.64352-0.25935-0.27596
  -1   2  11127849.3 3427.54   1 0.78607-0.92787-0.47988 0.34396-0.38964-0.14407
  -1   2  10 1390.03  565.20   1 0.57097-0.71699-0.78600 0.65085-0.23702-0.24963
  -1   2  10 1857.39  679.38   1 0.78760-0.93298-0.48151 0.34559-0.38451-0.10068
  -1   2   9 2505.87 1013.03   1 0.57020-0.71974-0.79280 0.65753-0.21524-0.22274
  -1   2   9 2130.84  764.04   1 0.78784-0.93680-0.48177 0.34586-0.38368-0.05299
  -1   2   829978.60 1291.80   1 0.56918-0.72225-0.79893 0.66354-0.19426-0.19506
  -1   2   831336.20  974.78   1 0.78635-0.93888-0.48018 0.34427-0.38871 0.00055
  -1   2   757020.75 2062.34   1 0.56797-0.72457-0.80434 0.66885-0.17443-0.16622
   1  -2  -754170.71 2014.55   1 0.45167-0.29555-0.81923 0.95523 0.35333-0.01344
  -1   2   756595.05 2034.38   1 0.78226-0.93837-0.47588 0.33998-0.40201 0.06237
  -1   2   674926.44 1823.05   1 0.56667-0.72680-0.80895 0.67333-0.15645-0.13553
   1  -2  -670155.72 1736.33   1 0.45051-0.29081-0.81855 0.95456 0.35638-0.06504
  -1   2   674403.81 1817.67   1 0.77391-0.93360-0.46730 0.33141-0.42743 0.13631
  -1   2   5157527.0 1951.51   1 0.56408-0.72775-0.81373 0.67806-0.14016-0.10299
   1  -2  -5155005.1 1885.47   1 0.44440-0.28111-0.81489 0.95092 0.37209-0.12931
  -1   2   5157221.0 1872.29   1 0.75736-0.92058-0.45237 0.31674-0.47093 0.22852
  -1   2   445690.01 1592.42   1 0.56325-0.73044-0.81582 0.68001-0.13101-0.06350
   1  -2  -444559.71 1551.97   1 0.42804-0.26118-0.80434 0.94038 0.41208-0.21785
  -1   2   444543.41 1549.18   1 0.72491-0.89171-0.42192 0.28626-0.54452 0.35059
  -1   2   3 1967.72  254.73   1 0.56378-0.73449-0.81451 0.67855-0.13679-0.00910
   1  -2  -3 1834.57  238.17   1 0.38400-0.21356-0.77146 0.90752 0.50732-0.36165
  -1   2   3 1950.97  194.44   1 0.65388-0.82428-0.36115 0.22542-0.66485 0.51939
   1  -2  -3 1455.32  147.26   1 0.82001-0.64960-0.52041 0.65629-0.23824 0.38380
  -1   2   219300.38  651.04   1 0.56993-0.74418-0.79461 0.65853-0.20919 0.11185
  -1   2   220546.46  726.39   1 0.47894-0.65315-0.22251 0.08680-0.84918 0.75225
   1  -2  -219789.35  704.56   1 0.77202-0.59803-0.46539 0.60127-0.43291 0.52995
   1  -2  -1297454.8 2383.75   1 0.58584-0.40831-0.30534 0.44110-0.75071 0.79920
   1  -2   1211214.3 1928.17   1-0.12657 0.31150 0.64412-0.50828 0.75441-0.80291
  -1   2  -1212686.4 1931.10   1 0.51412-0.69884-0.84321 0.70700 0.15704-0.10847
   1  -2   2101554.0 1034.27   1 0.28034-0.09181 0.44996-0.31409 0.84793-0.94497
   1  -2   2102504.2 1274.72   1 0.57158-0.38321-0.76578 0.90231-0.29474 0.19741
  -1   2  -299646.39 1257.61   1 0.51698-0.70527-0.84349 0.70727 0.14575-0.04861
   1  -2   3 6905.88  280.99   1 0.67617-0.48403 0.10828 0.02782 0.72877-0.87463
  -1   2  -3 6880.83  296.80   1-0.03184-0.16022 0.61049-0.74643 0.79141-0.64593
   1  -2   3 7313.78  434.76   1 0.57119-0.37929-0.78326 0.91991-0.24541 0.09942
  -1   2  -3 6871.30  447.06   1 0.51522-0.70708-0.84333 0.70709 0.15273-0.00702
   1  -2   4 5925.75  286.21   1 0.85389-0.65815-0.18926 0.32511 0.48485-0.67910
  -1   2  -4 6055.24  327.15   1 0.29330-0.48899 0.44160-0.57739 0.84794-0.65388
   1  -2   4 6030.78  422.78   1 0.57060-0.37517-0.78967 0.92644-0.22544 0.03078
  -1   2  -4 6411.98  452.05   1 0.51161-0.70704-0.84288 0.70663 0.16671 0.02756
  -1   2  -575316.54  898.36   1 0.50777-0.70704 0.27932-0.41528 0.81498-0.57243
   1  -2   577225.71 1876.25   1 0.57040-0.37144-0.79128 0.92816-0.22024-0.02308
  -1   2  -572074.69 1363.67   1 0.50696-0.70596-0.84207 0.70580 0.18411 0.05873
  -1   2  -626627.06  928.20   1 0.62804-0.83083 0.16325-0.29939 0.76089-0.46917
   1  -2   627100.02 1234.30   1 0.57053-0.36804-0.79028 0.92728-0.22348-0.06850
  -1   2  -7113579.5 2332.21   1 0.69350-0.89984 0.08699-0.22314 0.71521-0.37487
   1  -2   7117437.9 2872.75   1 0.57082-0.36480-0.78761 0.92472-0.23201-0.10864
  -1   2  -871622.07 1076.29   1 0.72986-0.93975 0.03915-0.17532 0.68250-0.29354
   1  -2   877128.57 1732.26   1 0.57116-0.36161-0.78371 0.92094-0.24406-0.14526
  -1   2  -928023.82  654.90   1 0.75145-0.96402 0.01013-0.14628 0.65974-0.22206
   1  -2   932516.33 1213.23   1 0.57145-0.35837-0.77883 0.91617-0.25857-0.17941
  -1   2 -1033886.83  952.89   1 0.76243-0.97845-0.00641-0.12975 0.64706-0.16075
   1  -2  1151004.67 1867.38   1 0.57159-0.35146-0.76660 0.90418-0.29256-0.24276
   1  -2  1241507.94 1648.91   1 0.57135-0.34769-0.75938 0.89707-0.31127-0.27271
   1  -2  1325898.91 1244.77   1 0.57085-0.34365-0.75145 0.88926-0.33080-0.30184
   1  -2  1329051.69 1491.21   1 0.82658-0.59896-0.53083 0.66663-0.18706-0.44369
   1  -2  1425948.86 1500.37   1 0.57006-0.33933-0.74284 0.88076-0.35101-0.33030
   1  -2  1425436.78 1220.22   1 0.82298-0.59178-0.52485 0.66065-0.21736-0.46190
   1  -2  1516425.12 1140.56   1 0.56895-0.33469-0.73354 0.87158-0.37175-0.35822
   1  -2  1523108.17 1270.66   1 0.81864-0.58386-0.51845 0.65424-0.24708-0.48071
   1  -2  1617772.48 1186.60   1 0.81357-0.57522-0.51162 0.64741-0.27631-0.49999
   1  -2  1727276.39 2447.75   1 0.80778-0.56585-0.50435 0.64013-0.30516-0.51966
   1  -2  1814561.47 2995.01   1 0.80126-0.55575-0.49663 0.63240-0.33370-0.53964
   1  -2  1911658.05 1139.63   1 0.79398-0.54490-0.48843 0.62420-0.36199-0.55988
  -1   1  2010304.99 1316.00   1 0.72429-0.83371-0.42136 0.35396-0.54577-0.42386
  -1   1  1917977.44 1497.34   1 0.73262-0.84561-0.42899 0.36156-0.52845-0.39271
  -1   1  1817215.19 1704.58   1 0.74017-0.85675-0.43601 0.36856-0.51191-0.36076
  -1   1  17 7517.67  794.59   1 0.74697-0.86714-0.44241 0.37494-0.49631-0.32788
  -1   1  16 5125.49  652.63   1 0.75301-0.87676-0.44817 0.38068-0.48179-0.29391
  -1   1  15 8220.84 2550.23   1 0.75828-0.88562-0.45327 0.38575-0.46858-0.25864
  -1   1  14 9503.85 1892.23   1 0.76275-0.89367-0.45764 0.39009-0.45694-0.22180
  -1   1  13 8195.13 2003.66   1 0.76636-0.90086-0.46121 0.39364-0.44721-0.18305
  -1   1  1221483.32 1050.10   1 0.56942-0.70847-0.73723 0.67046-0.36366-0.22032
  -1   1  1221300.35 1194.56   1 0.76902-0.90710-0.46386 0.39627-0.43984-0.14194
  -1   1  11 6675.86  669.23   1 0.57012-0.71270-0.74337 0.67648-0.34979-0.18552
  -1   1  11 7130.03  630.28   1 0.77057-0.91224-0.46542 0.39781-0.43545-0.09785
  -1   1  1065916.74 1716.13   1 0.57060-0.71671-0.74837 0.68137-0.33815-0.14849
  -1   1  1064458.66 1655.50   1 0.77078-0.91604-0.46563 0.39799-0.43486-0.04996
  -1   1   930271.11 1050.56   1 0.57089-0.72054-0.75199 0.68487-0.32951-0.10847
  -1   1   929084.91 1122.73   1 0.76923-0.91807-0.46408 0.39641-0.43923 0.00289
  -1   1   882305.85 2158.54   1 0.57103-0.72420-0.75382 0.68659-0.32508-0.06424
  -1   1   884652.08 2230.33   1 0.76525-0.91768-0.46011 0.39242-0.45023 0.06237
  -1   1   7109193.0 2533.57   1 0.75762-0.91363-0.45262 0.38492-0.47027 0.13089
  -1   1   621339.41 1063.33   1 0.57060-0.73084-0.74846 0.68100-0.33795 0.04595
   1  -1  -622258.32  963.77   1 0.52654-0.36670-0.84356 0.91158 0.10556 0.18585
  -1   1   621445.22  950.52   1 0.74411-0.90370-0.43970 0.37197-0.50297 0.21207
  -1   1   545367.52 1647.50   1 0.56936-0.73312-0.73674 0.66917-0.36473 0.12140
   1  -1  -543012.26 1566.46   1 0.53505-0.37122-0.84272 0.91019 0.05948 0.18367
  -1   1   543665.57 1590.54   1 0.72034-0.88351-0.41777 0.35001-0.55371 0.31130
   1  -1  -541343.33 1555.65   1 0.82251-0.65927-0.52412 0.59208-0.22088 0.46348
   1  -1  -4178380.4 1908.95   1 0.54557-0.37823-0.83805 0.90567 0.00295 0.19156
  -1   1   4183324.1 1987.38   1 0.67725-0.84401-0.37986 0.31208-0.63012 0.43619
   1  -1  -4175266.3 1943.09   1 0.80115-0.63434-0.49651 0.56446-0.33413 0.52821
   1  -1  -355106.98 1826.73   1 0.55785-0.38698-0.82598 0.89374-0.08096 0.22685
  -1   1   356602.32 1955.65   1 0.59552-0.76590-0.31313 0.24529-0.73981 0.59435
   1  -1  -355442.55 1866.83   1 0.75209-0.58175-0.44729 0.51510-0.48404 0.62949
   1  -1  -2183818.4 1607.46   1 0.57127-0.39692-0.78205 0.84998-0.24905 0.34638
  -1   1   2187107.0 1839.43   1 0.43631-0.61047-0.19029 0.12250-0.87945 0.78252
   1  -1  -2183243.4 1778.79   1 0.64354-0.46960-0.35249 0.42034-0.67943 0.77640
  -1   1   1252112.7 2183.02   1 0.15657-0.33421 0.01205-0.07995-0.98760 0.93911
   1  -1  -1249383.1 2178.95   1 0.41904-0.24135-0.17739 0.24524-0.89048 0.93895
  -1   1   1251731.2 1966.94   1 0.11712-0.29490 0.11484-0.18283-0.98645 0.93787
   1  -1   169476.83  898.15   1 0.13353 0.05137 0.53480-0.46681 0.83439-0.88289
   1  -1   167724.45  855.48   1 0.48627-0.30143-0.83593 0.90404 0.25448-0.30305
  -1   1  -166554.58  857.49   1 0.31595-0.50061-0.71116 0.64312 0.62803-0.57946
   1  -1   2206564.0 1892.37   1 0.43856-0.25006 0.33736-0.26938 0.83300-0.93002
  -1   1  -2208093.9 1934.60   1 0.09369-0.28218 0.55480-0.62284 0.82672-0.72972
   1  -1   2204830.1 2068.89   1 0.51523-0.32683-0.84333 0.91146 0.15268-0.24982
  -1   1  -2205106.3 2080.22   1 0.39803-0.58641-0.78256 0.71449 0.47871-0.38159
   1  -1   311666.48  482.78   1 0.67804-0.48588 0.10602-0.03795 0.72736-0.87322
  -1   1  -310876.20  455.66   1 0.33149-0.52356 0.41610-0.48395 0.84677-0.70122
   1  -1   311473.46  619.59   1 0.52976-0.33776-0.84390 0.91254 0.08472-0.23062
  -1   1  -310724.70  538.41   1 0.43062-0.62259-0.80608 0.73799 0.40594-0.26028
   1  -1   4199322.0 1843.93   1 0.81214-0.61682-0.09132 0.15938 0.57630-0.77082
  -1   1  -4202269.3 1933.48   1 0.50525-0.70093 0.28154-0.34953 0.81578-0.62174
   1  -1   4201337.2 2395.41   1 0.53944-0.34392-0.84120 0.90998 0.03707-0.23160
  -1   1  -4198815.8 2424.44   1 0.44527-0.64082-0.81542 0.74732 0.36987-0.17564
   1  -1   5143300.0 1531.22   1 0.86905-0.66977-0.23653 0.30432 0.43455-0.67736
  -1   1  -5140671.9 1520.01   1 0.61674-0.81600 0.17539-0.24348 0.76740-0.52430
   1  -1   5146018.4 2096.16   1 0.54655-0.34751-0.83742 0.90634-0.00280-0.24035
  -1   1  -5135933.6 2116.68   1 0.45191-0.65103-0.81915 0.75098 0.35321-0.11036
  -1   1  -6111775.6 2329.03   1 0.68391-0.88672 0.09889-0.16699 0.72286-0.43114
   1  -1   6115385.6 2753.82   1 0.55211-0.34955-0.83289 0.90196-0.03826-0.25352
  -1   1  -774687.53 1679.04   1 0.72418-0.93054 0.04695-0.11507 0.68804-0.34770
   1  -1   776985.29 2394.28   1 0.55660-0.35052-0.82774 0.89695-0.07097-0.26944
  -1   1  -830229.89  710.75   1 0.74956-0.95867 0.01292-0.08105 0.66184-0.27279
   1  -1   831531.52 1114.44   1 0.56028-0.35068-0.82201 0.89137-0.10186-0.28718
  -1   1  -9 4569.01  390.72   1 0.76383-0.97639-0.00856-0.05958 0.64538-0.20770
   1  -1   9 5784.11 1472.75   1 0.56330-0.35017-0.81572 0.88522-0.13150-0.30618
   1  -1  10 1236.66  574.52   1 0.56688-0.35017-0.80827 0.87757-0.15918-0.32746
   1  -1  1143836.52 2092.95   1 0.56878-0.34855-0.80087 0.87029-0.18731-0.34800
   1  -1  1247456.12 1758.77   1 0.57019-0.34642-0.79289 0.86243-0.21493-0.36905
   1  -1  1370422.81 2750.35   1 0.57111-0.34382-0.78433 0.85399-0.24215-0.39049
   1  -1  14 6550.19 1255.46   1 0.57157-0.34074-0.77518 0.84494-0.26906-0.41225
   1  -1  15 1004.13  499.15   1 0.57157-0.33721-0.76540 0.83529-0.29573-0.43425
   1  -1  15 1193.45  761.54   1 0.82650-0.59175-0.53069 0.59855-0.18780-0.53998
   1  -1  1612128.93 1742.31   1 0.57110-0.33322-0.75499 0.82499-0.32220-0.45644
   1  -1  1613817.27 1018.28   1 0.82249-0.58416-0.52410 0.59195-0.22100-0.55530
   1  -1  1711772.53 1106.76   1 0.57017-0.32876-0.74393 0.81404-0.34851-0.47879
   1  -1  1712768.58 2002.21   1 0.81761-0.57570-0.51702 0.58487-0.25341-0.57141
   1  -1  18  436.44  380.12   1 0.81188-0.56640-0.50945 0.57729-0.28518-0.58817
   1  -1  19 1369.24  603.40   1 0.80531-0.55625-0.50138 0.56921-0.31640-0.60547
  -1   0  20  247.99  369.66   1 0.71118-0.82055-0.40954 0.41002-0.57141-0.39823
  -1   0  19 2243.52 1964.92   1 0.71923-0.83218-0.41677 0.41722-0.55590-0.36525
  -1   0  18 5530.61  709.43   1 0.72646-0.84300-0.42334 0.42377-0.54134-0.33133
  -1   0  17 2878.80  519.04   1 0.73288-0.85301-0.42923 0.42964-0.52787-0.29631
  -1   0  1612373.15  969.56   1 0.73847-0.86218-0.43442 0.43480-0.51570-0.26000
  -1   0  1567702.95 2257.36   1 0.74320-0.87049-0.43885 0.43920-0.50506-0.22217
  -1   0  1410806.12  809.65   1 0.74700-0.87787-0.44243 0.44277-0.49624-0.18250
  -1   0  1313369.56  908.98   1 0.74978-0.88424-0.44507 0.44538-0.48965-0.14061
  -1   0  1218639.04 1010.60   1 0.75138-0.88943-0.44661 0.44690-0.48577-0.09600
  -1   0  1116679.77 1029.32   1 0.75159-0.89322-0.44681 0.44707-0.48527-0.04802
  -1   0  1017149.38 1302.34   1 0.75004-0.89525-0.44532 0.44556-0.48902 0.00420
  -1   0   9 2206.60  342.59   1 0.74616-0.89496-0.44164 0.44186-0.49821 0.06187
  -1   0   8   90.98  160.87   1 0.73905-0.89143-0.43495 0.43514-0.51443 0.12657
   1   0  -7 3233.08 1078.80   1 0.55400-0.39706-0.83092 0.82990-0.05149 0.39191
  -1   0   7 3313.19  426.08   1 0.72716-0.88312-0.42397 0.42414-0.53991 0.20053
   1   0  -636156.99 1425.69   1 0.56235-0.40189-0.81789 0.81702-0.12167 0.41346
  -1   0   637111.31 1458.35   1 0.70785-0.86739-0.40657 0.40671-0.57764 0.28675
   1   0  -634042.35 1346.27   1 0.81676-0.65712-0.51585 0.51588-0.25850 0.54961
   1   0  -532375.88 1246.30   1 0.56992-0.40606-0.79471 0.79414-0.20883 0.45216
  -1   0   533589.96 1290.66   1 0.67640-0.83953-0.37912 0.37924-0.63147 0.38906
   1   0  -531694.64 1254.99   1 0.79491-0.63170-0.48946 0.48948-0.35855 0.60114
   1   0  -4214187.1 2287.62   1 0.57107-0.40368-0.75444 0.75398-0.32355 0.51821
  -1   0   4211037.7 2477.93   1 0.62397-0.79076-0.33629 0.33636-0.70539 0.51144
   1   0  -4210637.4 2271.83   1 0.75387-0.58715-0.44900 0.44890-0.47968 0.67361
   1   0  -1134810.3 1587.53   1-0.11196 0.28966 0.63938-0.63943 0.76072-0.71223
  -1   0   1136240.7 1455.90   1 0.17343-0.35106 0.00040-0.00037-0.98485 0.93636
   1   0  -1135884.3 1471.08   1 0.34878-0.17113-0.12564 0.12558-0.92875 0.97722
  -1   0   1135114.3 1379.37   1 0.17351-0.35128 0.02828-0.02827-0.98442 0.93584
   1   0   059038.75 1932.38   1 0.09066 0.09065 0.55627-0.55627 0.82607-0.82607
  -1   0   059264.16 1938.41   1-0.09062-0.09063 0.63217-0.63217 0.76954-0.76954
  -1   0   059145.41 1869.40   1-0.09069-0.09069 0.40835-0.40835-0.90830 0.90830
   1   0   059896.80 1900.87   1 0.09069 0.09069 0.15435-0.15435-0.98384 0.98384
   1   0   110649.07  474.56   1 0.32123-0.13635 0.42308-0.42312 0.84726-0.89578
  -1   0  -110395.17  467.39   1 0.11922-0.30412 0.54213-0.54217 0.83182-0.78333
   1   0   110197.08  460.72   1 0.27876-0.09406-0.67438 0.67444 0.68374-0.73231
   1   0   110529.77  445.25   1-0.13157 0.31641 0.46099-0.46097-0.87759 0.82908
   1   0   2266486.1 2510.12   1 0.53400-0.34550 0.25568-0.25566 0.80592-0.90294
  -1   0  -2264360.7 2456.61   1 0.31727-0.50573 0.42576-0.42567 0.84742-0.75039
   1   0   2261068.3 2585.32   1 0.38242-0.19398-0.77018 0.77020 0.51046-0.60758
  -1   0  -2263155.7 2615.72   1 0.25248-0.44072-0.64706 0.64693 0.71941-0.62227
   1   0   331085.19 1118.28   1 0.69396-0.50178 0.08642-0.08638 0.71483-0.86069
  -1   0  -330433.96 1139.12   1 0.47371-0.66580 0.30864-0.30865 0.82486-0.67933
   1   0   330585.43 1184.24   1 0.44072-0.24870-0.81261 0.81265 0.38134-0.52701
  -1   0  -331224.48 1308.03   1 0.32075-0.51254-0.71573 0.71555 0.62035-0.47464
   1   0   469258.38  985.66   1 0.79531-0.59999-0.06036 0.06043 0.60322-0.79774
  -1   0  -466700.62 1002.34   1 0.58406-0.77974 0.20763-0.20765 0.78473-0.59069
   1   0   467170.07 1253.06   1 0.47663-0.28097-0.83192 0.83198 0.28412-0.47839
  -1   0  -469138.59 1269.50   1 0.35829-0.55389-0.74983 0.74977 0.55622-0.36199
   1   0   585821.25 1143.70   1 0.85030-0.65106-0.17958 0.17936 0.49474-0.73755
  -1   0  -584770.35 1170.15   1 0.65742-0.85670 0.13037-0.13042 0.74218-0.49909
   1   0   585432.92 1880.29   1 0.50050-0.30127-0.84057 0.84063 0.20722-0.45007
  -1   0  -583039.78 1521.58   1 0.38021-0.57939-0.76838 0.76831 0.51480-0.27202
   1   0   664240.02 1468.35   1 0.87767-0.67486-0.27166 0.27141 0.39487-0.68624
  -1   0  -661819.81 2055.34   1 0.70433-0.90716 0.07322-0.07329 0.70611-0.41439
   1   0   661416.50 2293.74   1 0.51751-0.31470-0.84353 0.84362 0.14362-0.43504
  -1   0  -750926.79 1746.13   1 0.73431-0.94069 0.03296-0.03303 0.67804-0.33770
   1   0   757486.28 2493.57   1 0.52956-0.32333-0.84393 0.84495 0.08561-0.42604
   1   0   835694.78 1196.87   1 0.53941-0.32965-0.84121 0.84238 0.03723-0.42629
   1   0   976181.57 1849.36   1 0.54719-0.33391-0.83698 0.83829-0.00667-0.43101
   1   0  1034206.62 1292.91   1 0.55340-0.33660-0.83156 0.83302-0.04726-0.43905
   1   0  11 1057.17  450.59   1 0.55838-0.33806-0.82518 0.82678-0.08534-0.44961
   1   0  12 1677.21  688.21   1 0.56233-0.33849-0.81793 0.81968-0.12147-0.46211
   1   0  1320913.14 1479.76   1 0.56659-0.33920-0.80919 0.81069-0.15545-0.47719
   1   0  14 9996.15 3036.29   1 0.56887-0.33795-0.80044 0.80205-0.18887-0.49244
   1   0  15 7096.38 1599.28   1 0.57044-0.33599-0.79095 0.79268-0.22130-0.50868
   1   0  16 4801.00 1480.53   1 0.57135-0.33337-0.78076 0.78260-0.25291-0.52573
   1   0  17 8038.76 3245.22   1 0.57163-0.33011-0.76984 0.77180-0.28386-0.54345
   1   0  1710052.24  874.66   1 0.82442-0.58253-0.52715 0.52706-0.20606-0.61877
   1   0  18 7356.82 1335.13   1 0.57129-0.32625-0.75820 0.76027-0.31425-0.56173
   1   0  18 9290.19  912.89   1 0.81963-0.57417-0.51986 0.51977-0.24075-0.63260
   1   0  19  270.25  446.79   1 0.57036-0.32179-0.74580 0.74800-0.34417-0.58047
   1   0  19  368.24  405.12   1 0.81388-0.56485-0.51203 0.51193-0.27465-0.64721
  -1  -1  1919097.99 1514.92   1 0.70323-0.81614-0.40247 0.47080-0.58608-0.33507
  -1  -1  1816193.80 1739.15   1 0.71004-0.82654-0.40853 0.47683-0.57355-0.29912
  -1  -1  17 7512.33 1861.38   1 0.71597-0.83605-0.41383 0.48211-0.56227-0.26192
  -1  -1  16 5191.22 2116.28   1 0.72096-0.84463-0.41834 0.48660-0.55246-0.22324
  -1  -1  15 9150.09  916.00   1 0.72497-0.85222-0.42198 0.49021-0.54439-0.18283
  -1  -1  1410121.67  840.70   1 0.72789-0.85872-0.42464 0.49285-0.53839-0.14035
  -1  -1  13 6848.96  702.53   1 0.72958-0.86400-0.42620 0.49438-0.53486-0.09540
  -1  -1  1222264.36 1062.20   1 0.72984-0.86784-0.42643 0.49459-0.53433-0.04745
  -1  -1  11 7347.94  658.17   1 0.72833-0.86992-0.42505 0.49319-0.53747 0.00416
  -1  -1  1067347.01 2361.08   1 0.72461-0.86978-0.42165 0.48976-0.54513 0.06031
  -1  -1   929116.08 1028.77   1 0.71793-0.86669-0.41560 0.48369-0.55844 0.12210
  -1  -1   883974.03 2163.92   1 0.70720-0.85954-0.40599 0.47406-0.57883 0.19098
  -1  -1   7110170.8 2599.71   1 0.69064-0.84656-0.39143 0.45948-0.60812 0.26874
   1   1  -621721.33  983.44   1 0.57156-0.41113-0.76520 0.69635-0.29626 0.58826
  -1  -1   622639.70 1008.38   1 0.66542-0.82493-0.36976 0.43778-0.64846 0.35757
  -1  -1   543418.51 1625.09   1 0.62644-0.78964-0.33832 0.40630-0.70223 0.45979
   1   1  -543156.30 1604.09   1 0.76303-0.59994-0.45791 0.38992-0.45619 0.69861
   1   1  -4176068.9 2049.66   1 0.71024-0.54357-0.40870 0.34073-0.57318 0.76710
   1   1  -355912.35 1932.82   1 0.62609-0.45576-0.33803 0.27009-0.70268 0.84814
   1   1  -2187334.4 2106.25   1-0.06397 0.23805 0.62267-0.69066 0.77989-0.68290
   1   1  -2188591.9 2136.66   1 0.49865-0.32458-0.23759 0.16954-0.83361 0.93055
  -1  -1   2189825.0 2088.69   1 0.31229-0.48650-0.19928 0.26735-0.92884 0.83176
   1   1  -1256087.4 3949.75   1 0.32379-0.14619-0.10752 0.03953-0.94001 0.98848
   1   1   0999998.629954.06   1 0.13585 0.04552 0.08643-0.15445-0.98695 0.98695
   1   1   167305.71 1005.58   1 0.44986-0.26494 0.32829-0.39625 0.83060-0.87911
  -1  -1  -169088.29 1031.82   1 0.27746-0.46232 0.45179-0.38377 0.84791-0.79939
  -1  -1  -170862.60 1041.31   1-0.15556-0.02929 0.49136-0.42341-0.85695 0.90546
   1   1   169699.81 1023.03   1-0.02185 0.20680 0.31538-0.38337-0.94871 0.90014
   1   1   2211159.4 2168.30   1 0.60085-0.41220 0.19203-0.26005 0.77598-0.87322
  -1  -1  -2198439.7 2065.75   1 0.42433-0.61283 0.34858-0.28062 0.83575-0.73873
   1   1   2203892.9 2312.80   1 0.26069-0.07242-0.65571 0.58785 0.70857-0.80571
   1   1   2207818.5 2182.37   1-0.14356 0.33198 0.47624-0.54417-0.86751 0.77049
   1   1   311263.21  517.47   1 0.71413-0.52193 0.06043-0.12844 0.69743-0.84329
  -1  -1  -312055.35  546.43   1 0.53636-0.72846 0.25350-0.18555 0.80504-0.65952
   1   1   310447.58  575.01   1 0.34414-0.15232-0.73738 0.66959 0.58123-0.72694
   1   1   4200152.8 2112.23   1 0.79233-0.59702-0.05514-0.01277 0.60762-0.80215
  -1  -1  -4195483.3 2118.20   1 0.61690-0.81265 0.17523-0.10723 0.76731-0.57283
   1   1   4202361.9 2538.01   1 0.40139-0.20573-0.78513 0.71714 0.47164-0.66586
  -1  -1  -4201011.2 2498.34   1 0.26462-0.45998-0.65981 0.72754 0.70329-0.50901
   1   1   5141963.2 1713.63   1 0.84134-0.64258-0.15349 0.08559 0.51829-0.76145
  -1  -1  -5138417.2 1717.65   1 0.67192-0.87122 0.11336-0.04538 0.73192-0.48882
   1   1   5143584.1 2184.59   1 0.44209-0.24286-0.81347 0.74549 0.37791-0.62069
  -1  -1  -5139786.2 2120.14   1 0.30032-0.49923-0.69599 0.76365 0.65222-0.40937
   1   1   6111579.4 2415.66   1 0.86879-0.66602-0.23560 0.16733 0.43558-0.72695
  -1  -1  -6108924.1 2384.24   1 0.70919-0.91204 0.06692 0.00104 0.70186-0.41014
   1   1   6110857.2 2706.10   1 0.47192-0.26901-0.82975 0.76173 0.29797-0.58939
   1   1   774600.69 1756.79   1 0.88333-0.67699-0.30307 0.23476 0.35764-0.69757
   1   1   775571.31 2111.65   1 0.49428-0.28779-0.83874 0.77074 0.22845-0.56844
   1   1   831269.81 1144.98   1 0.51153-0.30147-0.84287 0.77488 0.16701-0.55557
   1   1   9 5989.29 2205.92   1 0.52513-0.31150-0.84365 0.77567 0.11177-0.54890
   1   1  10 1306.95  444.54   1 0.53528-0.31832-0.84265 0.77591 0.05831-0.54463
   1   1  1141674.17 2719.03   1 0.54408-0.32360-0.83895 0.77235 0.01163-0.54658
   1   1  1247954.73 1802.80   1 0.55118-0.32718-0.83376 0.76731-0.03205-0.55152
   1   1  1368659.02 2729.93   1 0.55690-0.32938-0.82733 0.76102-0.07333-0.55888
   1   1  14 5860.91 1305.48   1 0.56144-0.33039-0.81981 0.75364-0.11264-0.56820
   1   1  15  537.47  971.23   1 0.56495-0.33038-0.81131 0.74529-0.15035-0.57912
   1   1  1613933.69 3730.36   1 0.56873-0.33064-0.80111 0.73480-0.18642-0.59222
   1   1  1714047.45 1555.93   1 0.57046-0.32885-0.79083 0.72464-0.22171-0.60560
   1   1  18  172.91  425.64   1 0.57141-0.32626-0.77969 0.71361-0.25606-0.61992
   1   1  19  750.30  757.43   1 0.57161-0.32294-0.76771 0.70174-0.28961-0.63502
   1   1  19  402.33  416.69   1 0.82019-0.57117-0.52066 0.45263-0.23710-0.68476
  -1  -2  19 2852.97 2563.11   1 0.68443-0.79729-0.38604 0.52224-0.61850-0.30265
  -1  -2  1812761.21 2168.93   1 0.69071-0.80717-0.39149 0.52768-0.60800-0.26467
  -1  -2  1743527.08 2026.29   1 0.69601-0.81605-0.39612 0.53228-0.59889-0.22530
  -1  -2  1637403.16 1659.48   1 0.70025-0.82388-0.39985 0.53598-0.59142-0.18429
  -1  -2  1536225.37 1564.91   1 0.70336-0.83056-0.40259 0.53870-0.58585-0.14137
  -1  -2  1433667.48 1891.37   1 0.70518-0.83597-0.40420 0.54029-0.58254-0.09620
  -1  -2  13 3840.75 1262.32   1 0.70554-0.83991-0.40452 0.54058-0.58189-0.04837
  -1  -2  1237561.31 1502.24   1 0.70414-0.84210-0.40328 0.53932-0.58443 0.00264
  -1  -2  11121412.8 3148.88   1 0.70061-0.84215-0.40016 0.53618-0.59078 0.05748
  -1  -2  10 2064.63  744.67   1 0.69436-0.83948-0.39468 0.53067-0.60176 0.11694
  -1  -2   9 2052.12  508.76   1 0.68454-0.83325-0.38614 0.52210-0.61832 0.18198
  -1  -2   821461.17 1076.59   1 0.66990-0.82220-0.37357 0.50951-0.64163 0.25377
  -1  -2   748734.53 1837.78   1 0.64795-0.80399-0.35617 0.49207-0.67328 0.33387
  -1  -2   669799.27 2004.57   1 0.61714-0.77674-0.33068 0.46656-0.71401 0.42308
  -1  -2   5158181.3 2089.88   1 0.57271-0.73588-0.29485 0.43072-0.76490 0.52247
   1   2  -445869.17 1703.31   1-0.11178 0.27867 0.63932-0.77530 0.76080-0.56682
  -1  -2   446053.29 1693.10   1 0.50795-0.67491-0.24475 0.38086-0.82589 0.63202
   1   2  -443676.73 1601.08   1 0.67667-0.51004-0.37936 0.24351-0.63104 0.82497
   1   2  -3 2194.36  265.15   1-0.00414 0.17471 0.59876-0.73478 0.80095-0.65545
  -1  -2   3 1906.88  571.67   1 0.41777-0.58827-0.17644 0.31248-0.89126 0.74586
   1   2  -3 1845.72  592.29   1 0.59095-0.42065-0.30945 0.17362-0.74500 0.89046
   1   2  -219731.98  849.53   1 0.12450 0.04964 0.53944-0.67541 0.83280-0.73580
  -1  -2   219538.21  835.84   1-0.09847-0.07555 0.63486-0.49898 0.76635-0.86334
  -1  -2   219930.81  829.29   1 0.29594-0.46999-0.08586 0.22178-0.95135 0.85436
   1   2  -216610.29  715.90   1 0.47265-0.29863-0.21773 0.08175-0.85394 0.95087
  -1  -2   220828.01  891.21   1 0.26813-0.44234-0.12413 0.26020-0.95535 0.85827
  -1  -2   1294983.2 2919.30   1 0.06392-0.24165 0.56895-0.43302 0.81991-0.86841
  -1  -2   1301679.6 2901.93   1 0.14053-0.31813 0.02309 0.11278-0.98982 0.94132
  -1  -2   1297083.6 3149.85   1 0.15982-0.33758 0.04959 0.08645-0.98590 0.93731
   1   2  -1293976.4 2988.94   1 0.28672-0.10894-0.15544 0.01941-0.94531 0.99386
   1   2   0503902.5 4459.32   1 0.41078-0.22945 0.35905-0.49499 0.83808-0.83808
  -1  -2   0513711.515518.06   1 0.22251-0.40376 0.48544-0.34949 0.84550-0.84550
   1   2   0508607.2 5565.76   1 0.15260 0.02853 0.01479-0.15064-0.98819 0.98819
  -1  -2   0521105.015777.14   1 0.03492-0.21630 0.23549-0.09944-0.97124 0.97124
   1   2   0512422.215524.27   1 0.16863 0.01275 0.03590-0.17194-0.98502 0.98502
   1   2   1219475.9 2329.77   1 0.54194-0.35702 0.24832-0.38425 0.80292-0.85143
  -1  -2  -1217967.4 2323.57   1 0.36284-0.54766 0.39414-0.25814 0.84442-0.79590
  -1  -2  -1221037.9 2410.56   1-0.08902-0.09593 0.40614-0.27012-0.90946 0.95803
   1   2   1214957.3 2354.12   1 0.04994 0.13500 0.21386-0.34988-0.97558 0.92701
   1   2   2103986.8 1411.86   1 0.65170-0.46302 0.13694-0.27299 0.74604-0.84328
  -1  -2  -2103239.2 1508.46   1-0.19719 0.00876 0.54269-0.40679-0.81645 0.91347
   1   2   2101735.5 1456.69   1-0.05336 0.24188 0.35846-0.49445-0.93201 0.83487
   1   2   3 6602.80  402.49   1 0.73543-0.54321 0.03138-0.16743 0.67689-0.82275
  -1  -2  -3 6701.39  390.36   1 0.56351-0.75561 0.22784-0.09192 0.79409-0.64856
   1   2   3 6624.12  475.05   1 0.26530-0.07345-0.66052 0.52475 0.70237-0.84808
   1   2   3 6909.27  422.62   1-0.13478 0.32679 0.46509-0.60098-0.87494 0.72940
   1   2   4 6163.12  398.78   1 0.79673-0.60143-0.06287-0.07303 0.60108-0.79560
  -1  -2  -4 5493.58  513.62   1 0.62783-0.82360 0.16348-0.02744 0.76101-0.56653
   1   2   4 6302.02  507.05   1 0.33304-0.13765-0.72724 0.59154 0.60016-0.79443
   1   2   4 5976.44  418.18   1-0.19531 0.39089 0.54041-0.67629-0.81841 0.62436
   1   2   575509.42 1246.31   1 0.83807-0.63932-0.14581 0.00992 0.52574-0.76890
  -1  -2  -569549.17 1185.10   1 0.67332-0.87264 0.11170 0.02432 0.73089-0.48779
   1   2   576417.46 1663.93   1 0.38436-0.18507-0.77175 0.63572 0.50661-0.74939
   1   2   625778.52 1038.56   1 0.86357-0.66082-0.21795 0.08168 0.45474-0.74611
   1   2   627838.35 1287.01   1 0.42403-0.22116-0.80160 0.66559 0.42145-0.71279
   1   2   7114153.6 2884.83   1 0.87926-0.67295-0.27946 0.14314 0.38580-0.72573
   1   2   7116363.6 2944.19   1 0.45498-0.24838-0.82091 0.68481 0.34509-0.68508
   1   2   872191.47 1792.97   1 0.47930-0.26912-0.83309 0.69700 0.27608-0.66464
   1   2   929686.16 1205.31   1 0.49872-0.28498-0.84008 0.70400 0.21337-0.65050
   1   2  1040769.42 1683.53   1 0.51442-0.29710-0.84325 0.70719 0.15587-0.64156
   1   2  1150214.82 1961.10   1 0.52640-0.30576-0.84434 0.70954 0.09991-0.63486
   1   2  1242394.33 2018.49   1 0.53691-0.31275-0.84214 0.70749 0.05016-0.63375
   1   2  1323868.43 1773.50   1 0.54551-0.31783-0.83809 0.70359 0.00335-0.63556
   1   2  1421802.01 1252.07   1 0.55251-0.32131-0.83249 0.69813-0.04102-0.63982
   1   2  1523235.99 1589.75   1 0.55814-0.32342-0.82554 0.69132-0.08336-0.64611
   1   2  1617256.98 4572.19   1 0.56258-0.32434-0.81739 0.68331-0.12398-0.65412
   1   2  1724236.23 5256.13   1 0.56717-0.32546-0.80729 0.67294-0.16307-0.66424
   1   2  1817562.91 1981.58   1 0.56954-0.32429-0.79700 0.66277-0.20102-0.67495
   1   2  1911214.87 1181.78   1 0.57100-0.32223-0.78571 0.65160-0.23792-0.68672
   1   2  1911974.11 1341.13   1 0.82466-0.57567-0.52755 0.39159-0.20404-0.71783
  -1  -3  18 9933.95  910.68   1 0.66827-0.78468-0.37218 0.57624-0.64413-0.22854
  -1  -3  1725975.73 2565.12   1 0.67280-0.79280-0.37605 0.58008-0.63713-0.18706
  -1  -3  1641097.66 1833.38   1 0.67614-0.79972-0.37890 0.58291-0.63189-0.14382
  -1  -3  15 5387.99 2059.73   1 0.67815-0.80531-0.38063 0.58461-0.62869-0.09854
  -1  -3  14 8031.87  767.99   1 0.67867-0.80942-0.38107 0.58504-0.62785-0.05089
  -1  -3  13 8109.52  794.52   1 0.67745-0.81178-0.38003 0.58397-0.62980-0.00046
  -1  -3  1268005.87 2055.90   1 0.67417-0.81208-0.37721 0.58112-0.63500 0.05321
  -1  -3  1115219.38 1412.75   1 0.66834-0.80983-0.37223 0.57612-0.64404 0.11073
  -1  -3  1041164.16 1495.52   1 0.65861-0.80394-0.36514 0.56898-0.65796 0.17309
  -1  -3   9137980.1 2383.38   1 0.64544-0.79433-0.35408 0.55790-0.67679 0.24040
  -1  -3   831506.24 1448.66   1 0.62683-0.77928-0.33864 0.54244-0.70173 0.31383
  -1  -3   735894.50 1501.14   1 0.60090-0.75692-0.31748 0.52126-0.73358 0.39417
   1   3  -632242.77 1308.27   1-0.10384 0.26355 0.63668-0.84065 0.76413-0.47317
  -1  -3   632988.61 1368.55   1 0.56508-0.72467-0.28880 0.49257-0.77285 0.48192
   1   3  -5 9444.29  572.02   1-0.02815 0.19155 0.60844-0.81250 0.79313-0.55064
  -1  -3   5 9291.30  582.19   1 0.51590-0.67905-0.25030 0.45405-0.81928 0.57684
   1   3  -424890.38 1064.01   1 0.06361 0.10336 0.56909-0.77310 0.81984-0.62585
  -1  -3   424540.33 1048.55   1 0.44809-0.61500-0.19914 0.40317-0.87154 0.67767
   1   3  -423260.47  986.09   1 0.65358-0.48686-0.36090 0.15716-0.66528 0.85923
   1   3  -3 6427.81  438.39   1 0.16948 0.00107 0.51568-0.71964 0.83988-0.69438
  -1  -3   3 6441.83  411.05   1-0.13583-0.03457 0.64703-0.44320 0.75030-0.89578
  -1  -3   3 6848.07  442.13   1 0.35921-0.52966-0.13325 0.33722-0.92370 0.77830
   1   3  -3 6141.10  579.36   1 0.57168-0.40141-0.29404 0.09032-0.76598 0.91144
  -1  -3   3 7205.78  547.23   1 0.30476-0.47541-0.18627 0.39037-0.93403 0.78841
   1   3  -2 7159.28  439.02   1 0.28454-0.11048 0.44727-0.65111 0.84796-0.75093
  -1  -3   2 7715.95  464.19   1 0.01131-0.18545 0.59230-0.38839 0.80567-0.90266
  -1  -3   2 7653.01  462.63   1 0.24652-0.42055-0.05071 0.25455-0.96782 0.87083
   1   3  -2 7264.71  541.20   1 0.46458-0.29059-0.21159 0.00769-0.85989 0.95682
   1   3  -150080.30 1795.44   1 0.40249-0.22476 0.36536-0.56926 0.83938-0.79087
  -1  -3   149107.32 1764.63   1 0.15769-0.33541 0.52206-0.31820 0.83823-0.88673
   1   3  -147298.88 1681.94   1 0.33496-0.15745-0.11561-0.08822-0.93512 0.98359
   1   3  -149978.17 1863.65   1 0.28852-0.11073-0.15848-0.04554-0.94426 0.99280
   1   3   0363306.5 3480.28   1 0.51358-0.33226 0.27417-0.47806 0.81308-0.81308
  -1  -3   0354623.3 3452.92   1 0.29231-0.47353 0.44224-0.23831 0.84795-0.84795
   1   3   0353018.0 3355.27   1 0.19152-0.01039-0.01214-0.19162-0.98142 0.98142
   1   3   0354544.5 3709.71   1 0.19651-0.01513-0.00795-0.19609-0.98046 0.98046
  -1  -3  -131933.10 1222.81   1 0.40745-0.59237 0.36160-0.15770 0.83862-0.79011
   1   3   129638.18 1210.55   1 0.10287 0.08212 0.13623-0.34026-0.98532 0.93673
   1   3   2 1879.82  218.91   1 0.69312-0.50443 0.08747-0.29157 0.71552-0.81276
  -1  -3  -2 3075.20  719.95   1 0.50032-0.68884 0.28586-0.08198 0.81731-0.72029
  -1  -3  -2 2778.78  423.15   1-0.14973-0.03870 0.48403-0.28016-0.86214 0.95917
   1   3   2 2552.22  767.43   1 0.01618 0.17232 0.26217-0.46618-0.96488 0.86774
   1   3   3273714.9 2903.54   1 0.75747-0.56562 0.00114-0.20505 0.65290-0.79879
   1   3   3256474.7 2926.40   1-0.05801 0.25009 0.36476-0.56873-0.92929 0.78358
   1   3   4270498.0 3217.07   1 0.80512-0.60982-0.07805-0.12583 0.58799-0.78251
   1   3   4260513.5 3316.20   1 0.27833-0.08290-0.67394 0.47026 0.68434-0.87862
   1   3   521775.30  957.93   1 0.83941-0.64067-0.14894-0.05493 0.52272-0.76587
   1   3   522683.97 1130.48   1 0.33482-0.13585-0.72888 0.52526 0.59717-0.84002
   1   3   6 8371.06  558.93   1 0.86180-0.65910-0.21239 0.00811 0.46067-0.75204
   1   3   6 8826.33  679.68   1 0.38009-0.17716-0.76827 0.56421 0.51505-0.80639
   1   3   7 1013.64  345.23   1 0.87687-0.67059-0.26793 0.06361 0.39919-0.73912
   1   3   7  999.68  352.49   1 0.41695-0.21045-0.79663 0.59258 0.43763-0.77752
   1   3   820207.47 1539.51   1 0.44685-0.23677-0.81638 0.61234 0.36585-0.75430
   1   3   947021.25 1561.47   1 0.47140-0.25754-0.82950 0.62532 0.29951-0.73664
   1   3  10100872.6 2988.95   1 0.49146-0.27403-0.83781 0.63365 0.23775-0.72345
   1   3  1198744.12 2838.51   1 0.50803-0.28703-0.84228 0.63813 0.18014-0.71441
   1   3  1237647.60 1641.08   1 0.52177-0.29720-0.84371 0.63957 0.12611-0.70895
   1   3  13 8587.39 2623.10   1 0.53234-0.30450-0.84340 0.64070 0.07260-0.70482
   1   3  14 7898.60 1918.20   1 0.54183-0.31047-0.84013 0.63757 0.02420-0.70505
   1   3  1512105.11 3159.16   1 0.54963-0.31475-0.83511 0.63270-0.02193-0.70754
   1   3  1614467.42 3930.02   1 0.55598-0.31757-0.82856 0.62629-0.06613-0.71197
   1   3  17  309.12  563.43   1 0.56102-0.31910-0.82063 0.61851-0.10867-0.71806
   1   3  18  553.40  586.45   1 0.56490-0.31946-0.81145 0.60947-0.14977-0.72559
   1   3  19  614.13  577.94   1 0.82772-0.57875-0.53293 0.32904-0.17568-0.74618
  -1  -4  19 1319.31  782.20   1 0.63696-0.75017-0.34701 0.61889-0.68839-0.23286
  -1  -4  18 8081.01 2628.98   1 0.64183-0.75861-0.35107 0.62293-0.68177-0.19099
  -1  -4  17 2615.62 1049.86   1 0.64546-0.76580-0.35409 0.62594-0.67677-0.14751
  -1  -4  16 2790.93  841.28   1 0.64772-0.77163-0.35598 0.62781-0.67360-0.10218
  -1  -4  1516446.21 3137.73   1 0.64847-0.77595-0.35661 0.62843-0.67255-0.05475
  -1  -4  1413707.55 1872.02   1 0.64750-0.77854-0.35579 0.62759-0.67392-0.00489
  -1  -4  1337577.95 1797.35   1 0.64451-0.77911-0.35330 0.62507-0.67809 0.04776
  -1  -4  1236981.78 1456.48   1 0.63911-0.77728-0.34880 0.62057-0.68548 0.10363
  -1  -4  1179667.58 2194.49   1 0.63079-0.77253-0.34191 0.61366-0.69657 0.16321
  -1  -4  10 7693.41 2016.36   1 0.61883-0.76413-0.33207 0.60380-0.71189 0.22702
   1   4  -920654.04  923.59   1-0.10744 0.25640 0.63788-0.90990 0.76263-0.32618
  -1  -4   920557.99  967.75   1 0.60226-0.75113-0.31858 0.59029-0.73198 0.29560
   1   4  -842377.07 1163.55   1-0.06295 0.21547 0.62230-0.89426 0.78028-0.39232
  -1  -4   839013.38 1173.01   1 0.57977-0.73220-0.30049 0.57218-0.75735 0.36945
   1   4  -770949.37 1442.73   1-0.00814 0.16437 0.60040-0.87250 0.79968-0.46020
  -1  -4   771612.62 1544.23   1 0.54963-0.70563-0.27660 0.54827-0.78830 0.44889
   1   4  -641014.72 1579.41   1 0.05856 0.10124 0.57142-0.84347 0.81859-0.52760
  -1  -4   641847.43 1750.58   1 0.50849-0.66830-0.24517 0.51726-0.82543 0.53463
   1   4  -5177164.8 3781.87   1 0.13657 0.02682 0.53322-0.80522 0.83491-0.59241
  -1  -4   5177927.0 3871.90   1 0.45580-0.61914-0.20495 0.47697-0.86617 0.62384
   1   4  -4166688.0 3556.22   1 0.22361-0.05675 0.48479-0.75654 0.84559-0.65152
  -1  -4   4164630.3 3568.94   1 0.38743-0.55430-0.15396 0.42591-0.90896 0.71509
  -1  -4   4164736.1 3964.02   1 0.31755-0.48463-0.20842 0.48055-0.92505 0.73088
   1   4  -3118549.2 2640.96   1 0.31826-0.14782 0.42509-0.69687 0.84738-0.70183
  -1  -4   3114778.3 2574.33   1-0.04975-0.12060 0.61738-0.34565 0.78512-0.93060
  -1  -4   3123047.8 2753.99   1 0.30203-0.47249-0.09022 0.36203-0.94903 0.80355
  -1  -4   3125362.5 2979.89   1 0.26440-0.43505-0.11791 0.39001-0.95717 0.81155
   1   4  -242030.93 1580.71   1 0.41513-0.24098 0.35571-0.62759 0.83736-0.74035
  -1  -4   240595.91 1531.83   1 0.08604-0.26017 0.55850-0.28666 0.82506-0.92205
  -1  -4   242585.51 1731.12   1 0.19616-0.37018-0.01538 0.28715-0.98046 0.88348
   1   4  -238796.72 1470.76   1 0.46856-0.29462-0.21461-0.05720-0.85697 0.95391
  -1  -4   238452.66 1578.27   1 0.19968-0.37390-0.01261 0.28467-0.97978 0.88269
   1   4  -164049.17 1161.08   1 0.50797-0.33023 0.27915-0.55102 0.81491-0.76640
  -1  -4   162342.36 1165.71   1 0.21526-0.39286 0.48969-0.21783 0.84493-0.89345
   1   4  -161518.83 2126.74   1 0.35584-0.17837-0.13079-0.14096-0.92536 0.97382
   1   4   068370.66 1292.63   1 0.59361-0.41199 0.19946-0.47161 0.77967-0.77967
  -1  -4   066089.83 1205.21   1 0.33066-0.51185 0.41667-0.14476 0.84681-0.84681
   1   4   066452.32 1185.57   1 0.23279-0.05168-0.04103-0.23066-0.97167 0.97167
  -1  -4   068387.70 1373.49   1 0.04239-0.22377 0.22476 0.04734-0.97349 0.97349
   1   4   156887.65 2281.42   1 0.66709-0.48193 0.11909-0.39124 0.73542-0.78404
  -1  -4  -151824.25 2023.55   1 0.42828-0.61320 0.34549-0.07363 0.83502-0.78651
  -1  -4  -159125.16 2144.70   1-0.04161-0.14332 0.34250-0.07043-0.93859 0.98716
  -1  -4  -279601.46 2003.24   1-0.12255-0.06588 0.44943-0.17760-0.88487 0.98189
   1   4   3223498.1 4667.25   1 0.77784-0.58599-0.03077-0.24113 0.62774-0.77363
  -1  -4  -3227857.6 4785.48   1-0.19632 0.00431 0.54164-0.26982-0.81736 0.96290
   1   4   457628.89 2035.18   1 0.81555-0.62026-0.09794-0.17394 0.57037-0.76489
   1   4   457471.84 2230.31   1 0.23818-0.04272-0.63177 0.36011 0.73765-0.93193
   1   4   561361.05 2152.32   1 0.84368-0.64495-0.15915-0.11271 0.51274-0.75589
   1   4   564353.12 1950.72   1 0.29523-0.09623-0.69096 0.41936 0.65985-0.90270
   1   4   618533.43 1295.74   1 0.86268-0.66001-0.21515-0.05713 0.45773-0.74910
   1   4   620734.71 1583.96   1 0.34340-0.14084-0.73671 0.46517 0.58252-0.87394
   1   4   755319.45 1226.65   1 0.87624-0.67000-0.26512-0.00720 0.40242-0.74235
   1   4   755784.78 1659.48   1 0.38339-0.17683-0.77096 0.49887 0.50855-0.84844
   1   4   860805.80 1763.47   1 0.88435-0.67455-0.31032 0.03795 0.34879-0.73728
   1   4   861690.78 1819.85   1 0.41708-0.20695-0.79673 0.52465 0.43733-0.82578
   1   4   949865.41 1979.89   1 0.44524-0.23153-0.81541 0.54334 0.36994-0.80695
   1   4  10 2156.86 1029.19   1 0.46897-0.25143-0.82832 0.55606 0.30650-0.79219
   1   4  1112412.57 3130.31   1 0.48878-0.26766-0.83686 0.56461 0.24647-0.78074
   1   4  1210004.67 2914.62   1 0.50542-0.28074-0.84175 0.56952 0.18971-0.77254
   1   4  14 7274.71 2106.55   1 0.53029-0.29877-0.84381 0.57305 0.08226-0.76311
   1   4  15 9831.22 2462.45   1 0.54017-0.30513-0.84089 0.57028 0.03319-0.76267
   1   4  1614964.39 4195.59   1 0.54836-0.30980-0.83612 0.56565-0.01387-0.76423
   1   4  1723180.98 4881.66   1 0.55505-0.31297-0.82970 0.55938-0.05918-0.76755
   1   4  18 3373.19 1872.51   1 0.56040-0.31480-0.82179 0.55161-0.10296-0.77241
  -1  -5  18 8470.15 2897.67   1 0.61262-0.72938-0.32700 0.66675-0.71957-0.15319
  -1  -5  17 1983.60  840.91   1 0.61521-0.73553-0.32911 0.66885-0.71638-0.10789
   1   5 -16 2898.12 1624.61   1-0.09817 0.22209 0.63476-0.97501 0.76648 0.00943
  -1  -5  16 6599.45 1724.00   1 0.61627-0.74016-0.32998 0.66970-0.71508-0.06071
   1   5 -15 6587.02 2331.16   1-0.09545 0.22294 0.63383-0.97403 0.76759-0.04017
  -1  -5  1511386.17 2837.90   1 0.61561-0.74306-0.32944 0.66914-0.71590-0.01140
   1   5 -1429952.28 1260.37   1-0.08803 0.21908 0.63127-0.97142 0.77058-0.09166
  -1  -5  1428842.76 2335.72   1 0.61298-0.74400-0.32729 0.66698-0.71913 0.04031
   1   5 -1317863.33  922.28   1-0.07536 0.20999 0.62680-0.96690 0.77556-0.14513
  -1  -5  1318178.10  993.96   1 0.60807-0.74265-0.32329 0.66296-0.72509 0.09475
   1   5 -1228492.79 1335.24   1-0.05684 0.19503 0.62003-0.96009 0.78254-0.20061
  -1  -5  1229509.93 1442.62   1 0.60044-0.73858-0.31710 0.65675-0.73412 0.15228
   1   5 -11 6156.29  526.32   1-0.03225 0.17415 0.61005-0.95028 0.79174-0.25826
  -1  -5  11 5892.79 1411.04   1 0.58953-0.73124-0.30831 0.64794-0.74660 0.21324
   1   5 -1029793.11 1245.88   1 0.00017 0.14530 0.59697-0.93715 0.80229-0.31731
  -1  -5  1030319.16 1330.11   1 0.57461-0.71989-0.29637 0.63599-0.76289 0.27801
   1   5  -918446.25  858.72   1 0.04062 0.10844 0.57955-0.91968 0.81395-0.37747
  -1  -5   915444.70 1110.18   1 0.55473-0.70357-0.28061 0.62021-0.78329 0.34691
   1   5  -8164585.7 3685.93   1 0.08960 0.06303 0.55678-0.89686 0.82584-0.43785
  -1  -5   8160832.8 3752.60   1 0.52863-0.68104-0.26018 0.59976-0.80800 0.42011
   1   5  -781365.06 1565.68   1 0.14727 0.00894 0.52761-0.86764 0.83665-0.49716
  -1  -5   780953.59 1692.94   1 0.49364-0.64987-0.23375 0.57382-0.83767 0.49840
   1   5  -612776.54  966.97   1 0.21206-0.05240 0.49155-0.83119 0.84466-0.55356
  -1  -5   612900.37 1017.76   1 0.45019-0.60996-0.20072 0.54073-0.87009 0.57928
   1   5  -557798.45 1251.99   1 0.28509-0.12184 0.44691-0.78659 0.84796-0.60538
  -1  -5   562324.11 1365.58   1 0.39505-0.55835-0.15959 0.49953-0.90470 0.66236
  -1  -5   562219.46 1608.77   1 0.31863-0.48214-0.21031 0.55048-0.92425 0.68154
   1   5  -458704.44 2088.27   1 0.36268-0.19585 0.39425-0.73397 0.84444-0.65037
  -1  -5   461208.48 2207.25   1 0.32622-0.49305-0.10928 0.44916-0.93896 0.74509
  -1  -5   459629.24 2304.40   1 0.27746-0.44454-0.13978 0.47991-0.95051 0.75635
   1   5  -3 5436.70  752.76   1 0.44221-0.27165 0.33444-0.67429 0.83225-0.68672
  -1  -5   3 5499.41  616.20   1 0.24371-0.41416-0.04872 0.38845-0.96863 0.82316
  -1  -5   3 5515.87  524.04   1 0.22784-0.39849-0.05782 0.39791-0.97198 0.82635
   1   5  -2 8852.74  653.94   1 0.51910-0.34495 0.26922-0.60907 0.81123-0.71421
  -1  -5   2 9155.12  880.75   1 0.14494-0.31894 0.02006 0.31962-0.98925 0.89226
  -1  -5   2 8834.56  651.69   1 0.16980-0.34394 0.03408 0.30603-0.98489 0.88772
   1   5  -144577.43 1692.95   1 0.59089-0.41315 0.20074-0.54058 0.78140-0.73289
  -1  -5   150682.18 1956.17   1 0.10449-0.28225 0.13380 0.20629-0.98548 0.93690
   1   5   0 5421.58  433.25   1 0.65620-0.47457 0.13178-0.47197 0.74302-0.74302
  -1  -5   0 5152.47 1614.63   1 0.03413-0.21550 0.23662 0.10351-0.97100 0.97100
   1   5   174041.53 1848.20   1 0.71178-0.52660 0.06353-0.40371 0.69955-0.74817
  -1  -5  -172009.32 2183.79   1-0.03794-0.14699 0.33749 0.00260-0.94056 0.98913
   1   5   2114206.0 2609.30   1 0.75923-0.57084-0.00151-0.33839 0.65085-0.74811
  -1  -5  -2113447.1 2738.15   1-0.10866-0.07978 0.43146-0.09167-0.89556 0.99258
   1   5   373333.63 1837.06   1 0.79702-0.60518-0.06337-0.27652 0.60065-0.74655
  -1  -5  -372978.09 1998.87   1-0.17506-0.01695 0.51563-0.17585-0.83873 0.98427
   1   5   427146.09 1145.27   1 0.82685-0.63157-0.12099-0.21888 0.54928-0.74381
   1   5   535058.63 1021.36   1 0.84853-0.64946-0.17494-0.16531 0.49943-0.74224
   1   5   538045.40 1333.21   1 0.26578-0.06674-0.66101 0.32143 0.70172-0.94457
   1   5   6 5744.51  598.01   1 0.86537-0.66273-0.22383-0.11645 0.44840-0.73977
   1   5   6 5743.87  723.40   1 0.31411-0.11153-0.70939 0.36988 0.63094-0.92236
   1   5   717761.77 1333.67   1 0.87705-0.67084-0.26876-0.07157 0.39823-0.73816
   1   5   719783.73 1562.87   1 0.35555-0.14894-0.74743 0.40729 0.56117-0.90107
   1   5   887508.46 2258.91   1 0.88431-0.67454-0.31003-0.03034 0.34915-0.73764
   1   5   889463.77 3129.74   1 0.39138-0.18119-0.77737 0.43724 0.49245-0.88090
   1   5   913301.85 3139.10   1 0.42202-0.20825-0.80021 0.46009 0.42609-0.86309
   1   5  10122795.8 3352.70   1 0.44817-0.23083-0.81717 0.47707 0.36244-0.84801
   1   5  1114945.75 1397.71   1 0.47063-0.24940-0.82913 0.48878 0.30172-0.83599
   1   5  1275998.78 3035.05   1 0.48967-0.26487-0.83718 0.49685 0.24358-0.82642
   1   5  1314896.19 1320.62   1 0.50589-0.27752-0.84185 0.50153 0.18800-0.81941
   1   5  1413069.48 3201.72   1 0.51968-0.28774-0.84365 0.50335 0.13478-0.81476
   1   5  15 4847.87 1629.82   1 0.53043-0.29524-0.84378 0.50497 0.08158-0.81106
   1   5  1616027.64 2220.42   1 0.54033-0.30161-0.84083 0.50216 0.03235-0.81047
   1   5  17 1724.51  991.81   1 0.54856-0.30632-0.83597 0.49745-0.01513-0.81160
   1   5  18 1096.98  811.20   1 0.55531-0.30955-0.82939 0.49102-0.06107-0.81429
  -1  -6  18 4885.38 2310.42   1 0.57982-0.69655-0.30052 0.70817-0.75730-0.11546
  -1  -6  17 6931.48 2792.25   1 0.58127-0.70157-0.30168 0.70931-0.75573-0.06854
  -1  -6  16 8363.87 1547.66   1 0.58100-0.70486-0.30147 0.70908-0.75602-0.01977
  -1  -6  1558923.19 1972.36   1 0.57881-0.70623-0.29972 0.70731-0.75840 0.03109
   1   6 -1419383.83  949.51   1 0.04287 0.08827 0.57854-0.98685 0.81455-0.13558
  -1  -6  1420796.33 1222.46   1 0.57441-0.70541-0.29621 0.70378-0.76310 0.08428
   1   6 -13 1539.68  775.58   1 0.05952 0.07520 0.57098-0.97924 0.81883-0.18835
  -1  -6  13 1624.32  702.29   1 0.56747-0.70203-0.29069 0.69825-0.77038 0.14005
   1   6 -12  931.14  547.59   1 0.08205 0.05625 0.56041-0.96862 0.82417-0.24219
  -1  -6  12 1517.10  571.04   1 0.55754-0.69566-0.28283 0.69037-0.78049 0.19865
   1   6 -11 6055.95  501.18   1 0.11089 0.03099 0.54631-0.95448 0.83023-0.29675
  -1  -6  11 7468.90 1993.60   1 0.54403-0.68572-0.27220 0.67973-0.79369 0.26033
   1   6 -1031598.83 1130.36   1 0.14636-0.00089 0.52809-0.93621 0.83651-0.35152
  -1  -6  1032062.31 1324.54   1 0.52623-0.67148-0.25831 0.66581-0.81017 0.32530
   1   6  -922662.16  864.44   1 0.18860-0.03955 0.50509-0.91316 0.84223-0.40575
  -1  -6   922850.67 2311.35   1 0.50200-0.65113-0.24017 0.64830-0.83086 0.39465
   1   6  -8 2839.24  367.90   1 0.23610-0.08363 0.47736-0.88489 0.84642-0.45829
  -1  -6   8 2914.34  728.24   1 0.47268-0.62534-0.21775 0.62581-0.85391 0.46618
   1   6  -7 6607.69  507.78   1 0.29124-0.13519 0.44294-0.85051 0.84795-0.50834
  -1  -6   7 6281.95  529.36   1 0.43573-0.59192-0.18986 0.59786-0.87983 0.54056
   1   6  -650547.32 1192.04   1 0.35128-0.19164 0.40234-0.80996 0.84544-0.55434
  -1  -6   651064.85 1334.41   1 0.38968-0.54940-0.15562 0.56355-0.90772 0.61691
  -1  -6   652829.35 1632.66   1 0.31295-0.47289-0.20043 0.60862-0.92837 0.63713
   1   6  -514417.21 1049.74   1 0.41527-0.25189 0.35560-0.76343 0.83734-0.59479
  -1  -6   513723.18 1028.72   1 0.33304-0.49629-0.11421 0.52208-0.93598 0.69364
  -1  -6   514736.53 1230.28   1 0.27964-0.44315-0.14347 0.55163-0.94932 0.70662
   1   6  -4 7042.80  872.40   1 0.47945-0.31248 0.30380-0.71161 0.82333-0.62929
  -1  -6   4 6254.90  599.89   1 0.26605-0.43294-0.06454 0.47223-0.96180 0.76784
  -1  -6   4 6093.29  721.46   1 0.24001-0.40709-0.07764 0.48577-0.96766 0.77349
   1   6  -3162516.6 2285.08   1 0.54249-0.37193 0.24781-0.65562 0.80270-0.65718
  -1  -6   3163158.5 2471.11   1 0.18527-0.35570-0.00780 0.41545-0.98267 0.83719
  -1  -6   3163403.6 2757.87   1 0.19380-0.36432-0.00364 0.41179-0.98103 0.83528
   1   6  -260603.89 1268.30   1 0.60333-0.42878 0.18947-0.59772 0.77468-0.67744
  -1  -6   267107.01 1639.61   1 0.14130-0.31544 0.07811 0.33001-0.98688 0.88971
   1   6  -1 2850.98  330.50   1 0.65810-0.48000 0.12958-0.53783 0.74172-0.69310
  -1  -6   1 3604.22 1461.76   1 0.08348-0.26123 0.16502 0.24308-0.98275 0.93416
   1   6   035514.91  947.96   1 0.70683-0.52518 0.07000-0.47823 0.70394-0.70394
  -1  -6   035749.07 1135.40   1 0.02188-0.20324 0.25409 0.15406-0.96693 0.96693
   1   6   162336.97 1271.10   1 0.74994-0.56500 0.01236-0.42029 0.66142-0.71005
  -1  -6  -162996.92 1514.14   1-0.04118-0.14374 0.34192 0.06620-0.93882 0.98739
   1   6   2 8000.65  682.16   1 0.78550-0.59712-0.04347-0.36443 0.61736-0.71462
  -1  -6  -2 7287.89  669.85   1-0.10371-0.08474 0.42501-0.01725-0.89922 0.99625
   1   6   3 1605.21  427.66   1 0.81478-0.62295-0.09643-0.31144 0.57172-0.71762
  -1  -6  -3 1275.21  570.75   1-0.16353-0.02850 0.50132-0.09358-0.84966 0.99520
   1   6   416654.42 1205.98   1 0.83826-0.64299-0.14626-0.26161 0.52531-0.71984
  -1  -6  -415189.88 1228.40   1-0.21916 0.02355 0.56903-0.16130-0.79257 0.98662
   1   6   5117622.0 2001.06   1 0.85542-0.65639-0.19354-0.21472 0.48044-0.72325
   1   6   5117299.3 2562.87   1 0.24517-0.04610-0.63928 0.23173 0.72884-0.97168
   1   6   6 8206.70  911.52   1 0.86915-0.66655-0.23690-0.17140 0.43415-0.72551
   1   6   6 9575.31 2339.90   1 0.29228-0.08966-0.68801 0.28052 0.66423-0.95565
   1   6   715467.54 1011.22   1 0.87883-0.67266-0.27727-0.13107 0.38835-0.72828
   1   6   721705.80 1231.64   1 0.33402-0.12786-0.72815 0.32072 0.59851-0.93850
   1   6   864923.07 2200.51   1 0.37040-0.16016-0.76022 0.35204 0.53372-0.92217
   1   6   969865.53 2312.39   1 0.40239-0.18857-0.78590 0.37774 0.46949-0.90650
   1   6  1037979.35 1935.79   1 0.43020-0.21280-0.80579 0.39765 0.40695-0.89251
   1   6  1135562.15 1916.47   1 0.45444-0.23310-0.82061 0.41216 0.34652-0.88078
   1   6  1215046.96 1340.83   1 0.47530-0.25039-0.83132 0.42289 0.28806-0.87090
   1   6  1315564.11 1862.56   1 0.49330-0.26481-0.83843 0.43001 0.23170-0.86311
   1   6  14 1746.73  913.43   1 0.50878-0.27673-0.84242 0.43401 0.17737-0.85735
   1   6  15 6763.11 2103.50   1 0.52205-0.28642-0.84371 0.43532 0.12495-0.85349
   1   6  16 7398.26 2541.74   1 0.53240-0.29352-0.84339 0.43653 0.07235-0.85046
   1   6  1770758.89 3880.20   1 0.54201-0.29961-0.84005 0.43333 0.02323-0.84997
  -1  -7  17 5404.68 2097.02   1 0.54352-0.66379-0.27180 0.74732-0.79418-0.03009
  -1  -7  16 2476.16  803.59   1 0.54184-0.66568-0.27049 0.74598-0.79578 0.01998
  -1  -7  1521842.98 1993.88   1 0.53803-0.66543-0.26750 0.74298-0.79936 0.07205
  -1  -7  14 1941.79  713.74   1 0.53180-0.66277-0.26264 0.73810-0.80512 0.12630
   1   7 -1319850.74  904.04   1 0.19766-0.06312 0.49983-0.97513 0.84330-0.21259
  -1  -7  1320720.59 1110.21   1 0.52279-0.65733-0.25564 0.73108-0.81323 0.18290
   1   7 -1215266.48  777.57   1 0.22198-0.08386 0.48576-0.96110 0.84546-0.26327
  -1  -7  1213916.77 3273.79   1 0.50926-0.64774-0.24576 0.72201-0.82478 0.24317
   1   7 -1125486.47  985.37   1 0.25182-0.11012 0.46781-0.94320 0.84722-0.31354
  -1  -7  1123344.05 1100.84   1 0.49322-0.63523-0.23342 0.70961-0.83801 0.30487
   1   7 -1058905.05 2078.79   1 0.28710-0.14182 0.44562-0.92104 0.84796-0.36280
  -1  -7  1060918.12 2420.83   1 0.47269-0.61824-0.21775 0.69387-0.85391 0.36924
   1   7  -935078.53 1183.37   1 0.32749-0.17863 0.41883-0.89430 0.84698-0.41033
  -1  -7   936905.24 1550.56   1 0.44685-0.59593-0.19821 0.67426-0.87238 0.43618
   1   7  -8129039.1 2743.88   1 0.37238-0.21993 0.38726-0.86277 0.84345-0.45532
  -1  -7   8125468.2 2903.13   1 0.41473-0.56734-0.17418 0.65016-0.89313 0.50539
  -1  -7   8124023.9 3213.40   1 0.32610-0.47890-0.22337 0.69964-0.91856 0.53024
   1   7  -724252.22  989.37   1 0.42180-0.26560 0.35055-0.82635 0.83621-0.49664
  -1  -7   724477.79 1320.56   1 0.37527-0.53141-0.14501 0.62093-0.91551 0.57624
  -1  -7   725274.58 1198.29   1 0.30281-0.45918-0.18291 0.65914-0.93533 0.59554
   1   7  -631673.47 1092.68   1 0.47243-0.31264 0.30971-0.78550 0.82519-0.53413
  -1  -7   633464.92 1264.86   1 0.32735-0.48702-0.11009 0.58595-0.93848 0.64767
  -1  -7   635007.62 1622.00   1 0.27504-0.43499-0.13572 0.61192-0.95180 0.66056
   1   7  -5 6329.93 1054.78   1 0.52395-0.36057 0.26485-0.74064 0.80955-0.56700
  -1  -7   5 7541.60 1773.93   1 0.27154-0.43487-0.06845 0.54410-0.96000 0.71754
  -1  -7   5 5847.59  619.90   1 0.24237-0.40589-0.08152 0.55768-0.96675 0.72404
   1   7  -4 5008.87  435.92   1 0.57484-0.40787 0.21679-0.69257 0.78905-0.59501
  -1  -7   4 5726.93 1288.77   1 0.20409-0.37096-0.02091 0.49652-0.97874 0.78477
  -1  -7   4 5165.50 1828.48   1 0.20453-0.37162-0.02034 0.49647-0.97864 0.78448
   1   7  -329190.48 1382.47   1 0.62480-0.45378 0.16676-0.64306 0.76279-0.61693
  -1  -7   329356.59 1166.74   1 0.16148-0.33200 0.04701 0.42915-0.98575 0.84000
   1   7  -214680.30 1102.59   1 0.67030-0.49573 0.11530-0.59159 0.73311-0.63587
  -1  -7   214312.97 1167.55   1 0.11362-0.28775 0.12011 0.35603-0.98623 0.88906
   1   7  -115060.84 1105.34   1 0.71168-0.53356 0.06366-0.53994 0.69964-0.65102
  -1  -7   114888.39 1178.04   1 0.06172-0.23946 0.19692 0.27921-0.97847 0.92989
   1   7   019713.24 1378.12   1 0.74937-0.56789 0.01319-0.48912 0.66204-0.66204
  -1  -7   020039.14 1524.50   1 0.00691-0.18827 0.27526 0.20092-0.96134 0.96134
   1   7   157606.16 1292.08   1 0.78129-0.59636-0.03644-0.43947 0.62313-0.67176
  -1  -7  -158789.43 1560.19   1-0.04911-0.13581 0.35271 0.12344-0.93444 0.98301
   1   7   247892.62 1221.33   1 0.80842-0.62004-0.08422-0.39167 0.58258-0.67984
  -1  -7  -248125.01 1445.90   1-0.10500-0.08345 0.42669 0.04902-0.89828 0.99530
   1   7   370434.12 1525.33   1 0.83097-0.63915-0.12985-0.34602 0.54098-0.68687
  -1  -7  -374133.16 1739.75   1-0.15912-0.03290 0.49582-0.02012-0.85371 0.99925
   1   7   433093.78 1158.46   1 0.84812-0.65269-0.17390-0.30232 0.50048-0.69472
  -1  -7  -436015.66 1612.54   1-0.21031 0.01470 0.55849-0.08279-0.80240 0.99645
   1   7   552606.21 1629.03   1 0.86256-0.66356-0.21475-0.26151 0.45815-0.70096
   1   7   551780.76 1931.62   1 0.23193-0.03283-0.62499 0.14946 0.74537-0.98822
   1   7   6 5287.19 1227.28   1 0.87345-0.67088-0.25328-0.22303 0.41589-0.70726
   1   7   6 4726.99  716.04   1 0.27707-0.07442-0.67266 0.19719 0.68611-0.97753
   1   7   737054.45 1405.88   1 0.88114-0.67500-0.28955-0.18679 0.37387-0.71380
   1   7   738755.78 1703.50   1 0.31790-0.11171-0.71302 0.23761 0.62492-0.96491
   1   7   829922.34 1611.15   1 0.35421-0.14391-0.74626 0.27003 0.56358-0.95203
   1   7   9 8958.54 2288.01   1 0.38668-0.17280-0.77362 0.29741 0.50197-0.93897
   1   7  10 4281.33 1414.71   1 0.41536-0.19791-0.79549 0.31930 0.44119-0.92675
   1   7  11 5056.88 1945.74   1 0.44059-0.21955-0.81253 0.33635 0.38166-0.91578
   1   7  1248176.64 2931.20   1 0.46285-0.23782-0.82520 0.34867 0.32373-0.90657
   1   7  13 6846.01 1586.62   1 0.48216-0.25356-0.83430 0.35778 0.26731-0.89872
   1   7  1430435.48 5414.21   1 0.49897-0.26680-0.84015 0.36364 0.21253-0.89251
   1   7  1518611.51 4065.05   1 0.51352-0.27778-0.84314 0.36665 0.15937-0.88792
   1   7  1619728.15 2054.35   1 0.52605-0.28673-0.84360 0.36712 0.10776-0.88487
   1   7  17 1020.84  765.83   1 0.53579-0.29323-0.84250 0.36758 0.05580-0.88254
  -1  -8  17 9599.22 3153.77   1 0.50053-0.62130-0.23903 0.78354-0.83207 0.00813
  -1  -8  16 3481.24  970.56   1 0.49737-0.62168-0.23661 0.78104-0.83466 0.05918
  -1  -8  1515611.33 1217.51   1 0.49189-0.61973-0.23241 0.77678-0.83907 0.11206
  -1  -8  14 8828.77 1712.81   1 0.48381-0.61518-0.22622 0.77053-0.84544 0.16690
  -1  -8  13 2286.60  924.30   1 0.47274-0.60765-0.21779 0.76203-0.85387 0.22380
  -1  -8  1233216.49 1794.67   1 0.45826-0.59669-0.20681 0.75098-0.86443 0.28283
   1   8 -11 1886.65  848.64   1 0.38831-0.24664 0.37557-0.91893 0.84155-0.30787
  -1  -8  11 3137.37 1110.62   1 0.43981-0.58178-0.19292 0.73703-0.87713 0.34399
   1   8 -1024587.17  980.59   1 0.42122-0.27579 0.35100-0.89478 0.83631-0.35122
  -1  -8  1023099.41 1119.54   1 0.41678-0.56229-0.17570 0.71975-0.89187 0.40720
  -1  -8  1024143.06 1380.06   1 0.32624-0.47191-0.22363 0.76796-0.91845 0.43304
   1   8  -941512.00 1589.14   1 0.45615-0.30713 0.32317-0.86695 0.82917-0.39259
  -1  -8   942839.93 1773.69   1 0.38844-0.53748-0.15471 0.69868-0.90840 0.47220
  -1  -8   941866.67 2048.21   1 0.30944-0.45867-0.19435 0.73864-0.93084 0.49398
   1   8  -825393.19  925.48   1 0.49382-0.34121 0.29151-0.83528 0.81927-0.43119
  -1  -8   825414.90 1056.50   1 0.35399-0.50656-0.12944 0.67335-0.92626 0.53852
  -1  -8   825584.62 1301.24   1 0.28940-0.44220-0.15998 0.70424-0.94374 0.55541
   1   8  -723009.87 2273.96   1 0.53332-0.37712 0.25630-0.80007 0.80618-0.46661
  -1  -8   721967.77  951.07   1 0.31423-0.47044-0.09900 0.64264-0.94418 0.60474
  -1  -8   723332.24 1202.71   1 0.26576-0.42213-0.12018 0.66441-0.95651 0.61673
   1   8  -6 3909.76  384.47   1 0.57364-0.41384 0.21797-0.76174 0.78960-0.49854
  -1  -8   6 4350.70 1237.93   1 0.26512-0.42488-0.06388 0.60749-0.96211 0.67115
  -1  -8   6 4711.02 1240.34   1 0.23820-0.39815-0.07469 0.61888-0.96833 0.67709
   1   8  -565332.91 1700.33   1 0.61502-0.45108 0.17722-0.72158 0.76836-0.52526
  -1  -8   562835.04 1746.19   1 0.20767-0.37098-0.02341 0.56699-0.97793 0.73547
  -1  -8   561784.80 2386.59   1 0.20648-0.37000-0.02345 0.56761-0.97816 0.73546
   1   8  -466471.04 1913.93   1 0.65380-0.48631 0.13453-0.67888 0.74464-0.55016
  -1  -8   462871.96 2052.69   1 0.14168-0.30853 0.02231 0.52122-0.98967 0.79570
  -1  -8   463072.28 2199.09   1 0.17049-0.33739 0.03299 0.51120-0.98480 0.79046
   1   8  -377266.99 2142.17   1 0.69054-0.51950 0.09069-0.63503 0.71761-0.57175
  -1  -8   374816.28 2397.85   1 0.13034-0.30085 0.09482 0.44935-0.98692 0.84117
   1   8  -258143.81 1780.03   1 0.72458-0.54999 0.04641-0.59074 0.68765-0.59042
  -1  -8   261857.78 2063.24   1 0.08640-0.26053 0.16069 0.38346-0.98321 0.88604
   1   8  -1194774.2 4336.02   1 0.75639-0.57836 0.00277-0.54671 0.65415-0.60552
  -1  -8   1195389.0 2980.36   1 0.03920-0.21699 0.22934 0.31490-0.97255 0.92398
   1   8   049194.45 1631.13   1 0.78385-0.60238-0.04070-0.50322 0.61964-0.61964
  -1  -8   049005.11 1762.43   1-0.01003-0.17132 0.29898 0.24523-0.95420 0.95420
   1   8   1 4333.57 1027.88   1 0.80781-0.62289-0.08308-0.46082 0.58358-0.63222
  -1  -8  -1 4886.25 1378.71   1-0.06040-0.12452 0.36797 0.17621-0.92787 0.97644
   1   8   253582.17 1603.14   1 0.82831-0.63994-0.12408-0.41980 0.54639-0.64366
  -1  -8  -254207.83 1825.39   1-0.11083-0.07763 0.43427 0.10940-0.89393 0.99096
   1   8   3 8161.28  631.20   1 0.84546-0.65364-0.16352-0.38034 0.50842-0.65432
  -1  -8  -3 9730.34 2449.66   1-0.16006-0.03197 0.49700 0.04667-0.85286 0.99840
   1   8   4 4218.07 1021.30   1 0.85836-0.66296-0.20200-0.34223 0.47164-0.66588
  -1  -8  -4 3998.73 1137.73   1-0.20718 0.01156 0.55473-0.01107-0.80582 0.99987
   1   8   552674.35 1568.75   1 0.86945-0.67048-0.23797-0.30630 0.43297-0.67578
   1   8   551524.44 1906.89   1 0.22471-0.02558-0.61710 0.07359 0.75411-0.99696
   1   8   622519.92  928.71   1 0.87779-0.67525-0.27222-0.27209 0.39422-0.68559
   1   8   624157.37 1271.23   1 0.26755-0.06487-0.66286 0.11941 0.69930-0.99072
   1   8   712136.72  776.32   1 0.88359-0.67748-0.30480-0.23956 0.35553-0.69546
   1   8   712431.70 1378.69   1 0.30694-0.10071-0.70246 0.15908 0.64212-0.98211
   1   8   817172.62 1161.80   1 0.34276-0.13299-0.73613 0.19281 0.58362-0.97218
   1   8   913475.29 1560.59   1 0.37487-0.16094-0.76396 0.21970 0.52519-0.96220
   1   8  1023448.40 1432.16   1 0.40381-0.18630-0.78698 0.24273 0.46647-0.95203
   1   8  1112759.66 3838.36   1 0.42960-0.20851-0.80539 0.26116 0.40838-0.94250
   1   8  12 5273.29 2282.61   1 0.45263-0.22748-0.81957 0.27493 0.35132-0.93416
   1   8  1314975.40 3628.84   1 0.47283-0.24411-0.83018 0.28556 0.29534-0.92674
   1   8  14 1931.70  862.47   1 0.49059-0.25830-0.83751 0.29290 0.24061-0.92059
   1   8  15 5984.20 1731.97   1 0.50612-0.27026-0.84190 0.29731 0.18718-0.91573
  -1  -9  16 3799.49 1076.49   1 0.45017-0.57444-0.20071 0.81307-0.87010 0.09462
  -1  -9  15 2136.83 1457.82   1 0.44303-0.57083-0.19534 0.80763-0.87497 0.14796
  -1  -9  13 1953.70 1152.39   1 0.42006-0.55492-0.17815 0.79031-0.88985 0.25977
  -1  -9  1223101.70 4055.65   1 0.40345-0.54185-0.16580 0.77790-0.89986 0.31825
  -1  -9  1222560.77 2189.43   1 0.31782-0.45635-0.20890 0.82129-0.92485 0.34236
  -1  -9  11 4502.66 1104.20   1 0.38280-0.52472-0.15055 0.76258-0.91149 0.37835
  -1  -9  11 3150.51 1742.02   1 0.30554-0.44764-0.18761 0.79998-0.93351 0.39956
  -1  -9  1018071.02 1341.40   1 0.35754-0.50300-0.13203 0.74400-0.92453 0.43985
  -1  -9  1018956.98 1229.48   1 0.29081-0.43648-0.16238 0.77471-0.94290 0.45749
  -1  -9   923610.63 1111.59   1 0.32707-0.47606-0.10989 0.72179-0.93860 0.50239
  -1  -9   923195.39 1375.54   1 0.27337-0.42261-0.13291 0.74520-0.95268 0.51581
   1   9  -813930.60 1142.12   1 0.59843-0.44512 0.19452-0.80695 0.77722-0.38827
  -1  -9   814445.42  878.74   1 0.29246-0.44511-0.08337 0.69497-0.95264 0.56471
  -1  -9   814781.16 1441.47   1 0.25295-0.40576-0.09892 0.71118-0.96240 0.57408
   1   9  -713265.97 1681.46   1 0.62844-0.47157 0.16282-0.77524 0.76065-0.42032
  -1  -9   712785.75  733.32   1 0.24969-0.40589-0.05295 0.66452-0.96689 0.62744
  -1  -9   712269.29  916.58   1 0.22932-0.38569-0.06022 0.67245-0.97148 0.63170
   1   9  -630672.20 1278.47   1 0.65862-0.49821 0.12898-0.74139 0.74136-0.44964
  -1  -9   629051.23 1352.21   1 0.19994-0.35969-0.01801 0.62955-0.97965 0.68870
  -1  -9   631393.37 1622.19   1 0.20226-0.36221-0.01672 0.62891-0.97918 0.68794
   1   9  -534000.11 1416.61   1 0.68830-0.52434 0.09347-0.70587 0.71940-0.47630
  -1  -9   531770.38 1671.89   1 0.14293-0.30623 0.02144 0.59005-0.98951 0.74705
  -1  -9   531750.71 1601.81   1 0.17166-0.33494 0.03117 0.58106-0.98466 0.74174
   1   9  -420703.45 1082.75   1 0.71686-0.54935 0.05680-0.66919 0.69492-0.50044
  -1  -9   419015.79 1634.25   1 0.13751-0.30441 0.08390 0.52831-0.98694 0.79260
   1   9  -319346.99 1664.05   1 0.74380-0.57273 0.01947-0.63185 0.66815-0.52229
  -1  -9   319405.08 1124.14   1 0.09999-0.27050 0.14053 0.47166-0.98501 0.83926
   1   9  -283319.14 2032.47   1 0.76962-0.59504-0.01759-0.59435 0.63829-0.54103
  -1  -9   283043.89 2398.81   1 0.05943-0.23355 0.20024 0.41193-0.97794 0.88077
   1   9  -158005.44 1967.43   1 0.79225-0.61423-0.05500-0.55692 0.60774-0.55911
  -1  -9   155646.58 1867.83   1 0.01626-0.19405 0.26205 0.35022-0.96491 0.91634
   1   9   028733.37 1234.86   1 0.81245-0.63098-0.09191-0.51999 0.57577-0.57577
  -1  -9   029276.30 1795.73   1-0.02849-0.15285 0.32453 0.28770-0.94544 0.94544
   1   9   142702.96 1510.43   1 0.83015-0.64524-0.12806-0.48382 0.54266-0.59129
  -1  -9  -137905.51 1765.65   1-0.07420-0.11070 0.38647 0.22572-0.91930 0.96788
   1   9   212339.16  811.07   1 0.84536-0.65700-0.16327-0.44860 0.50867-0.60593
  -1  -9  -214868.35 2087.39   1-0.12007-0.06839 0.44623 0.16541-0.88682 0.98385
   1   9   336619.54 1578.65   1 0.85704-0.66524-0.19815-0.41405 0.47565-0.62134
  -1  -9  -339857.81 1538.03   1-0.16509-0.02695 0.50327 0.10835-0.84820 0.99374
   1   9   417903.70 1318.90   1 0.86750-0.67213-0.23105-0.38119 0.44056-0.63481
  -1  -9  -419858.43 1048.88   1-0.20854 0.01292 0.55637 0.05524-0.80433 0.99839
   1   9   5 2096.18  663.84   1 0.87570-0.67677-0.26274-0.34954 0.40515-0.64795
   1   9   5 2138.57  744.80   1 0.22239-0.02322-0.61455 0.00306 0.75687-0.99972
   1   9   635347.21 1565.06   1 0.88177-0.67927-0.29319-0.31913 0.36953-0.66090
   1   9   638013.70 2765.72   1 0.26285-0.06013-0.65796 0.04654 0.70568-0.99710
   1   9   7 7415.62 2874.00   1 0.30051-0.09425-0.69617 0.08481 0.65194-0.99192
   1   9   8 6148.38 1455.81   1 0.33521-0.12541-0.72924 0.11795 0.59651-0.98506
   1   9   9 3827.90 1228.03   1 0.36676-0.15277-0.75713 0.14483 0.54058-0.97759
   1   9  10 2461.62 1256.39   1 0.39550-0.17793-0.78060 0.16831 0.48397-0.96954
   1   9  1149433.23 2131.35   1 0.42140-0.20025-0.79978 0.18750 0.42751-0.96163
   1   9  1231422.71 2989.79   1 0.44462-0.21989-0.81502 0.20276 0.37154-0.95422
   1   9  13 4974.64 1607.87   1 0.46549-0.23666-0.82657 0.21385 0.31635-0.94776
   1   9  14 4363.15 2038.61   1 0.48387-0.25147-0.83499 0.22228 0.26201-0.94199
   1   9  15 2037.03 1484.28   1 0.50008-0.26411-0.84045 0.22776 0.20866-0.93721
  -1 -10  15 2611.58 1169.75   1 0.39016-0.51792-0.15597 0.83619-0.90745 0.18044
  -1 -10  14 7281.73  748.14   1 0.37848-0.50977-0.14737 0.82752-0.91381 0.23527
  -1 -10  14 8036.38 1051.28   1 0.30299-0.43438-0.18322 0.86369-0.93521 0.25564
  -1 -10  1318095.47 1314.83   1 0.36355-0.49837-0.13642 0.81651-0.92154 0.29147
  -1 -10  1318007.66 1521.05   1 0.29412-0.42908-0.16802 0.84845-0.94088 0.30985
  -1 -10  12 2208.85 1356.18   1 0.34498-0.48333-0.12288 0.80290-0.93054 0.34893
  -1 -10  12 2494.79 2024.63   1 0.28330-0.42183-0.14965 0.83004-0.94728 0.36479
  -1 -10  11 5100.94  672.73   1 0.32234-0.46422-0.10647 0.78643-0.94063 0.40749
  -1 -10  11 5703.32  739.25   1 0.27036-0.41246-0.12787 0.80823-0.95423 0.42028
  -1 -10  10 2883.83  947.94   1 0.29694-0.44247-0.08657 0.76617-0.95097 0.46605
  -1 -10  10 3050.96 1228.36   1 0.25509-0.40076-0.10245 0.78278-0.96147 0.47606
  -1 -10   9 1387.06  869.31   1 0.26473-0.41382-0.06360 0.74317-0.96223 0.52580
  -1 -10   9 1750.32  779.70   1 0.23729-0.38653-0.07321 0.75350-0.96867 0.53180
  -1 -10   8 9372.54  686.07   1 0.22700-0.37963-0.03696 0.71649-0.97320 0.58527
  -1 -10   8 9284.28 1323.14   1 0.21679-0.36960-0.03997 0.72023-0.97540 0.58707
   1  10  -719779.02 2011.64   1 0.70533-0.54845 0.07194-0.75239 0.70524-0.36491
  -1 -10   719579.25 1077.22   1 0.18333-0.33952-0.00645 0.68595-0.98304 0.64359
  -1 -10   719323.16 1183.27   1 0.19343-0.34947-0.00306 0.68334-0.98111 0.64101
   1  10  -6 4267.97 1140.27   1 0.72662-0.56619 0.04362-0.72407 0.68568-0.39396
  -1 -10   6 5862.74 1439.12   1 0.16705-0.32671 0.03835 0.64190-0.98520 0.69369
   1  10  -5 9892.32 1209.76   1 0.74844-0.58421 0.01456-0.69456 0.66307-0.41992
  -1 -10   5 8259.47 1024.79   1 0.13765-0.30092 0.08369 0.59655-0.98693 0.74401
   1  10  -414608.73  990.64   1 0.76860-0.60093-0.01598-0.66399 0.63956-0.44504
  -1 -10   414994.72 2341.30   1 0.10529-0.27218 0.13261 0.54761-0.98556 0.79122
   1  10  -3 6008.88 1102.37   1 0.78766-0.61654-0.04711-0.63284 0.61434-0.46844
  -1 -10   3 6468.32 1807.89   1 0.07014-0.24065 0.18462 0.49559-0.98030 0.83455
   1  10  -2 4445.33  833.38   1 0.80536-0.63079-0.07850-0.60143 0.58759-0.49033
  -1 -10   2 4190.64 1243.40   1 0.03237-0.20658 0.23913 0.44120-0.97044 0.87330
   1  10  -125387.57  953.02   1 0.82151-0.64350-0.10989-0.57003 0.55953-0.51090
  -1 -10   125653.93 1247.87   1-0.00718-0.17059 0.29502 0.38528-0.95546 0.90689
   1  10   0 3162.74  867.62   1 0.83599-0.65453-0.14103-0.53886 0.53034-0.53034
  -1 -10   0 3729.31 1202.21   1-0.04819-0.13315 0.35146 0.32881-0.93496 0.93496
   1  10   1  953.30  331.31   1 0.84761-0.66298-0.17257-0.50755 0.50181-0.55037
  -1 -10  -1  760.34  273.00   1-0.08998-0.09492 0.40741 0.27282-0.90880 0.95737
   1  10   245861.71 1791.19   1 0.85861-0.67041-0.20271-0.47745 0.47089-0.56801
  -1 -10  -243808.07 1918.41   1-0.13198-0.05650 0.46151 0.21810-0.87726 0.97429
   1  10   314415.87 2779.16   1 0.86782-0.67605-0.23216-0.44804 0.43934-0.58503
  -1 -10  -315485.44 1061.00   1-0.17334-0.01871 0.51350 0.16609-0.84039 0.98593
   1  10   4 2371.81  776.56   1 0.87527-0.67994-0.26086-0.41938 0.40729-0.60153
  -1 -10  -4 2490.76 1020.35   1-0.21351 0.01788 0.56231 0.11727-0.79888 0.99294
   1  10   520457.72 1375.13   1 0.88100-0.68210-0.28875-0.39154 0.37483-0.61764
   1  10   521761.28 1794.59   1 0.22409-0.02489-0.61642-0.06303 0.75485-0.99770
   1  10   626919.63 1664.45   1 0.26219-0.05944-0.65727-0.02212 0.70656-0.99798
   1  10   723701.86 1478.03   1 0.29802-0.09173-0.69372 0.01438 0.65569-0.99568
   1  10   814819.82 1160.28   1 0.33138-0.12154-0.72570 0.04642 0.60294-0.99150
   1  10   9 9529.01 1082.28   1 0.36207-0.14802-0.75311 0.07276 0.54929-0.98630
   1  10  10 4025.23 1580.02   1 0.39027-0.17265-0.77649 0.09615 0.49471-0.98027
   1  10  11 4668.90 3235.64   1 0.41594-0.19474-0.79591 0.11559 0.43990-0.97402
   1  10  12 8009.09 1060.59   1 0.43916-0.21438-0.81163 0.13132 0.38520-0.96788
   1  10  13 5734.26 2479.55   1 0.46024-0.23129-0.82381 0.14299 0.33091-0.96231
   1  10  14 1649.80  808.20   1 0.47894-0.24642-0.83294 0.15213 0.27717-0.95714
  -1 -11  14 2145.16 1792.28   1 0.31991-0.45115-0.10471 0.85279-0.94165 0.26311
  -1 -11  13 1501.68 1084.42   1 0.30508-0.43996-0.09242 0.84004-0.94784 0.31744
  -1 -11  12 9734.03 1267.67   1 0.28477-0.42319-0.07787 0.82546-0.95544 0.37353
  -1 -11  1210893.30 1180.15   1 0.24815-0.38668-0.09100 0.83939-0.96443 0.38195
  -1 -11  1123188.12 1473.58   1 0.26042-0.40239-0.06054 0.80810-0.96360 0.43019
  -1 -11  1124016.87 1752.98   1 0.23475-0.37685-0.06906 0.81742-0.96959 0.43565
  -1 -11  1011443.39  796.78   1 0.23164-0.37716-0.04022 0.78774-0.97198 0.48706
  -1 -11  1011377.03 1083.58   1 0.21917-0.36484-0.04381 0.79213-0.97470 0.48929
  -1 -11   9 6322.27  585.99   1 0.19805-0.34713-0.01670 0.76419-0.98006 0.54363
  -1 -11   9 5273.09 1902.85   1 0.20125-0.35049-0.01511 0.76340-0.97942 0.54255
  -1 -11   8 9088.94 1403.74   1 0.15933-0.31195 0.01015 0.73729-0.98718 0.59925
  -1 -11   8 9048.20 2519.81   1 0.18089-0.33331 0.01671 0.73160-0.98336 0.59468
  -1 -11   712397.02 1011.32   1 0.15795-0.31398 0.05249 0.69580-0.98605 0.64596
  -1 -11   6 1754.40  905.80   1 0.13239-0.29204 0.09172 0.65656-0.98694 0.69544
   1  11  -511309.77 1057.98   1 0.79563-0.63141-0.06091-0.68707 0.60275-0.35959
  -1 -11   512610.11 2172.22   1 0.10423-0.26750 0.13419 0.61407-0.98545 0.74253
   1  11  -4 3067.01  807.84   1 0.80908-0.64141-0.08547-0.66249 0.58148-0.38696
  -1 -11   4 3483.20  965.37   1 0.07357-0.24046 0.17959 0.56865-0.98098 0.78664
   1  11  -3 1056.52  375.36   1 0.82193-0.65082-0.11074-0.63721 0.55875-0.41286
  -1 -11   3 1344.32  729.34   1 0.04040-0.21104 0.22763 0.52077-0.97291 0.82719
   1  11  -215917.97 2826.86   1 0.83397-0.65941-0.13647-0.61145 0.53470-0.43744
  -1 -11   215807.72 1740.19   1 0.00544-0.17965 0.27732 0.47104-0.96076 0.86362
   1  11  -1 5483.47 1157.31   1 0.84503-0.66703-0.16246-0.58545 0.50947-0.46084
  -1 -11   1 4862.61 1668.45   1-0.03114-0.14662 0.32818 0.42015-0.94410 0.89553
   1  11   0 5936.98 1477.21   1 0.85390-0.67287-0.18930-0.55879 0.48482-0.48482
  -1 -11   0 5407.37 1060.54   1-0.06892-0.11241 0.37941 0.36888-0.92265 0.92265
   1  11   1 7834.58 1951.48   1 0.86271-0.67811-0.21524-0.53289 0.45763-0.50620
  -1 -11  -1 7953.22 1057.84   1-0.10742-0.07749 0.42984 0.31774-0.89649 0.94500
   1  11   277868.42 2091.89   1 0.87026-0.68210-0.24095-0.50722 0.42967-0.52680
  -1 -11  -276823.18 2420.67   1-0.14601-0.04246 0.47934 0.26822-0.86539 0.96242
   1  11   3 1777.97  659.65   1 0.87651-0.68478-0.26632-0.48189 0.40104-0.54672
  -1 -11  -3 1623.78  931.31   1-0.18418-0.00788 0.52684 0.22071-0.82976 0.97530
   1  11   421527.30 1138.81   1 0.88144-0.68614-0.29128-0.45697 0.37182-0.56606
  -1 -11  -416437.98 1025.40   1-0.22141 0.02577 0.57169 0.17585-0.79002 0.98408
   1  11   5 8608.91 2363.37   1 0.22913-0.02989-0.62193-0.12550 0.74879-0.99164
   1  11   616464.72 1256.35   1 0.26496-0.06218-0.66017-0.08720 0.70283-0.99424
   1  11   7 2514.31  601.14   1 0.29893-0.09261-0.69462-0.05269 0.65432-0.99430
   1  11   815739.80 2112.59   1 0.33083-0.12096-0.72519-0.02205 0.60385-0.99241
   1  11   919513.88 2043.44   1 0.36048-0.14638-0.75173 0.00334 0.55221-0.98922
   1  11  10 5035.67 3132.38   1 0.38791-0.17024-0.77461 0.02623 0.49949-0.98505
   1  11  11 5548.61 1076.83   1 0.41309-0.19184-0.79385 0.04548 0.44625-0.98037
   1  11  12 7299.66 4575.74   1 0.43606-0.21122-0.80964 0.06129 0.39283-0.97551
  -1 -12  1117024.77 1208.15   1 0.19342-0.33538-0.01347 0.82895-0.98103 0.44762
  -1 -12  1117404.51 2495.52   1 0.19879-0.34089-0.01119 0.82755-0.97997 0.44603
  -1 -12  10  386.01  687.40   1 0.16336-0.30887 0.00737 0.80807-0.98655 0.50163
  -1 -12  10  997.46 1283.50   1 0.18312-0.32830 0.01322 0.80315-0.98300 0.49715
  -1 -12   9  188.37  280.59   1 0.16525-0.31405 0.04116 0.77519-0.98539 0.54813
  -1 -12   8 1217.43  591.64   1 0.14516-0.29757 0.07220 0.74413-0.98677 0.59809
  -1 -12   7 3123.64  928.63   1 0.12278-0.27881 0.10629 0.71001-0.98672 0.64663
  -1 -12   610848.85  935.62   1 0.09811-0.25776 0.14332 0.67297-0.98480 0.69329
  -1 -12   513224.48 2749.86   1 0.07121-0.23447 0.18306 0.63322-0.98052 0.73759
  -1 -12   411085.36 2536.73   1 0.04194-0.20901 0.22541 0.59106-0.97336 0.77907
   1  12  -335725.14 1295.49   1 0.84747-0.67717-0.17222-0.64375 0.50216-0.35648
  -1 -12   333615.22 1560.81   1 0.01100-0.18164 0.26949 0.54694-0.96294 0.81722
   1  12  -226175.59 1110.17   1 0.85517-0.68130-0.19282-0.62319 0.48119-0.38406
  -1 -12   226764.25 1376.01   1-0.02161-0.15258 0.31505 0.50134-0.94882 0.85168
   1  12  -1 3644.63 1299.14   1 0.86230-0.68487-0.21395-0.60210 0.45901-0.41045
  -1 -12   1 4786.03 1375.57   1-0.05560-0.12216 0.36149 0.45486-0.93071 0.88214
   1  12   033806.58 1381.97   1 0.86874-0.68775-0.23543-0.58066 0.43576-0.43576
  -1 -12   032263.46 1514.48   1-0.09056-0.09076 0.40818 0.40814-0.90839 0.90839
   1  12   123941.67 1369.82   1 0.87439-0.68982-0.25712-0.55901 0.41154-0.46010
  -1 -12  -123221.83 2271.65   1-0.12615-0.05876 0.45404 0.36150-0.88200 0.93051
   1  12   2  551.24  317.21   1 0.87915-0.69102-0.27888-0.53729 0.38646-0.48359
  -1 -12  -2  586.66  435.10   1-0.16182-0.02667 0.49919 0.31634-0.85124 0.94827
   1  12   3 5641.09  580.93   1 0.88296-0.69126-0.30061-0.51561 0.36062-0.50630
  -1 -12  -3 3514.15 2097.33   1-0.19715 0.00508 0.54264 0.27288-0.81649 0.96203
   1  12   516552.67 1728.48   1 0.23696-0.03769-0.63045-0.18496 0.73917-0.98202
   1  12   6 8353.13  996.69   1 0.27066-0.06785-0.66607-0.14928 0.69504-0.98646
   1  12   718504.24 1951.10   1 0.30280-0.09645-0.69842-0.11686 0.64846-0.98845
   1  12   8 3847.09 1377.29   1 0.33319-0.12329-0.72738-0.08784 0.59991-0.98847
   1  12   946843.17 3198.49   1 0.36169-0.14753-0.75278-0.06366 0.55000-0.98700
   1  12  10 2419.93 2023.81   1 0.38820-0.17046-0.77484-0.04159 0.49892-0.98448
   1  12  11  541.58  766.56   1 0.41270-0.19138-0.79357-0.02284 0.44713-0.98124
  -1 -13   8 8386.57 3050.46   1 0.10952-0.26193 0.12627 0.75807-0.98593 0.59725
  -1 -13   7 5540.31 2346.26   1 0.08781-0.24384 0.15862 0.72571-0.98342 0.64333
  -1 -13   6 6649.84 1748.80   1 0.06409-0.22373 0.19346 0.69085-0.97901 0.68750
  -1 -13   5 2482.29 1148.86   1 0.03816-0.20166 0.23083 0.65369-0.97224 0.72938
  -1 -13   4 4131.34 2409.75   1 0.01071-0.17778 0.26990 0.61459-0.96283 0.76854
  -1 -13   3  596.52  841.19   1-0.01838-0.15225 0.31057 0.57388-0.95037 0.80465
  -1 -13   2  262.72  241.91   1-0.04890-0.12529 0.35242 0.53200-0.93456 0.83742
   1  13  -1  821.34  367.85   1 0.87581-0.69841-0.26319-0.62087 0.40463-0.35607
  -1 -13   1  591.44  725.16   1-0.08056-0.09720 0.39494 0.48945-0.91516 0.86659
   1  13   0 3074.40 1511.31   1 0.87947-0.69851-0.28055-0.60356 0.38451-0.38451
  -1 -13   0 2775.21 1742.15   1-0.11306-0.06828 0.43717 0.44636-0.89224 0.89224
   1  13   111006.66 1274.79   1 0.88262-0.69809-0.29840-0.58575 0.36329-0.41185
  -1 -13  -110992.45 1710.15   1-0.14605-0.03887 0.47939 0.40412-0.86536 0.91387
  -1 -13  -247484.10 3868.70   1-0.17913-0.00936 0.52064 0.36286-0.83477 0.93179
  -1 -13  -3 1794.13 1960.29   1-0.21193 0.01986 0.56042 0.32306-0.80063 0.94617
   1  13   5 9372.46 2811.81   1 0.24719-0.04789-0.64144-0.24195 0.72625-0.96910
   1  13   6 7584.16 1009.22   1 0.27888-0.07603-0.67450-0.20882 0.68357-0.97499
   1  13   724679.85 1974.28   1 0.30925-0.10286-0.70471-0.17855 0.63855-0.97853
   1  13   8 2921.45  738.68   1 0.33812-0.12819-0.73191-0.15129 0.59158-0.98014
   1  13   9 3464.33 3492.83   1 0.36541-0.15120-0.75598-0.12851 0.54310-0.98011
  -1 -14   5 5269.98 3170.22   1 0.00549-0.16898 0.27726 0.67530-0.96077 0.71792
  -1 -14   4 5459.76 1307.65   1-0.02048-0.14657 0.31349 0.63903-0.94937 0.75508
  -1 -14   3 2934.66 2331.50   1-0.04788-0.12274 0.35103 0.60145-0.93513 0.78942
  -1 -14   2 9461.08  980.62   1-0.07648-0.09771 0.38951 0.56294-0.91784 0.82070
  -1 -14   1 9537.31 1072.40   1-0.10602-0.07175 0.42802 0.52347-0.89752 0.84901
  -1 -14   017241.00 1318.80   1-0.13632-0.04503 0.46704 0.48444-0.87366 0.87366
  -1 -14  -110636.37 1039.20   1-0.16700-0.01792 0.50564 0.44583-0.84642 0.89493
  -1 -14  -2  164.85  376.92   1-0.19775 0.00925 0.54337 0.40809-0.81586 0.91289
   1  14   4  223.40  443.70   1 0.22881-0.03302-0.62159-0.32984 0.74918-0.94346
   1  14   5  774.43  913.43   1 0.25950-0.06017-0.65446-0.29690 0.71016-0.95301
   1  14   6  575.75 1143.12   1 0.28930-0.08642-0.68504-0.26626 0.66860-0.96001
   2  -9   310037.57  746.93   1 0.09834 0.27532 0.14299 0.46920-0.98482 0.83907
   2  -9   414613.15  652.32   1 0.16792 0.20935 0.03701 0.57520-0.98510 0.79076
   2  -9   516828.70  952.45   1 0.22492 0.15561-0.05309 0.66524-0.97293 0.73022
   2  -9   6 1018.52  236.74   1 0.27025 0.11384-0.12768 0.73987-0.95428 0.66304
   2  -9   7 1421.98  870.59   1 0.30609 0.08157-0.18857 0.80079-0.93313 0.59335
  -2   8   428201.16  986.56   1 0.46679-0.81434-0.82723 0.28249 0.31271-0.50699
  -2   8   374712.32 1510.37   1 0.40912-0.76051-0.79094 0.24660 0.45500-0.60067
  -2   8   216673.12  511.65   1 0.32230-0.67726-0.71720 0.17351 0.61784-0.71498
   2  -8   0 5811.56  305.57   1-0.16419 0.52668 0.50216 0.04155-0.84904 0.84904
   2  -8   111979.39  585.70   1-0.04063 0.40702 0.34116 0.20308-0.93912 0.89055
   2  -8   213661.96  535.79   1 0.07121 0.29883 0.18306 0.36109-0.98052 0.88335
   2  -8   347685.86 1653.09   1 0.16376 0.20989 0.04348 0.50069-0.98554 0.83978
   2  -8   4 5628.85  418.48   1 0.23689 0.14007-0.07254 0.61666-0.96882 0.77466
   2  -8   5 6535.68  856.43   1 0.29259 0.08793-0.16542 0.70957-0.94182 0.69911
  -2   7  1041935.66 1397.71   1 0.56857-0.89560-0.80181 0.32589-0.18386-0.30279
  -2   7  1035304.50 1072.36   1 0.64846-0.97507-0.35660-0.11844-0.67256 0.18769
  -2   7   8 4282.26 1164.13   1 0.56063-0.89453-0.82137 0.34515-0.10501-0.28403
  -2   7   8 3987.73  460.76   1 0.57781-0.91155-0.29892-0.17615-0.75947 0.37157
  -2   7   711954.09  708.91   1 0.55519-0.89262-0.82953 0.35316-0.06024-0.28018
  -2   7   712617.53  413.40   1 0.49744-0.83538-0.23666-0.23834-0.83460 0.49533
  -2   7   6 5005.67  341.88   1 0.54719-0.88814-0.83697 0.36046-0.00671-0.28507
  -2   7   6 4964.17  192.91   1 0.32739-0.66886-0.11012-0.36494-0.93846 0.64766
  -2   7   5 8264.54  513.08   1 0.53445-0.87892-0.84288 0.36622 0.06240-0.30556
  -2   7   4 5419.27  686.17   1 0.51465-0.86232-0.84327 0.36663 0.15498-0.34926
  -2   7   337561.14  815.76   1 0.47049-0.82174-0.82906 0.35241 0.30212-0.44783
  -2   7   226019.59  507.35   1 0.38096-0.73598-0.76899 0.29268 0.51334-0.61045
  -2   7   1126378.0 2691.50   1 0.57141-0.93020-0.77961 0.30265-0.25630 0.20764
  -2   7   0 4495.74  443.44   1 0.56661-0.92869-0.80575 0.32836-0.17238 0.17238
   2  -7   0 5434.94  343.86   1-0.16198 0.52447 0.49939-0.02364-0.85109 0.85109
   2  -7   139438.31  879.10   1 0.87174-0.50512-0.24653 0.72255 0.42346-0.47202
  -2   7  -139708.23 1033.11   1 0.56071-0.92630-0.82123 0.34370-0.10573 0.15437
  -2   7  -216854.93  583.66   1 0.55429-0.92341-0.83059 0.35291-0.05361 0.15087
   2  -7   219579.46  602.96   1 0.13805 0.23198 0.08308 0.39306-0.98693 0.88976
   2  -7   3 5252.05  165.66   1 0.25278 0.12066 0.46736 0.00834 0.84718-0.99268
   2  -7   3 5217.21  174.16   1 0.51215-0.13920-0.24740 0.72267-0.82250 0.67704
   2  -7   3 5068.57  333.57   1 0.23983 0.13355-0.07735 0.55345-0.96772 0.82210
   2  -7   411797.95  380.58   1 0.65919-0.28244-0.36448 0.83971-0.65775 0.46383
   2  -7   411836.51  626.28   1 0.31218 0.06477-0.19910 0.67522-0.92892 0.73476
   2  -7   5103074.9 1988.27   1 0.71063-0.33030-0.40905 0.88430-0.57244 0.33003
   2  -7   6 3675.35  301.12   1 0.73576-0.35184-0.43190 0.90717-0.52166 0.23077
   2  -7   714795.75  639.48   1 0.74926-0.36176-0.44459 0.91988-0.49088 0.15150
   2  -7   814328.63  661.10   1 0.75657-0.36548-0.45161 0.92693-0.47293 0.08507
   2  -7   9 6625.79  513.58   1 0.76014-0.36547-0.45508 0.93043-0.46379 0.02745
   2  -7  1049673.89 1555.87   1 0.76122-0.36296-0.45613 0.93150-0.46097-0.02384
   2  -7  1120349.27  976.65   1 0.76049-0.35865-0.45542 0.93082-0.46287-0.07042
   2  -7  1250723.16 3981.40   1 0.75836-0.35294-0.45334 0.92876-0.46839-0.11339
   2  -7  1315392.92 1478.71   1 0.75505-0.34605-0.45014 0.92558-0.47674-0.15352
   2  -7  14  251.33  167.81   1 0.75072-0.33813-0.44598 0.92144-0.48737-0.19137
   2  -7  15 6283.02  817.32   1 0.74545-0.32928-0.44097 0.91646-0.49986-0.22736
  -2   6  16 6304.44 2569.15   1 0.68274-0.98776-0.38458-0.02229-0.62127-0.15443
  -2   6  15 3255.78 1671.95   1 0.68514-0.99375-0.38666-0.02023-0.61733-0.10990
  -2   6  14 6898.78  712.46   1 0.56999-0.88300-0.74221 0.33490-0.35246-0.32885
  -2   6  14 4339.71 2385.22   1 0.68568-0.99787-0.38712-0.01979-0.61643-0.06231
  -2   6  13 2220.85 1085.94   1 0.57095-0.88749-0.75279 0.34537-0.32757-0.30507
  -2   6  13 2029.21 1173.18   1 0.68395-0.99972-0.38562-0.02131-0.61929-0.01097
  -2   6  12 4485.91 1670.12   1 0.57149-0.89156-0.76265 0.35512-0.30289-0.28108
  -2   6  12 4736.03 1750.29   1 0.67931-0.99867-0.38163-0.02533-0.62682 0.04503
  -2   6  11 1302.91  538.07   1 0.57162-0.89522-0.77181 0.36415-0.27848-0.25683
  -2   6  11 1325.40  532.26   1 0.67079-0.99374-0.37433-0.03266-0.64025 0.10695
  -2   6  10 4241.84 1441.19   1 0.57138-0.89850-0.78025 0.37248-0.25441-0.23224
  -2   6  10 4656.47  795.02   1 0.65694-0.98352-0.36373-0.04342-0.66041 0.17554
  -2   6   928470.86 1197.63   1 0.57078-0.90144-0.78799 0.38010-0.23081-0.20717
  -2   6   927372.61 1329.73   1 0.63487-0.96502-0.34529-0.06188-0.69118 0.25479
  -2   6   837659.28 1078.44   1 0.56987-0.90406-0.79499 0.38699-0.20791-0.18140
  -2   6   840469.80 1090.11   1 0.59977-0.93349-0.31656-0.09062-0.73490 0.34700
  -2   6   7 3025.72  518.68   1 0.54214-0.87942-0.27072-0.13648-0.79549 0.45608
  -2   6   657979.32 1242.95   1 0.56575-0.90686-0.80879 0.40047-0.16054-0.13124
  -2   6   663218.96 1269.23   1 0.43982-0.78125-0.19293-0.21421-0.87712 0.58632
  -2   6   655692.39 1242.32   1 0.06190-0.40301 0.19665-0.60464-0.97851 0.68701
  -2   6   520399.72  651.70   1 0.19165-0.53648 0.00012-0.40794-0.98146 0.73876
  -2   6   118984.67  444.65   1 0.53591-0.89441-0.84201 0.43342 0.06172-0.11029
  -2   6   0 4859.97  318.66   1 0.53846-0.90069-0.84159 0.43240 0.04221-0.04221
   2  -6   0 4553.18  225.82   1-0.18988 0.55238 0.53381-0.12603-0.82400 0.82400
  -2   6  -1 1210.62  436.17   1 0.53547-0.90122-0.84260 0.43326 0.05739-0.00876
   2  -6   1 1256.65  438.76   1 0.05675 0.30966 0.20414 0.20397-0.97729 0.92871
   2  -6   258239.45 1357.36   1-0.05442 0.42439 0.61913-0.21166 0.78343-0.88041
  -2   6  -256080.71 1453.78   1 0.53135-0.90062-0.84361 0.43413 0.07730 0.01995
   2  -6   259197.75 1206.41   1 0.68252-0.31298-0.38439 0.79169-0.62163 0.52467
   2  -6   257962.71 1417.73   1 0.22372 0.14610-0.05115 0.45921-0.97331 0.87622
   2  -6   320952.14  500.71   1 0.87153-0.49781-0.24574 0.65366 0.42435-0.57003
   2  -6   322980.09  586.43   1 0.26898 0.10454 0.45715-0.04942 0.84776-0.99331
  -2   6  -321195.33  783.74   1 0.52675-0.89953-0.84355 0.43490 0.10463 0.04107
   2  -6   324001.07  664.59   1 0.76771-0.39466-0.46108 0.86866-0.44502 0.29946
  -2   6  -416695.60  866.60   1 0.52154-0.89789-0.84370 0.43505 0.12707 0.06719
   2  -6   420097.33  673.44   1 0.79059-0.41396-0.48472 0.89230-0.37421 0.18013
   2  -6   569915.77 1543.19   1 0.79979-0.41959-0.49494 0.90251-0.33968 0.09709
   2  -6   655574.25 1412.67   1 0.80367-0.41989-0.49943 0.90700-0.32357 0.03245
   2  -6   724431.59  830.57   1 0.80488-0.41753-0.50086 0.90842-0.31832-0.02131
   2  -6   8 9263.44  579.02   1 0.80447-0.41355-0.50038 0.90794-0.32008-0.06807
   2  -6   9 3518.63 1514.28   1 0.80294-0.40844-0.49858 0.90614-0.32666-0.11001
   2  -6  10 3990.87  885.65   1 0.80052-0.40244-0.49578 0.90333-0.33671-0.14847
   2  -6  11  765.17  542.58   1 0.79733-0.39568-0.49216 0.89970-0.34936-0.18435
   2  -6  1222962.86 1106.30   1 0.79344-0.38821-0.48783 0.89537-0.36400-0.21823
   2  -6  13 9669.82  761.56   1 0.78886-0.38005-0.48286 0.89039-0.38021-0.25054
   2  -6  1474817.14 5807.54   1 0.78361-0.37123-0.47729 0.88482-0.39768-0.28158
   2  -6  1524115.23 1558.92   1 0.77769-0.36173-0.47115 0.87868-0.41620-0.31159
   2  -6  16 1681.87 1989.03   1 0.77032-0.35061-0.46517 0.87281-0.43615-0.33955
   2  -6  17 5101.06  892.61   1 0.76302-0.33972-0.45790 0.86556-0.45622-0.36797
  -2   5  19 2141.52 1977.59   1 0.66677-0.96100-0.37090 0.03198-0.64642-0.27473
  -2   5  18  693.84  638.99   1 0.67319-0.97100-0.37638 0.03743-0.63652-0.23615
  -2   5  17 7280.44  726.08   1 0.67836-0.97975-0.38081 0.04183-0.62835-0.19583
  -2   5  16 2352.21 2052.28   1 0.68215-0.98713-0.38407 0.04508-0.62223-0.15348
  -2   5  1513069.74 1294.06   1 0.68441-0.99297-0.38602 0.04700-0.61853-0.10869
  -2   5  14 2374.31 1381.95   1 0.68488-0.99702-0.38643 0.04738-0.61776-0.06098
  -2   5  13 9514.26  666.18   1 0.68318-0.99891-0.38496 0.04589-0.62055-0.00970
  -2   5  1218616.10  954.32   1 0.56953-0.88969-0.73813 0.39875-0.36164-0.22234
  -2   5  1217535.02  836.67   1 0.67875-0.99807-0.38114 0.04205-0.62772 0.04594
  -2   5  1157109.24 2107.38   1 0.57031-0.89400-0.74529 0.40579-0.34537-0.18994
  -2   5  1151144.53 1964.96   1 0.67074-0.99364-0.37428 0.03517-0.64033 0.10703
  -2   5  1049237.11 1822.95   1 0.57083-0.89806-0.75119 0.41158-0.33144-0.15521
  -2   5  1046197.80 1717.25   1 0.65783-0.98439-0.36448 0.02521-0.65911 0.17424
  -2   5   9 3568.10  919.39   1 0.57114-0.90189-0.75551 0.41578-0.32092-0.11706
  -2   5   9 3944.67 1121.54   1 0.63790-0.96803-0.34780 0.00851-0.68712 0.25073
  -2   5   813479.47  573.88   1 0.57126-0.90555-0.75763 0.41779-0.31565-0.07366
  -2   5   812873.00  716.71   1 0.60726-0.94095-0.32264-0.01666-0.72605 0.33815
  -2   5   7 2417.74  762.40   1 0.57118-0.90899-0.75620 0.41624-0.31921-0.02144
  -2   5   7 2687.94  628.00   1 0.55951-0.89676-0.28439-0.05493-0.77852 0.43911
  -2   5   7 1906.48  704.76   1-0.16626-0.17121 0.50472-0.84445-0.84711 0.50752
  -2   5   6 7486.17  425.54   1 0.57054-0.91188-0.74774 0.40766-0.33965 0.04766
  -2   5   6 8210.95  515.77   1 0.48167-0.82305-0.22459-0.11462-0.84709 0.55629
  -2   5   6 7153.03  403.42   1-0.08531-0.25610 0.40123-0.74115-0.91199 0.62056
  -2   5   514308.00  674.52   1 0.35344-0.69836-0.12904-0.21024-0.92652 0.68418
  -2   5   513451.29  570.95   1 0.04858-0.39330 0.21597-0.55596-0.97519 0.73226
  -2   5   411523.37  721.80   1 0.29394-0.64235-0.16771-0.17213-0.94099 0.74683
  -2   5   0127472.2 1129.28   1 0.38225-0.74455-0.77004 0.42981 0.51079-0.51079
  -2   5  -128753.36  614.09   1 0.46709-0.83285-0.82739 0.48687 0.31184-0.26327
   2  -5   125735.98  920.66   1 0.30707 0.05903-0.09547 0.43515-0.94690 0.89843
   2  -5   128421.70  501.75   1 0.14224 0.22417 0.07668 0.26341-0.98685 0.93827
   2  -5   214059.17  943.40   1 0.02940 0.34044 0.58450-0.24472 0.81089-0.90788
  -2   5  -214247.04  971.65   1 0.48422-0.85354-0.83513 0.49460 0.26093-0.16379
   2  -5   3 1285.59  282.55   1 0.30569 0.06780 0.43348-0.09372 0.84776-0.99331
  -2   5  -3 1018.80  347.54   1 0.48949-0.86238-0.83712 0.49658 0.24418-0.09847
   2  -5   4 6879.04  287.50   1 0.65696-0.27979 0.13091 0.20932 0.74250-0.93698
  -2   5  -4 6442.18  705.43   1 0.49008-0.86655-0.83733 0.49677 0.24226-0.04798
   2  -5   928274.44 1271.48   1 0.82579-0.43131-0.52944 0.86906-0.19436-0.24231
   2  -5  1035831.39 1577.71   1 0.82303-0.42498-0.52494 0.86455-0.21695-0.26824
   2  -5  1114256.65  840.33   1 0.81974-0.41811-0.52002 0.85963-0.24004-0.29366
   2  -5  12 8910.67  725.34   1 0.81589-0.41068-0.51467 0.85428-0.26354-0.31869
   2  -5  1312805.75  860.89   1 0.81145-0.40267-0.50890 0.84850-0.28736-0.34339
   2  -5  14 5606.10  763.21   1 0.80641-0.39405-0.50269 0.84229-0.31146-0.36781
   2  -5  15 1780.22 1353.18   1 0.80075-0.38481-0.49604 0.83563-0.33580-0.39199
   2  -5  16 3746.78  889.50   1 0.79443-0.37492-0.48892 0.82851-0.36035-0.41596
   2  -5  17 7148.68 1227.81   1 0.78743-0.36434-0.48133 0.82091-0.38508-0.43974
  -2   4  19  105.88  273.75   1 0.66372-0.95791-0.36831 0.09726-0.65102-0.27013
  -2   4  18 3719.85 1535.10   1 0.66981-0.96758-0.37349 0.10242-0.64177-0.23090
  -2   4  17 7224.18 2835.47   1 0.67465-0.97600-0.37763 0.10653-0.63423-0.18995
  -2   4  1624704.33 2783.57   1 0.67813-0.98307-0.38061 0.10949-0.62872-0.14699
  -2   4  1520431.08 1147.72   1 0.68008-0.98860-0.38229 0.11114-0.62558-0.10164
  -2   4  1414311.38  901.20   1 0.68026-0.99236-0.38244 0.11127-0.62530-0.05344
  -2   4  13 2183.47  774.00   1 0.67830-0.99399-0.38076 0.10956-0.62845-0.00181
  -2   4  12 8881.06 1984.94   1 0.67368-0.99295-0.37680 0.10558-0.63576 0.05397
  -2   4  11 8102.45 2105.57   1 0.66562-0.98848-0.36992 0.09868-0.64816 0.11486
  -2   4  1021626.66  947.09   1 0.65284-0.97938-0.36028 0.08890-0.66634 0.18147
  -2   4   962178.82 1602.52   1 0.63375-0.96385-0.34436 0.07296-0.69267 0.25628
   2  -4  -839391.32 1195.72   1 0.29401 0.03980-0.68974 0.96116 0.66166-0.27311
  -2   4   844296.97 1396.89   1 0.60526-0.93893-0.32101 0.04960-0.72844 0.34054
  -2   4   781341.53 2060.65   1 0.56261-0.89984-0.28684 0.01540-0.77538 0.43596
  -2   4   640087.76  895.17   1 0.49683-0.83817-0.23619-0.03510-0.83510 0.54429
  -2   4   5 7492.15  584.43   1 0.39737-0.74224-0.16130-0.11006-0.90338 0.66104
  -2   4   5 7152.48  496.73   1-0.16563-0.17900 0.50394-0.77573-0.84770 0.60514
  -2   4   499511.88 1363.97   1 0.24343-0.59165-0.04853-0.22302-0.96871 0.77474
  -2   4   4100668.3  961.73   1 0.07789-0.42622 0.17325-0.44524-0.98179 0.78745
   2  -4  -333915.31  615.80   1 0.81674-0.46520-0.51583 0.78758-0.25857 0.40413
   2  -4  -2 4624.52  377.51   1 0.76922-0.41410-0.46259 0.73433-0.44081 0.53785
   2  -4  -127271.62  503.66   1 0.64463-0.28601-0.35340 0.62493-0.67792 0.72641
   2  -4   0168687.8 1641.07   1 0.41219-0.04966-0.17229 0.44398-0.89467 0.89467
   2  -4   114007.90  961.41   1-0.07490 0.44119 0.62663-0.35500 0.77574-0.82423
  -2   4  -114361.38  918.01   1 0.33354-0.69926-0.72770 0.45573 0.59932-0.55076
   2  -4   264831.18 1038.40   1 0.11579 0.25405 0.54386-0.27201 0.83118-0.92817
  -2   4  -266713.51 1066.42   1 0.40457-0.77408-0.78755 0.51533 0.46484-0.36772
   2  -4   329138.73  601.36   1 0.35011 0.02334 0.40317-0.13138 0.84553-0.99108
  -2   4  -329034.66  762.51   1 0.43183-0.80491-0.80688 0.53465 0.40305-0.25739
   2  -4   487611.31 1048.32   1 0.59661-0.21963 0.19492 0.07696 0.77852-0.97256
  -2   4  -488608.71 1534.47   1 0.44422-0.82088-0.81478 0.54254 0.37255-0.17832
   2  -4   527414.49  458.63   1 0.79347-0.41314-0.05712 0.32918 0.60595-0.84911
   2  -4  1314049.66  917.42   1 0.82524-0.41648-0.52851 0.80018-0.19916-0.43159
   2  -4  1411343.99 1506.99   1 0.82131-0.40897-0.52232 0.79398-0.22944-0.44983
   2  -4  1510229.00  919.51   1 0.81663-0.40072-0.51568 0.78734-0.25923-0.46855
   2  -4  1615855.91 2154.21   1 0.81120-0.39171-0.50858 0.78023-0.28864-0.48766
   2  -4  17  594.55  456.42   1 0.80501-0.38194-0.50101 0.77266-0.31775-0.50708
   2  -4  18  795.04 1110.73   1 0.79804-0.37140-0.49296 0.76460-0.34660-0.52674
  -2   3  1931693.58 2062.32   1 0.65733-0.95176-0.36406 0.16072-0.65984-0.26141
  -2   3  18 4241.43 2522.99   1 0.66346-0.96118-0.36809 0.16489-0.65142-0.22125
  -2   3  17 5933.24 2626.28   1 0.66790-0.96921-0.37186 0.16864-0.64470-0.17948
  -2   3  16 5805.62 1608.93   1 0.67096-0.97585-0.37447 0.17122-0.64000-0.13570
  -2   3  1527203.00 1444.22   1 0.67246-0.98094-0.37575 0.17248-0.63766-0.08956
  -2   3  14 1955.62  580.46   1 0.67217-0.98423-0.37550 0.17221-0.63812-0.04062
  -2   3  1317468.38 1182.37   1 0.66972-0.98537-0.37341 0.17010-0.64191 0.01164
  -2   3  1282352.72 2850.87   1 0.66461-0.98384-0.36907 0.16573-0.64969 0.06790
  -2   3  1139036.79 1377.93   1 0.65587-0.97882-0.36282 0.15935-0.66197 0.12861
  -2   3  1013920.88  958.40   1 0.64291-0.96942-0.35197 0.14847-0.68029 0.19542
  -2   3   912261.18 1061.53   1 0.62384-0.95392-0.33618 0.13267-0.70556 0.26918
   2  -3  -8 8947.69  551.49   1 0.40905-0.07527-0.79089 0.99493 0.45514-0.06669
  -2   3   8 8797.82  607.93   1 0.59619-0.92983-0.31367 0.11014-0.73905 0.35115
   2  -3  -712947.68  935.52   1 0.40144-0.06408-0.78517 0.98922 0.47153-0.13163
  -2   3   714652.21 1056.71   1 0.55618-0.89339-0.28176 0.07822-0.78185 0.44244
   2  -3  -621203.32 1376.12   1 0.38381-0.04287-0.77130 0.97536 0.50771-0.21637
  -2   3   623311.02 1820.17   1 0.49710-0.83840-0.23640 0.03302-0.83488 0.54407
   2  -3  -619598.76 1315.17   1 0.82735-0.48656-0.53224 0.73607-0.17950 0.47061
   2  -3  -546978.55  773.27   1 0.34415 0.00032-0.73739 0.94101 0.58120-0.33836
  -2   3   547761.65  967.04   1 0.41282-0.75765-0.17276-0.03068-0.89429 0.65195
   2  -3  -544345.96  911.74   1 0.81404-0.46966-0.51222 0.71605-0.27384 0.51644
  -2   3   438219.42  886.97   1 0.29158-0.63978-0.08274-0.12089-0.95297 0.75900
   2  -3  -435734.47  821.48   1 0.78614-0.43819-0.47996 0.68378-0.38939 0.58347
   2  -3  -366432.14 1512.23   1 0.73208-0.38059-0.42849 0.63205-0.52959 0.67504
   2  -3  -218084.62  698.25   1 0.63613-0.28109-0.34632 0.54996-0.68950 0.78648
   2  -3  -182952.28 1764.16   1 0.48273-0.12377-0.22540 0.42910-0.84628 0.89474
   2  -3   0177577.2 3740.20   1-0.12246 0.48514 0.64280-0.43911 0.75621-0.75621
   2  -3   0179458.7 3552.96   1 0.28061 0.08178-0.07490 0.27868-0.95690 0.95690
   2  -3   1227541.6 4577.45   1 0.02344 0.34280 0.58710-0.38324 0.80920-0.85770
   2  -3   1232840.2 4415.10   1-0.12761 0.49370 0.45591-0.25201-0.88082 0.83231
   2  -3   235948.70 1292.20   1 0.20059 0.16925 0.49816-0.29431 0.84359-0.94062
   2  -3   234344.62 1217.21   1 0.56973-0.19995-0.73986 0.94456-0.35776 0.26043
  -2   3  -237778.11 1365.16   1 0.30266-0.67196-0.69829 0.49423 0.64867-0.55153
   2  -3   3   99.64  124.00   1 0.39669-0.02325 0.36932-0.16551 0.84041-0.98595
   2  -3   3  109.80   74.28   1 0.57149-0.19818-0.76276 0.96756-0.30263 0.15663
  -2   3  -3  160.36   87.75   1 0.35690-0.73004-0.74861 0.54443 0.55874-0.41307
   2  -3   4 9081.87  627.25   1 0.58564-0.20866 0.20604-0.00212 0.78397-0.97801
   2  -3   4 9483.98  723.85   1 0.57162-0.19478-0.77250 0.97742-0.27657 0.08191
  -2   3  -4 9031.30 1072.26   1 0.38523-0.76195-0.77246 0.56826 0.50487-0.31065
   2  -3   526077.17  990.13   1 0.73836-0.35761 0.02725 0.17691 0.67388-0.91698
   2  -3   527323.63  894.94   1 0.57154-0.19117-0.77625 0.98129-0.26600 0.02267
   2  -3   629759.03  573.29   1 0.83552-0.45176-0.13996 0.34405 0.53137-0.82315
   2  -3   631123.16 1000.21   1 0.57153-0.18763-0.77670 0.98186-0.26471-0.02727
   2  -3   753300.37 1278.16   1 0.87982-0.49193-0.28235 0.48607 0.38240-0.72233
  -2   3  -753396.41 1314.28   1-0.01615-0.37158 0.60366-0.80781 0.79711-0.45762
   2  -3   755309.21 1753.67   1 0.57157-0.18415-0.77504 0.98031-0.26944-0.07121
  -2   3  -8151391.6 3134.69   1 0.08466-0.47597 0.55917-0.76337 0.82475-0.43676
   2  -3   8161944.4 3938.32   1 0.57162-0.18066-0.77187 0.97725-0.27830-0.11102
   2  -3   999510.11 2752.41   1 0.57161-0.17712-0.76752 0.97301-0.29012-0.14786
   2  -3  1017860.47 1276.63   1 0.57147-0.17345-0.76217 0.96778-0.30415-0.18250
   2  -3  1136811.32 1913.78   1 0.57116-0.16962-0.75594 0.96167-0.31987-0.21544
   2  -3  12 7827.40  923.42   1 0.57064-0.16556-0.74890 0.95474-0.33691-0.24707
   2  -3  1313814.87 1017.92   1 0.56987-0.16126-0.74109 0.94705-0.35500-0.27764
   2  -3  15 3125.51 1703.06   1 0.82654-0.41064-0.53075 0.73448-0.18748-0.54030
   2  -3  16  417.27  690.86   1 0.82245-0.40298-0.52403 0.72775-0.22133-0.55498
   2  -3  17 1709.24 1349.54   1 0.81744-0.39439-0.51678 0.72050-0.25443-0.57039
   2  -3  18 6109.65 1093.82   1 0.81154-0.38491-0.50901 0.71272-0.28693-0.58642
  -2   2  1921935.11 1597.30   1 0.64855-0.94295-0.35668 0.22123-0.67244-0.24881
  -2   2  18 9088.18  985.19   1 0.65382-0.95179-0.36110 0.22564-0.66493-0.20783
  -2   2  1715647.70 3299.38   1 0.65780-0.95933-0.36445 0.22897-0.65915-0.16512
  -2   2  16 7772.18 2351.61   1 0.66036-0.96546-0.36661 0.23111-0.65539-0.12040
  -2   2  1513412.27  949.29   1 0.66132-0.96998-0.36742 0.23190-0.65397-0.07333
  -2   2  14 6114.54 1737.07   1 0.66042-0.97265-0.36666 0.23113-0.65530-0.02351
  -2   2  13 8437.66 2099.98   1 0.65731-0.97311-0.36404 0.22849-0.65987 0.02953
  -2   2  1213191.42  992.23   1 0.65150-0.97086-0.35915 0.22358-0.66826 0.08642
  -2   2  11 3047.28 1027.97   1 0.64226-0.96518-0.35142 0.21583-0.68119 0.14783
  -2   2  1033599.72 1242.82   1 0.62858-0.95507-0.34008 0.20448-0.69946 0.21459
  -2   2   938174.01 1309.87   1 0.60899-0.93904-0.32404 0.18842-0.72397 0.28759
  -2   2   832012.53  974.26   1 0.58137-0.91498-0.30176 0.16612-0.75562 0.36773
   2  -2  -741032.58  989.91   1 0.50158-0.16405-0.84085 0.97695 0.20342 0.13656
  -2   2   744433.87 1256.71   1 0.54264-0.87982-0.27111 0.13546-0.79502 0.45561
   2  -2  -6 3680.75  417.96   1 0.50965-0.16855-0.84257 0.97869 0.17413 0.11728
  -2   2   6 5256.91  556.02   1 0.48750-0.82875-0.22904 0.09359-0.84256 0.55175
   2  -2  -517431.96 1136.81   1 0.51792-0.17325-0.84356 0.97969 0.14195 0.10089
  -2   2   517926.19 1246.81   1 0.41234-0.75712-0.17240 0.03688-0.89458 0.65224
   2  -2  -518046.97 1217.05   1 0.77243-0.42807-0.46580 0.60169-0.43174 0.67434
   2  -2  -498423.10 2036.54   1 0.52705-0.17880-0.84352 0.97967 0.10333 0.09094
  -2   2   4104096.5 2306.64   1 0.30976-0.65794-0.09578-0.03992-0.94599 0.75202
   2  -2  -497349.98 2176.40   1 0.72358-0.37572-0.42071 0.55637-0.54722 0.74115
   2  -2  -323228.49  785.05   1 0.53700-0.18470-0.84211 0.97807 0.04971 0.09618
  -2   2   326559.51 1024.98   1 0.17542-0.52715-0.00096-0.13478-0.98450 0.83903
   2  -2  -324128.55  931.43   1 0.64819-0.29675-0.35638 0.49210-0.67294 0.81840
  -2   2   325890.45  881.21   1 0.15264-0.50458 0.06068-0.19666-0.98641 0.84066
   2  -2  -214934.92  632.41   1 0.53731-0.18230-0.26694 0.40268-0.80004 0.89701
   2  -2  -164996.77 1662.07   1-0.13757 0.49663 0.64757-0.51182 0.74951-0.70102
   2  -2  -166453.53 1307.66   1 0.49807-0.13912-0.83990 0.97608 0.21560-0.16703
   2  -2  -165462.81 1506.13   1 0.38991-0.03099-0.15579 0.29157-0.90759 0.95606
   2  -2   034133.54 1308.10   1-0.01993 0.38260 0.60518-0.46930 0.79587-0.79587
   2  -2   034524.47 1148.93   1 0.52382-0.16129-0.84369 0.97989 0.11743-0.11743
   2  -2   032808.79 1179.01   1 0.21819 0.14418-0.03077 0.16662-0.97543 0.97543
   2  -2   033814.23 1097.51   1 0.22958 0.13310-0.06065 0.19665-0.97139 0.97139
   2  -2   149936.36 1761.48   1 0.12086 0.24537 0.54129-0.40537 0.83213-0.88063
   2  -2   150556.62 1680.96   1 0.53435-0.16796-0.84291 0.97946 0.06293-0.11156
   2  -2   149868.41 1615.56   1-0.03872 0.40509 0.33856-0.20247-0.94014 0.89157
   2  -2   2110952.0 2422.66   1 0.27959 0.09023 0.45043-0.31456 0.84793-0.94496
   2  -2   2110625.9 2373.13   1 0.54105-0.17115-0.84050 0.97719 0.02844-0.12570
   2  -2   2110266.1 2302.37   1-0.19005 0.55972 0.53401-0.39806-0.82384 0.72681
   2  -2   395114.02 2100.23   1 0.44245-0.06905 0.33425-0.19830 0.83220-0.97773
   2  -2   396785.66 2201.45   1 0.54640-0.17298-0.83751 0.97435-0.00195-0.14394
  -2   2  -395461.89 2202.33   1 0.27441-0.64728-0.66993 0.53379 0.68984-0.54414
   2  -2   4165591.5 1912.29   1 0.59297-0.21597 0.19864-0.06268 0.78037-0.97440
  -2   2  -4164877.7 2017.78   1-0.09705-0.27984 0.63438-0.77036 0.76693-0.57296
   2  -2   4165545.2 2292.47   1 0.55093-0.17399-0.83399 0.97097-0.03038-0.16414
  -2   2  -4159455.2 2227.80   1 0.31766-0.69408-0.71279 0.57659 0.62530-0.43103
   2  -2   532108.20  696.22   1 0.71580-0.33502 0.05822 0.07790 0.69590-0.93900
  -2   2  -530674.90  751.83   1 0.00875-0.38932 0.59338-0.72950 0.80490-0.56241
   2  -2   531720.93 1087.04   1 0.55486-0.17439-0.82993 0.96706-0.05773-0.18542
   2  -2   657970.32  967.44   1 0.80293-0.41917-0.07402 0.21012 0.59149-0.88328
  -2   2  -654993.13 1045.56   1 0.10783-0.49197 0.54784-0.68401 0.82963-0.53864
   2  -2   658100.53 1397.49   1 0.55827-0.17428-0.82534 0.96261-0.08443-0.20735
   2  -2   715545.82 1057.28   1 0.85543-0.46758-0.19356 0.32928 0.48042-0.82035
  -2   2  -714766.69 1035.16   1 0.19732-0.58505 0.50002-0.63569 0.84326-0.50365
   2  -2   716605.23 1280.86   1 0.56124-0.17373-0.82021 0.95762-0.11071-0.22970
   2  -2   841152.39 1074.35   1 0.88154-0.49012-0.29186 0.42754 0.37113-0.75962
   2  -2   842292.32 1616.35   1 0.56377-0.17274-0.81453 0.95209-0.13670-0.25234
   2  -2   966087.78 2059.67   1 0.56700-0.17241-0.80787 0.94521-0.16078-0.27720
   2  -2  1068775.81 2331.97   1 0.56874-0.17062-0.80107 0.93853-0.18658-0.30007
   2  -2  1134692.06 1701.40   1 0.57007-0.16842-0.79369 0.93127-0.21226-0.32305
   2  -2  12 7183.39 2066.12   1 0.57100-0.16582-0.78573 0.92342-0.23787-0.34611
   2  -2  1326484.71 1362.44   1 0.57151-0.16281-0.77716 0.91496-0.26342-0.36923
   2  -2  1416076.13 2003.77   1 0.57161-0.15938-0.76796 0.90588-0.28893-0.39238
   2  -2  1524662.34 1413.17   1 0.57129-0.15552-0.75813 0.89616-0.31441-0.41556
   2  -2  1644737.64 3800.25   1 0.57053-0.15123-0.74763 0.88579-0.33989-0.43875
   2  -2  17 1308.69 1936.26   1 0.56932-0.14650-0.73645 0.87472-0.36537-0.46194
   2  -2  17 1490.62 1609.38   1 0.82563-0.40261-0.52917 0.66496-0.19574-0.62909
   2  -2  18 3299.89 2029.53   1 0.82101-0.39441-0.52187 0.65765-0.23151-0.64183
  -2   1  19  846.48  729.50   1 0.63706-0.93144-0.34710 0.27954-0.68825-0.23300
  -2   1  18 9093.21 1816.90   1 0.64183-0.93977-0.35106 0.28349-0.68178-0.19098
  -2   1  1717462.80 3930.85   1 0.64525-0.94676-0.35392 0.28632-0.67705-0.14722
  -2   1  16 2853.72  981.26   1 0.64720-0.95227-0.35554 0.28793-0.67434-0.10144
  -2   1  15 6866.43 1789.39   1 0.64747-0.95611-0.35577 0.28814-0.67396-0.05334
  -2   1  1411951.26  845.45   1 0.64581-0.95801-0.35438 0.28674-0.67628-0.00253
  -2   1  1318245.01  989.15   1 0.64186-0.95762-0.35108 0.28342-0.68174 0.05141
  -2   1  1258082.12 2222.97   1 0.63511-0.95444-0.34548 0.27780-0.69087 0.10902
  -2   1  1189720.43 2514.85   1 0.62487-0.94777-0.33703 0.26933-0.70424 0.17088
  -2   1  10 8377.62  681.37   1 0.61020-0.93666-0.32502 0.25730-0.72252 0.23765
  -2   1   9 4829.94  795.72   1 0.58974-0.91976-0.30847 0.24074-0.74637 0.30999
  -2   1   810199.07  995.95   1 0.56164-0.89524-0.28607 0.21832-0.77636 0.38846
   2  -1  -764449.91 1333.57   1 0.55231-0.21394-0.83269 0.89987-0.03964 0.38007
  -2   1   771711.10 1466.46   1 0.52338-0.86054-0.25610 0.18833-0.81271 0.47330
   2  -1  -627002.30  864.83   1 0.56170-0.21981-0.81928 0.88661-0.11514 0.40693
  -2   1   628483.25 1323.84   1 0.47064-0.81185-0.21620 0.14867-0.85543 0.56463
   2  -1  -5121275.2 2624.64   1 0.57008-0.22481-0.79362 0.86120-0.21251 0.45583
  -2   1   5126897.3 2835.22   1 0.40143-0.74617-0.16430 0.09671-0.90104 0.65870
   2  -1  -4212122.9 4231.75   1 0.57050-0.22170-0.74725 0.81495-0.34078 0.53545
  -2   1   4224488.5 4587.05   1 0.31086-0.65903-0.09657 0.02879-0.94554 0.75158
   2  -1  -4203989.7 4259.42   1 0.66707-0.31925-0.37116 0.43894-0.64597 0.83989
  -2   1   4217844.4 4358.87   1 0.32092-0.66934-0.21431 0.14645-0.92253 0.72837
  -2   1   3123936.4 2707.99   1 0.19601-0.54773-0.01527-0.05254-0.98049 0.83502
   2  -1  -3123505.2 2671.33   1 0.58292-0.23150-0.30301 0.37084-0.75392 0.89939
  -2   1   3124832.3 2571.55   1 0.19384-0.54583-0.00335-0.06454-0.98102 0.83540
   2  -1  -214842.95  766.23   1-0.13102 0.48646 0.64552-0.57772 0.75245-0.65546
   2  -1  -214812.10  785.53   1 0.47189-0.11655-0.21714 0.28494-0.85451 0.95144
  -2   1   214726.85  585.69   1 0.01566-0.37132 0.26291-0.33086-0.96469 0.86755
   2  -1  -1 6824.49  474.93   1-0.03305 0.39213 0.61036-0.54247 0.79146-0.74296
   2  -1  -1 6859.95  393.81   1 0.33747 0.02140-0.11742 0.18528-0.93399 0.98246
  -2   1   1 7330.48  456.80   1-0.17251-0.18644 0.51248-0.58043-0.84119 0.79268
   2  -1   066818.54 1697.45   1 0.08278 0.27987 0.56007-0.49213 0.82433-0.82433
   2  -1   068706.63 1544.18   1 0.32204 0.04022-0.71695 0.78493 0.61827-0.61827
   2  -1   066638.12 1569.15   1 0.18957 0.17278-0.01079 0.07871-0.98182 0.98182
   2  -1   068598.17 1538.54   1 0.18619 0.17658 0.00837 0.05964-0.98247 0.98247
   2  -1   1125449.3 2761.16   1 0.21351 0.15270 0.49071-0.42278 0.84478-0.89330
   2  -1   1121635.7 2609.55   1 0.40114-0.03505-0.78495 0.85301 0.47215-0.52071
   2  -1   1123812.9 2566.10   1 0.01606 0.35029 0.26234-0.19428-0.96484 0.91627
   2  -1   279109.67 1874.42   1 0.35189 0.01789 0.40191-0.33402 0.84539-0.94242
   2  -1   276690.20 1825.05   1 0.44905-0.07938-0.81769 0.88576 0.36017-0.45729
   2  -1   276928.14 1744.18   1-0.11065 0.48034 0.43405-0.36606-0.89406 0.79704
   2  -1   3110689.5 2446.38   1 0.48718-0.11378 0.29722-0.22924 0.82119-0.96672
  -2   1  -3105899.7 2387.88   1-0.02187-0.35152 0.60595-0.67403 0.79523-0.64974
   2  -1   3108648.1 2481.07   1 0.48016-0.10681-0.83346 0.90160 0.27345-0.41916
   2  -1   3107135.8 2364.52   1-0.19621 0.56946 0.54150-0.47349-0.81748 0.67194
   2  -1   432186.08 1210.63   1 0.60953-0.23229 0.18300-0.11492 0.77137-0.96585
  -2   1  -431209.03 1213.62   1 0.07730-0.45428 0.56267-0.63081 0.82309-0.62909
   2  -1   431104.94 1321.56   1 0.50158-0.12466-0.84085 0.90900 0.20342-0.39770
  -2   1  -429265.77 1223.87   1 0.24673-0.62318-0.64094 0.57272 0.72685-0.53257
   2  -1   511485.94 1219.34   1 0.70993-0.32914 0.06595 0.00213 0.70120-0.94430
  -2   1  -510860.61 1401.83   1 0.16905-0.54961 0.51592-0.58410 0.83982-0.59733
   2  -1   510182.78  835.36   1 0.51726-0.13677-0.84352 0.91168 0.14460-0.38745
   2  -1   6 9329.35 1018.80   1 0.78577-0.40202-0.04392 0.11202 0.61698-0.90877
  -2   1  -6 7859.98 1370.02   1 0.25112-0.63524 0.46825-0.53597 0.84719-0.55609
   2  -1   6 9114.24  797.72   1 0.52874-0.14460-0.84406 0.91313 0.08936-0.38115
   2  -1   741248.05  947.44   1 0.83770-0.45050-0.14494 0.21306 0.52658-0.86700
   2  -1   741173.01 1271.00   1 0.53816-0.15049-0.84170 0.91091 0.04373-0.38415
   2  -1   871192.92 1897.78   1 0.86848-0.47709-0.23448 0.30215 0.43681-0.82530
   2  -1   876367.07 2247.78   1 0.54574-0.15455-0.83794 0.90731 0.00197-0.39102
   2  -1   951767.01 1937.28   1 0.55191-0.15720-0.83308 0.90259-0.03691-0.40077
   2  -1  1038231.91 1571.04   1 0.55694-0.15871-0.82728 0.89693-0.07361-0.41270
   2  -1  1126718.85 1262.69   1 0.56102-0.15926-0.82064 0.89044-0.10863-0.42632
   2  -1  12 5902.60 1416.56   1 0.56427-0.15899-0.81323 0.88317-0.14230-0.44127
   2  -1  13 6477.12 2190.13   1 0.56793-0.15912-0.80451 0.87416-0.17382-0.45882
   2  -1  1413286.35 1502.18   1 0.56977-0.15743-0.79565 0.86542-0.20565-0.47566
   2  -1  15  635.46  883.32   1 0.57097-0.15510-0.78608 0.85597-0.23677-0.49321
   2  -1  16 1484.13  944.51   1 0.57156-0.15216-0.77580 0.84580-0.26730-0.51134
   2  -1  1712240.98 1884.14   1 0.57155-0.14863-0.76478 0.83490-0.29736-0.52995
   2  -1  18 2786.36 2617.41   1 0.57097-0.14451-0.75302 0.82325-0.32701-0.54896
   2  -1  18 3376.87 2671.56   1 0.82723-0.40065-0.53200 0.59985-0.18076-0.69258
  -2   0  1911905.61 3321.10   1 0.62288-0.91723-0.33539 0.33572-0.70679-0.21446
  -2   0  18 9014.91 2247.74   1 0.62708-0.92500-0.33885 0.33916-0.70140-0.17136
  -2   0  1711545.78 3132.44   1 0.62987-0.93136-0.34115 0.34144-0.69777-0.12650
  -2   0  1621589.71 1296.02   1 0.63111-0.93616-0.34217 0.34245-0.69615-0.07963
  -2   0  1510792.03  868.15   1 0.63060-0.93921-0.34175 0.34201-0.69683-0.03047
  -2   0  14  445.81  268.96   1 0.62805-0.94023-0.33965 0.33989-0.70015 0.02132
  -2   0  1313654.28 1118.39   1 0.62311-0.93885-0.33558 0.33581-0.70649 0.07616
  -2   0  1219746.07 1089.39   1 0.61527-0.93458-0.32916 0.32937-0.71631 0.13446
  -2   0  1133184.72 1439.09   1 0.60387-0.92675-0.31989 0.32007-0.73008 0.19672
  -2   0  1036542.82 1363.88   1 0.58800-0.91445-0.30708 0.30725-0.74831 0.26344
  -2   0   9 1768.91  778.26   1 0.56645-0.89645-0.28988 0.29004-0.77144 0.33505
  -2   0   8 1387.44  496.24   1 0.53759-0.87116-0.26716 0.26730-0.79977 0.41187
  -2   0   715413.34 1170.60   1 0.49833-0.83596-0.23734 0.23780-0.83388 0.49461
   2   0  -6558357.818397.51   1 0.57105-0.22921-0.75417 0.75347-0.32423 0.61622
  -2   0   6587539.519824.93   1 0.44812-0.78928-0.19916 0.19955-0.87152 0.58071
  -2   0   5337404.720142.80   1 0.38304-0.72774-0.15073 0.15105-0.91136 0.66902
  -2   0   414909.99  751.29   1 0.30085-0.64900-0.08938 0.08952-0.94948 0.75552
  -2   0   415972.31  742.71   1 0.29547-0.64389-0.17034 0.17048-0.94004 0.74587
   2   0  -311727.31 1107.89   1-0.10885 0.46068 0.63835-0.63849 0.76204-0.61656
  -2   0   311817.66  644.10   1 0.19933-0.55103-0.01759 0.01769-0.97978 0.83431
   2   0  -311411.31  599.79   1 0.53704-0.18565-0.26673 0.26668-0.80028 0.94574
  -2   0   311493.42  573.00   1 0.19926-0.55125-0.01194 0.01205-0.97987 0.83425
   2   0  -218960.96  912.49   1-0.02550 0.38099 0.60739-0.60749 0.79402-0.69703
   2   0  -218681.53  819.17   1 0.43158-0.07629-0.18675 0.18662-0.88254 0.97947
  -2   0   219531.38  808.73   1 0.07724-0.43279 0.17420-0.17416-0.98167 0.88450
   2   0  -1137190.8 3077.98   1 0.07189 0.28717 0.56523-0.56528 0.82182-0.77333
   2   0  -1132319.2 2843.24   1 0.31048 0.04831-0.09630 0.09626-0.94570 0.99419
  -2   0   1138273.5 2975.16   1-0.05713-0.30208 0.36356-0.36353-0.92981 0.88124
   2   0  -1135460.5 2843.40   1 0.30871 0.05041-0.19308 0.19304-0.93135 0.97989
   2   0   037397.44 1450.96   1 0.18132 0.18132 0.50916-0.50916 0.84138-0.84138
   2   0   035904.95 1496.11   1 0.18117 0.18117-0.00495 0.00495-0.98345 0.98345
  -2   0   037917.01 1360.76   1-0.18126-0.18126 0.52327-0.52327-0.83266 0.83266
   2   0   037232.67 1333.53   1 0.18139 0.18139 0.01594-0.01594-0.98328 0.98328
   2   0   117494.66  812.22   1 0.29869 0.06749 0.43808-0.43812 0.84788-0.89640
  -2   0  -116661.54  795.55   1-0.08405-0.28204 0.62988-0.62993 0.77216-0.72367
   2   0   117687.20  808.39   1 0.27730 0.08854-0.67289 0.67296 0.68579-0.73436
   2   0   118389.96  773.38   1 0.05681 0.30957 0.20405-0.20403-0.97731 0.92872
   2   0   211058.74  594.19   1 0.41721-0.04739 0.35411-0.35410 0.83701-0.93403
  -2   0  -2 9946.59  561.98   1 0.01372-0.38353 0.59127-0.59137 0.80638-0.70939
   2   0   210683.78  587.45   1 0.34841 0.02131-0.74111 0.74114 0.57389-0.67101
   2   0   210770.26  545.14   1-0.04791 0.41783 0.35108-0.35101-0.93511 0.83797
   2   0   3 3155.82  562.83   1 0.52975-0.15634 0.25958-0.25956 0.80748-0.95301
  -2   0  -3 2499.11  542.05   1 0.10803-0.48142 0.54774-0.54789 0.82967-0.68417
   2   0   3 3050.89  319.29   1 0.40018-0.02688-0.78422 0.78426 0.47418-0.61984
   2   0   3 2500.51  506.06   1-0.12827 0.50154 0.45677-0.45673-0.88028 0.73474
   2   0   423231.62  965.05   1 0.63029-0.25302 0.16081-0.16077 0.75955-0.95403
   2   0   422977.71 1077.97   1 0.43826-0.06138-0.81106 0.81111 0.38743-0.58165
   2   0   420625.78  887.06   1-0.18734 0.56418 0.53071-0.53065-0.82658 0.63253
   2   0   526226.89  767.54   1 0.71354-0.33273 0.06121-0.06115 0.69796-0.94106
   2   0   524960.14 1213.14   1 0.46702-0.08641-0.82735 0.82742 0.31204-0.55489
   2   0   622896.87 1509.29   1 0.77898-0.39524-0.03264 0.03275 0.62623-0.91802
   2   0   622230.04 1586.99   1 0.48906-0.10488-0.83696 0.83705 0.24555-0.53697
   2   0   720706.87 1390.45   1 0.82662-0.43943-0.12049 0.12062 0.54974-0.89016
   2   0   719679.01 1494.48   1 0.50639-0.11864-0.84196 0.84205 0.18619-0.52617
   2   0   817953.16 1046.99   1 0.85791-0.46656-0.20066 0.20032 0.47303-0.86153
   2   0   817826.10 2186.11   1 0.52026-0.12894-0.84368 0.84379 0.13239-0.52095
   2   0   918570.97 1183.63   1 0.87744-0.48252-0.27058 0.27019 0.39613-0.83319
   2   0   918275.70 1429.59   1 0.53089-0.13602-0.84370 0.84501 0.07946-0.51715
   2   0  1028064.45 1237.22   1 0.54010-0.14171-0.84093 0.84238 0.03359-0.51991
   2   0  1161802.23 2475.06   1 0.54765-0.14574-0.83665 0.83825-0.00950-0.52545
   2   0  12 5998.83 1338.37   1 0.55384-0.14840-0.83110 0.83284-0.05034-0.53324
   2   0  13 6366.70 1958.46   1 0.55886-0.14990-0.82443 0.82632-0.08933-0.54287
   2   0  14 6488.89 2327.57   1 0.56286-0.15038-0.81676 0.81880-0.12681-0.55403
   2   0  15 5799.18 1815.28   1 0.56711-0.15115-0.80749 0.80922-0.16226-0.56772
   2   0  16 7478.88 3020.12   1 0.56935-0.14986-0.79802 0.79986-0.19747-0.58117
   2   0  1718074.16 3166.94   1 0.57081-0.14779-0.78767 0.78963-0.23180-0.59551
   2   0  18 6550.11 1076.73   1 0.57154-0.14498-0.77647 0.77855-0.26537-0.61060
  -2  -1  19 1268.42  762.34   1 0.60598-0.90031-0.32159 0.38981-0.72759-0.19366
  -2  -1  18 9438.30 2299.42   1 0.60955-0.90745-0.32450 0.39270-0.72330-0.14946
  -2  -1  1717232.71 1740.80   1 0.61164-0.91310-0.32620 0.39438-0.72076-0.10351
  -2  -1  16 1795.63  765.40   1 0.61209-0.91712-0.32657 0.39473-0.72021-0.05557
  -2  -1  15 6014.82 2618.83   1 0.61069-0.91928-0.32543 0.39357-0.72192-0.00538
  -2  -1  1412977.03  943.92   1 0.60716-0.91931-0.32255 0.39068-0.72618 0.04736
  -2  -1  1318435.33 1102.36   1 0.60112-0.91684-0.31765 0.38576-0.73333 0.10299
  -2  -1  1259616.43 2305.22   1 0.59208-0.91136-0.31035 0.37845-0.74373 0.16189
  -2  -1  1193347.10 2475.11   1 0.57939-0.90224-0.30018 0.36826-0.75777 0.22441
  -2  -1  10 7090.33  666.38   1 0.56221-0.88863-0.28652 0.35458-0.77578 0.29091
  -2  -1   9 4364.58  603.70   1 0.53943-0.86942-0.26860 0.33665-0.79805 0.36166
  -2  -1   810128.76  859.33   1 0.50863-0.84268-0.24527 0.31372-0.82532 0.43758
  -2  -1   772824.85 1564.73   1 0.47015-0.80774-0.21582 0.28420-0.85580 0.51653
  -2  -1   629318.61 1348.36   1 0.42095-0.76207-0.17881 0.24712-0.88929 0.59849
   2   1  -5124445.5 3007.96   1-0.13566 0.48030 0.64698-0.71511 0.75037-0.50790
  -2  -1   5122749.1 3011.29   1 0.35894-0.70360-0.13306 0.20131-0.92383 0.68150
   2   1  -4221650.1 4779.61   1-0.07483 0.42304 0.62661-0.69469 0.77576-0.58178
  -2  -1   4216437.2 4546.87   1 0.28296-0.63109-0.07658 0.14464-0.95608 0.76211
  -2  -1   4219061.9 4608.56   1 0.27124-0.61966-0.12934 0.19747-0.95378 0.75961
   2   1  -3128793.4 3004.98   1-0.00294 0.35484 0.59826-0.66635 0.80132-0.65583
  -2  -1   3125401.0 2831.93   1 0.19118-0.54287-0.01191 0.07994-0.98149 0.83602
  -2  -1   3124337.9 2785.80   1 0.19312-0.54505-0.00257 0.07064-0.98117 0.83541
   2   1  -214151.35  759.57   1 0.08015 0.27532 0.56132-0.62935 0.82374-0.72674
  -2  -1   214475.28  703.84   1 0.09883-0.45437 0.14226-0.07421-0.98488 0.88771
   2   1  -1 6983.37  534.67   1 0.17301 0.18604 0.51375-0.58173 0.84034-0.79184
  -2  -1   1 6882.49  594.71   1-0.00475-0.35446 0.29162-0.22355-0.95652 0.90795
   2   1  -1 6953.42  441.05   1 0.28736 0.07177-0.15651 0.08848-0.94494 0.99349
   2   1   070272.53 1820.40   1 0.27290 0.08966 0.45468-0.52266 0.84784-0.84784
  -2  -1   068101.50 1680.08   1-0.10713-0.25541 0.42946-0.36150-0.89670 0.89670
   2   1   069992.46 1720.61   1 0.18861 0.17415 0.00455-0.07257-0.98204 0.98204
   2   1   1115918.7 2667.62   1 0.37579-0.00963 0.38478-0.45280 0.84307-0.89159
  -2  -1  -1127869.7 2799.71   1-0.19928-0.16683 0.54522-0.47726-0.81426 0.86277
   2   1   1120125.5 2664.62   1 0.09086 0.27552 0.15410-0.22210-0.98386 0.93528
   2   1   278279.74 1955.19   1 0.47638-0.10656 0.30639-0.37434 0.82415-0.92117
   2   1   279609.47 2045.56   1 0.26645 0.10297-0.66171 0.59386 0.70081-0.79795
   2   1   275930.28 1880.01   1 0.00335 0.36655 0.28026-0.34821-0.95991 0.86277
   2   1   3110197.1 2539.29   1 0.56994-0.19653 0.22159-0.28954 0.79126-0.93679
   2   1   3110006.1 2663.29   1 0.32773 0.04523-0.72230 0.65451 0.60898-0.75469
   2   1   399508.57 2381.22   1-0.06940 0.44288 0.38005-0.44797-0.92235 0.77664
   2   1   432198.63 1274.53   1 0.65327-0.27599 0.13514-0.20313 0.74499-0.93947
   2   1   430890.19 1441.93   1 0.37607 0.00086-0.76496 0.69697 0.52287-0.71710
   2   1   510600.53  804.50   1 0.72281-0.34198 0.04880-0.11679 0.68934-0.93244
   2   1   510837.00 1086.35   1 0.41450-0.03398-0.79487 0.72689 0.44312-0.68590
   2   1   6 9268.04  726.68   1 0.77908-0.39534-0.03280-0.03507 0.62610-0.91788
   2   1   6 8655.27  777.26   1 0.44512-0.06102-0.81533 0.74736 0.37026-0.66160
   2   1   741147.14 1022.97   1 0.82163-0.43445-0.11013 0.04227 0.55930-0.89972
   2   1   739623.40 1430.10   1 0.46991-0.08204-0.82878 0.76078 0.30381-0.64380
   2   1   876712.90 1955.39   1 0.85126-0.45995-0.18212 0.11378 0.49215-0.88065
   2   1   874250.21 2269.15   1 0.48995-0.09851-0.83728 0.76929 0.24269-0.63125
   2   1   953920.64 1978.65   1 0.87166-0.47678-0.24622 0.17782 0.42381-0.86087
   2   1   953480.04 2743.33   1 0.50639-0.11138-0.84196 0.77398 0.18620-0.62333
   2   1  1037695.35 1176.29   1 0.88346-0.48501-0.30391 0.23548 0.35661-0.84223
   2   1  1038417.32 3238.96   1 0.51997-0.12139-0.84367 0.77570 0.13361-0.61930
   2   1  1123884.01 1907.29   1 0.53054-0.12847-0.84377 0.77717 0.08108-0.61603
   2   1  12 5067.41 1701.72   1 0.53992-0.13433-0.84100 0.77455 0.03450-0.61808
   2   1  13 5450.32 1476.87   1 0.54770-0.13859-0.83661 0.77030-0.00978-0.62243
   2   1  1412062.28 3895.07   1 0.55409-0.14145-0.83082 0.76466-0.05212-0.62871
   2   1  15 1123.46  561.70   1 0.55926-0.14311-0.82377 0.75775-0.09282-0.63665
   2   1  16 1716.57  963.39   1 0.56336-0.14368-0.81558 0.74970-0.13212-0.64598
   2   1  1713805.93 1348.62   1 0.56765-0.14453-0.80558 0.73938-0.16973-0.65758
   2   1  18 3958.59 2989.84   1 0.56982-0.14317-0.79530 0.72922-0.20685-0.66912
  -2  -2  1922309.12 1623.82   1 0.58633-0.88064-0.30574 0.44184-0.75017-0.17108
  -2  -2  18 9195.20 2252.49   1 0.58921-0.88709-0.30805 0.44414-0.74695-0.12581
  -2  -2  1721807.18 2077.79   1 0.59053-0.89197-0.30911 0.44518-0.74547-0.07880
  -2  -2  16 8964.47 1660.34   1 0.59012-0.89512-0.30878 0.44483-0.74594-0.02985
  -2  -2  1515098.65 3183.97   1 0.58775-0.89632-0.30688 0.44291-0.74859 0.02128
  -2  -2  14 5877.80 1793.34   1 0.58314-0.89527-0.30318 0.43920-0.75369 0.07486
  -2  -2  13 7333.60  666.91   1 0.57591-0.89161-0.29740 0.43341-0.76150 0.13117
  -2  -2  1213738.72  853.25   1 0.56558-0.88485-0.28919 0.42518-0.77233 0.19048
  -2  -2  1033346.81 1363.61   1 0.53299-0.85938-0.26357 0.39952-0.80403 0.31916
  -2  -2   935696.01 1366.01   1 0.50788-0.83836-0.24470 0.38113-0.82595 0.38974
  -2  -2   832263.32 1125.02   1 0.47716-0.81117-0.22115 0.35752-0.85054 0.46280
   2   2  -742239.28 1277.28   1-0.13011 0.46757 0.64524-0.78137 0.75285-0.41339
  -2  -2   743123.25 1224.19   1 0.43834-0.77589-0.19182 0.32812-0.87811 0.53884
   2   2  -6 4356.85  508.42   1-0.08516 0.42618 0.63027-0.76634 0.77172-0.48076
  -2  -2   6 4132.82 1453.63   1 0.38988-0.73096-0.15577 0.29201-0.90760 0.61680
   2   2  -516938.95 1325.99   1-0.03172 0.37645 0.60984-0.74596 0.79192-0.54943
  -2  -2   517316.10 1334.77   1 0.33029-0.67490-0.11222 0.24839-0.93719 0.69486
  -2  -2   518969.03 1370.64   1 0.30212-0.64697-0.18173 0.31789-0.93578 0.69308
   2   2  -4101691.0 2553.75   1 0.03096 0.31734 0.58382-0.71989 0.81132-0.61733
  -2  -2   4102105.5 2467.74   1 0.25916-0.60728-0.05965 0.19564-0.96400 0.77003
  -2  -2   495171.85 2384.46   1 0.24752-0.59595-0.08997 0.22610-0.96469 0.77053
   2   2  -321888.72 1040.02   1 0.10251 0.24937 0.55048-0.68650 0.82856-0.68307
  -2  -2   325345.35 1120.21   1 0.17487-0.52654-0.00058 0.13654-0.98460 0.83912
  -2  -2   324920.53 1122.40   1 0.18112-0.53304 0.01636 0.11972-0.98332 0.83757
   2   2  -214580.47  781.53   1 0.18198 0.17348 0.50879-0.64476 0.84146-0.74447
  -2  -2   215866.10  807.71   1 0.10382-0.45936 0.13481 0.00125-0.98541 0.88824
   2   2  -167525.79 1810.62   1 0.26738 0.09158 0.45816-0.59407 0.84773-0.79921
  -2  -2   167092.67 1756.89   1 0.01950-0.37871 0.25747-0.12138-0.96609 0.91751
   2   2  -163965.36 1693.18   1 0.28135 0.07777-0.14635 0.01032-0.94837 0.99691
   2   2   035072.46 1475.53   1 0.35631 0.00623 0.39879-0.53475 0.84502-0.84502
  -2  -2   034486.47 1452.18   1-0.06605-0.29672 0.37556-0.23951-0.92444 0.92444
   2   2   032385.99 1315.45   1 0.20120 0.16149-0.01503-0.12095-0.97943 0.97943
   2   2   150857.76 1899.22   1 0.44500-0.07877 0.33220-0.46813 0.83166-0.88017
  -2  -2  -153050.94 1921.78   1-0.14741-0.21871 0.48110-0.34519-0.86418 0.91269
  -2  -2  -295522.28 2306.76   1-0.22044-0.14925 0.57055-0.43465-0.79111 0.88814
   2   2   399722.76 2375.35   1 0.60841-0.23465 0.18418-0.32023 0.77198-0.91784
   2   2   396176.16 2497.62   1 0.26965 0.10334-0.66503 0.52926 0.69643-0.84213
   2   2   4166624.6 2419.11   1 0.67716-0.29986 0.10709-0.24312 0.72803-0.92251
   2   2   4163139.6 2625.94   1 0.32269 0.05385-0.71756 0.58186 0.61722-0.81150
   2   2   532145.00 1059.85   1 0.73550-0.35465 0.03130-0.16732 0.67683-0.91993
   2   2   532381.58 1173.09   1 0.36656 0.01400-0.75696 0.62093 0.54095-0.78373
   2   2   657162.05 1477.78   1 0.78376-0.40003-0.04055-0.09531 0.61976-0.91155
   2   2   655675.94 1565.20   1 0.40310-0.01895-0.78644 0.65042 0.46799-0.75933
   2   2   715678.22 2317.27   1 0.82120-0.43403-0.10925-0.02659 0.56011-0.90053
   2   2   714370.13 1210.19   1 0.43338-0.04565-0.80790 0.67190 0.39933-0.73923
   2   2   840234.71 1315.98   1 0.84822-0.45694-0.17415 0.03779 0.50022-0.88871
   2   2   840274.31 1982.79   1 0.45870-0.06715-0.82298 0.68689 0.33509-0.72364
   2   2   962582.07 1697.13   1 0.86800-0.47315-0.23279 0.09639 0.43866-0.87571
   2   2   963831.04 2063.99   1 0.47974-0.08462-0.83328 0.69721 0.27472-0.71185
   2   2  1070904.66 1796.96   1 0.88059-0.48217-0.28646 0.15002 0.37754-0.86316
   2   2  1068340.26 2219.64   1 0.49738-0.09869-0.83970 0.70363 0.21797-0.70367
   2   2  1136224.98 1805.78   1 0.51221-0.10995-0.84297 0.70692 0.16442-0.69869
   2   2  12 7253.33 2062.31   1 0.52469-0.11885-0.84366 0.70763 0.11367-0.69651
   2   2  1326564.17 3089.39   1 0.53445-0.12518-0.84289 0.70838 0.06242-0.69464
   2   2  1415803.74 2207.30   1 0.54327-0.13048-0.83940 0.70503 0.01621-0.69706
   2   2  1526138.72 1479.99   1 0.55059-0.13428-0.83429 0.70007-0.02815-0.70132
   2   2  1640192.67 3463.24   1 0.55660-0.13676-0.82774 0.69367-0.07092-0.70718
   2   2  17 2869.23 1459.22   1 0.56140-0.13805-0.81988 0.68595-0.11231-0.71442
  -2  -3  18 5769.71 1470.61   1 0.56602-0.86387-0.28954 0.49352-0.77188-0.10088
  -2  -3  17 7482.33 2266.14   1 0.56651-0.86792-0.28993 0.49389-0.77138-0.05290
  -2  -3  16 6242.52 2129.37   1 0.56516-0.87014-0.28886 0.49280-0.77276-0.00302
  -2  -3  1527321.01 2192.03   1 0.56176-0.87030-0.28617 0.49009-0.77624 0.04893
  -2  -3  14 3186.93  864.27   1 0.55601-0.86812-0.28162 0.48553-0.78202 0.10320
  -2  -3  1317991.26 1036.15   1 0.54753-0.86321-0.27495 0.47884-0.79033 0.16000
  -2  -3  1284799.64 3069.56   1 0.53587-0.85511-0.26582 0.46969-0.80137 0.21953
  -2  -3  1136219.83 1460.01   1 0.52044-0.84324-0.25381 0.45767-0.81532 0.28196
   2   3 -1014665.16  969.34   1-0.12855 0.45525 0.64474-0.84891 0.75354-0.26860
  -2  -3  1016188.13 1345.27   1 0.49941-0.82631-0.23817 0.44260-0.83299 0.34832
   2   3  -912131.00 1257.80   1-0.10149 0.43176 0.63589-0.84001 0.76511-0.32866
  -2  -3   912551.61  846.27   1 0.47413-0.80457-0.21885 0.42321-0.85283 0.41662
   2   3  -8 9711.24  776.68   1-0.06819 0.40202 0.62421-0.82828 0.77830-0.39035
  -2  -3   810146.81  756.21   1 0.44248-0.77645-0.19492 0.39922-0.87534 0.48761
   2   3  -715280.64 1222.30   1-0.02833 0.36590 0.60851-0.81267 0.79307-0.45358
  -2  -3   716122.97 1251.33   1 0.40332-0.74082-0.16570 0.36993-0.89994 0.56067
   2   3  -622340.64 1604.56   1 0.01900 0.32214 0.58902-0.79313 0.80792-0.51694
  -2  -3   622995.58 1635.91   1 0.35547-0.69650-0.13052 0.33468-0.92554 0.63474
  -2  -3   623441.42 1692.28   1 0.31422-0.65551-0.20264 0.40684-0.92746 0.63622
   2   3  -544644.57 1297.16   1 0.07371 0.27100 0.56437-0.76843 0.82225-0.57976
  -2  -3   548464.84 1281.87   1 0.29874-0.64330-0.08787 0.29182-0.95029 0.70783
  -2  -3   547662.92 1366.25   1 0.27343-0.61829-0.13302 0.33718-0.95264 0.70994
   2   3  -438099.28 1166.77   1 0.13561 0.21269 0.53372-0.73773 0.83474-0.64075
  -2  -3   437877.51 1093.04   1 0.23073-0.57883-0.03957 0.24349-0.97222 0.77825
  -2  -3   436668.58 1116.73   1 0.22399-0.57242-0.05159 0.25573-0.97322 0.77906
   2   3  -368420.11 1919.20   1 0.20352 0.14825 0.49648-0.70029 0.84388-0.69833
  -2  -3   368203.38 2210.27   1 0.15244-0.50409 0.01491 0.18896-0.98821 0.84273
  -2  -3   368559.23 1896.83   1 0.16597-0.51789 0.04004 0.16406-0.98531 0.83956
   2   3  -219842.01  988.54   1 0.27714 0.07820 0.45199-0.65584 0.84790-0.75087
  -2  -3   218987.13  966.84   1 0.10013-0.45567 0.14031 0.06376-0.98503 0.88786
   2   3  -182714.14 2146.82   1 0.35390 0.00503 0.40050-0.60438 0.84522-0.79671
  -2  -3   184665.98 2183.32   1 0.02889-0.38810 0.24410-0.03998-0.96931 0.92074
   2   3   0194068.9 4228.42   1 0.43148-0.06883 0.34297-0.54687 0.83441-0.83441
  -2  -3   0181436.2 3988.74   1-0.04415-0.31861 0.34597-0.14189-0.93720 0.93720
   2   3   1237026.2 4983.22   1 0.50696-0.14073 0.28003-0.48393 0.81523-0.86374
  -2  -3  -1233818.6 4961.02   1-0.11568-0.25045 0.44055-0.23667-0.89024 0.93875
   2   3   238324.56 1529.25   1 0.57815-0.20832 0.21352-0.41741 0.78752-0.88454
  -2  -3  -236926.02 1585.93   1-0.18256-0.18714 0.52485-0.32099-0.83138 0.92840
   2   3   3  202.74  197.71   1 0.64382-0.27005 0.14584-0.34992 0.75117-0.89703
   2   3   4 9618.88  973.05   1 0.70114-0.32381 0.07733-0.28140 0.70885-0.90333
   2   3   4 9573.06  879.34   1 0.27995 0.09663-0.67559 0.47191 0.68205-0.87633
   2   3   527161.99 1203.03   1 0.75079-0.37052 0.01110-0.21498 0.66047-0.90363
   2   3   525052.20 1326.26   1 0.32639 0.05373-0.72105 0.51743 0.61119-0.85403
   2   3   627913.61 1007.40   1 0.79146-0.40774-0.05363-0.15022 0.60889-0.90068
   2   3   630400.89 1213.65   1 0.36599 0.01821-0.75647 0.55241 0.54203-0.83337
   2   3   753870.04 1716.39   1 0.82405-0.43688-0.11510-0.08873 0.55474-0.89515
   2   3   755546.39 1968.26   1 0.39997-0.01219-0.78406 0.58001 0.47462-0.81451
   2   3   8151587.1 3898.34   1 0.84810-0.45685-0.17383-0.03053 0.50055-0.88904
   2   3   8156885.9 4081.49   1 0.42892-0.03756-0.80494 0.60091 0.40998-0.79843
   2   3   999802.25 2317.85   1 0.86646-0.47164-0.22748 0.02307 0.44445-0.88151
   2   3   997955.32 2764.96   1 0.45373-0.05849-0.82020 0.61602 0.34842-0.78555
   2   3  1017440.46  828.88   1 0.87882-0.48043-0.27722 0.07277 0.38841-0.87403
   2   3  1020009.39 3368.78   1 0.47476-0.07595-0.83107 0.62691 0.28967-0.77537
   2   3  1135063.16 3042.48   1 0.49269-0.09032-0.83823 0.63408 0.23370-0.76797
   2   3  12 9452.95 2264.04   1 0.50800-0.10205-0.84227 0.63814 0.18028-0.76312
   2   3  1314565.46 3597.47   1 0.52104-0.11152-0.84370 0.63958 0.12918-0.76059
   2   3  14 8971.86 2153.54   1 0.53132-0.11837-0.84362 0.64106 0.07745-0.75830
   2   3  15 5046.76 1392.40   1 0.54072-0.12425-0.84065 0.63824 0.03026-0.75974
   2   3  16  543.65  577.45   1 0.54858-0.12859-0.83595 0.63368-0.01528-0.76283
   2   3  17 1910.68  932.67   1 0.55508-0.13156-0.82967 0.62755-0.05936-0.76737
   2   4 -18 3098.71 1459.74   1-0.10395 0.40204 0.63671-0.90916 0.76409 0.10880
  -2  -4  18 4370.62 1835.05   1 0.53993-0.83776-0.26899 0.54086-0.79758-0.07518
   2   4 -17 5399.27 3099.22   1-0.10761 0.40928 0.63794-0.91034 0.76256 0.06184
  -2  -4  17 9748.36 3142.48   1 0.53953-0.84092-0.26868 0.54053-0.79795-0.02632
   2   4 -1627769.11 2449.14   1-0.10816 0.41340 0.63812-0.91047 0.76233 0.01358
  -2  -4  1627904.95 2477.43   1 0.53720-0.84216-0.26686 0.53869-0.80013 0.02434
   2   4 -1521509.16 1243.79   1-0.10539 0.41419 0.63720-0.90950 0.76349-0.03607
  -2  -4  1519556.38 1264.85   1 0.53272-0.84124-0.26336 0.53517-0.80428 0.07697
   2   4 -1414804.84 1044.17   1-0.09902 0.41139 0.63505-0.90730 0.76613-0.08721
  -2  -4  1414776.82 3006.21   1 0.52578-0.83786-0.25796 0.52975-0.81057 0.13175
   2   4 -13 2675.32  472.26   1-0.08874 0.40468 0.63152-0.90372 0.77030-0.13987
  -2  -4  13 2569.84  944.07   1 0.51603-0.83168-0.25040 0.52217-0.81916 0.18883
   2   4 -12 7152.52 1381.86   1-0.07420 0.39371 0.62638-0.89854 0.77601-0.19407
  -2  -4  12 5981.71 1579.23   1 0.50187-0.82166-0.24006 0.51254-0.83097 0.24936
   2   4 -11 7291.01  652.35   1-0.05501 0.37809 0.61935-0.89146 0.78321-0.24977
  -2  -4  11 7799.23  651.16   1 0.48506-0.80839-0.22718 0.49960-0.84446 0.31132
   2   4 -1020639.74 1040.93   1-0.03107 0.35788 0.60959-0.88183 0.79214-0.30716
  -2  -4  1020472.75 1483.07   1 0.46382-0.79067-0.21102 0.48337-0.86044 0.37577
   2   4  -962735.23 1910.91   1-0.00133 0.33172 0.59760-0.86979 0.80182-0.36534
  -2  -4   962474.81 1865.46   1 0.43737-0.76776-0.19108 0.46337-0.87876 0.44255
   2   4  -846424.10 1663.40   1 0.03422 0.29975 0.58239-0.85453 0.81222-0.42423
  -2  -4   846344.67 1654.66   1 0.40487-0.73879-0.16685 0.43907-0.89903 0.51129
   2   4  -780949.94 2314.75   1 0.07582 0.26173 0.56338-0.83547 0.82274-0.48326
  -2  -4   784274.81 2352.92   1 0.36541-0.70286-0.13778 0.40994-0.92060 0.58133
  -2  -4   777791.62 2388.95   1 0.31616-0.65387-0.20600 0.47824-0.92606 0.58628
   2   4  -640527.36 1281.45   1 0.12351 0.21762 0.53995-0.81199 0.83262-0.54163
  -2  -4   640880.44 1392.58   1 0.31911-0.66011-0.10252 0.37442-0.94216 0.65121
  -2  -4   642668.13 1442.33   1 0.28410-0.62538-0.15099 0.42319-0.94683 0.65558
   2   4  -5 7284.82  701.70   1 0.17706 0.16765 0.51152-0.78352 0.84086-0.59837
  -2  -4   5 8262.33  845.92   1 0.26325-0.60780-0.06256 0.33443-0.96270 0.72024
  -2  -4   5 7458.37  755.89   1 0.24565-0.59051-0.08689 0.35906-0.96545 0.72275
   2   4  -4100050.1 1948.43   1 0.23537 0.11279 0.47780-0.74954 0.84638-0.65231
  -2  -4   497460.00 2036.87   1 0.19853-0.54662-0.01703 0.28887-0.97996 0.78599
  -2  -4   495423.32 2002.31   1 0.20047-0.54889-0.01387 0.28600-0.97960 0.78544
   2   4  -335488.86 1113.00   1 0.29865 0.05309 0.43811-0.70989 0.84789-0.70234
  -2  -4   335560.40 1148.51   1 0.14879-0.50071 0.06662 0.20549-0.98662 0.84087
   2   4  -2 5342.53  555.04   1 0.36478-0.00946 0.39274-0.66457 0.84423-0.74720
  -2  -4   2 5350.28 1731.64   1 0.09124-0.44678 0.15353 0.11856-0.98392 0.88675
   2   4  -128123.46  996.32   1 0.43225-0.07319 0.34237-0.61424 0.83426-0.78575
  -2  -4   128692.80 1033.53   1 0.02945-0.38866 0.24331 0.02883-0.96950 0.92093
   2   4   0177166.9 6154.37   1 0.49863-0.13598 0.28734-0.55920 0.81783-0.81783
  -2  -4   0173122.9 2707.06   1-0.03416-0.32860 0.33232-0.06021-0.94254 0.94254
   2   4   113955.14 1061.64   1 0.56239-0.19615 0.22892-0.50078 0.79457-0.84308
  -2  -4  -114199.76 1178.81   1-0.09745-0.26867 0.41683-0.14499-0.90374 0.95225
   2   4   266624.28 1468.06   1 0.62274-0.25250 0.16898-0.44111 0.76398-0.86122
  -2  -4  -265778.32 1528.96   1-0.15814-0.21156 0.49460-0.22277-0.85461 0.95163
   2   4   329739.67 1071.32   1 0.67683-0.30304 0.10748-0.37960 0.72827-0.87413
  -2  -4  -330527.92 1043.64   1-0.21459-0.15869 0.56359-0.29178-0.79769 0.94323
   2   4   492480.07 2147.75   1 0.72466-0.34731 0.04630-0.31841 0.68758-0.88206
   2   4   494683.28 2179.86   1 0.24767 0.12894-0.64194 0.37028 0.72564-0.91992
   2   4   529663.85 1444.53   1 0.76653-0.38626-0.01274-0.25912 0.64211-0.88527
   2   4   530187.41 1267.93   1 0.29422 0.08593-0.68995 0.41835 0.66136-0.90421
   2   4   6 3759.56  504.85   1 0.80106-0.41735-0.07063-0.20121 0.59443-0.88621
   2   4   6 4297.97  998.88   1 0.33533 0.04836-0.72935 0.45782 0.59631-0.88772
   2   4   7 4490.00  893.29   1 0.82916-0.44200-0.12592-0.14590 0.54467-0.88509
   2   4   7 4718.63  840.43   1 0.37111 0.01672-0.76081 0.48872 0.53238-0.87228
   2   4   8 1464.93  441.02   1 0.85017-0.45896-0.17923-0.09313 0.49509-0.88358
   2   4   8 1429.35  458.49   1 0.40247-0.01105-0.78596 0.51388 0.46934-0.85779
   2   4   910281.54 1851.54   1 0.86671-0.47193-0.22835-0.04405 0.44350-0.88055
   2   4   912823.35 2332.29   1 0.42970-0.03470-0.80546 0.53339 0.40814-0.84515
   2   4  1013075.60  768.03   1 0.87824-0.47989-0.27437 0.00191 0.39173-0.87735
   2   4  1017061.96 3403.43   1 0.45345-0.05453-0.82004 0.54778 0.34914-0.83484
   2   4  11  367.29  298.00   1 0.47390-0.07141-0.83068 0.55843 0.29220-0.82647
   2   4  12 5879.83 1553.04   1 0.49158-0.08551-0.83785 0.56561 0.23738-0.82022
   2   4  1316768.76 3628.47   1 0.50683-0.09719-0.84205 0.56982 0.18458-0.81599
   2   4  1410756.74 3517.24   1 0.51995-0.10674-0.84367 0.57146 0.13367-0.81365
   2   4  15 9527.27 2371.95   1 0.53034-0.11372-0.84380 0.57319 0.08201-0.81149
   2   4  1614241.24 3990.86   1 0.53995-0.11980-0.84099 0.57052 0.03438-0.81249
   2   4  17  302.23  538.43   1 0.54803-0.12436-0.83637 0.56605-0.01180-0.81493
   2   5 -17 9043.04 1107.78   1-0.02092 0.32267 0.60557-0.94610 0.79554 0.02892
  -2  -5  17 8355.97 2490.01   1 0.50837-0.81046-0.24507 0.58581-0.82554 0.00159
   2   5 -16 2855.97 1511.46   1-0.01965 0.32497 0.60506-0.94554 0.79596-0.01999
  -2  -5  16 4225.04 1904.97   1 0.50502-0.81064-0.24249 0.58316-0.82835 0.05287
   2   5 -1512632.08 1317.40   1-0.01487 0.32377 0.60314-0.94356 0.79753-0.07005
  -2  -5  1514749.89 3665.44   1 0.49942-0.80857-0.23818 0.57878-0.83298 0.10597
   2   5 -14 2407.94  986.64   1-0.00635 0.31883 0.59967-0.94004 0.80025-0.12128
  -2  -5  14 3624.44 1559.63   1 0.49128-0.80397-0.23194 0.57247-0.83956 0.16102
   2   5 -13 9483.11  765.09   1 0.00615 0.30991 0.59448-0.93480 0.80412-0.17364
  -2  -5  13 9436.44 1431.31   1 0.48025-0.79647-0.22351 0.56398-0.84818 0.21811
   2   5 -1216993.69  986.20   1 0.02292 0.29671 0.58732-0.92760 0.80905-0.22708
  -2  -5  1216840.93 2875.46   1 0.46593-0.78567-0.21262 0.55302-0.85891 0.27730
   2   5 -1155317.23 2377.17   1 0.04424 0.27898 0.57793-0.91816 0.81491-0.28143
  -2  -5  1152529.96 2210.62   1 0.44780-0.77108-0.19892 0.53926-0.87173 0.33859
   2   5 -1049258.01 2031.67   1 0.07035 0.25644 0.56595-0.90613 0.82146-0.33648
  -2  -5  1046986.41 2034.34   1 0.42530-0.75211-0.18205 0.52232-0.88656 0.40189
   2   5  -9 4770.06  549.88   1 0.10147 0.22891 0.55099-0.89112 0.82835-0.39186
  -2  -5   9 4163.92 1158.75   1 0.39778-0.72813-0.16160 0.50181-0.90315 0.46694
   2   5  -813061.33  764.31   1 0.13770 0.19625 0.53263-0.87271 0.83510-0.44711
  -2  -5   814335.67 2529.40   1 0.36454-0.69842-0.13715 0.47729-0.92104 0.53330
  -2  -5   813986.23 1148.95   1 0.31180-0.64595-0.19844 0.53870-0.92919 0.54086
   2   5  -7 3198.22  472.26   1 0.17901 0.15853 0.51044-0.85047 0.84110-0.50161
  -2  -5   7 3350.84 1388.06   1 0.32489-0.66230-0.10831 0.44839-0.93954 0.60027
  -2  -5   7 4295.62 1163.33   1 0.28569-0.62341-0.15369 0.49392-0.94591 0.60613
   2   5  -6 9862.25 2292.21   1 0.22438 0.11658 0.48434-0.82398 0.84564-0.55455
  -2  -5   6 8183.95  656.86   1 0.27925-0.62023-0.07393 0.41377-0.95738 0.66642
  -2  -5   6 8575.81  771.34   1 0.25469-0.59598-0.10179 0.44199-0.96164 0.67040
   2   5  -514627.45  892.00   1 0.27506 0.06949 0.45332-0.79299 0.84787-0.60529
  -2  -5   513390.09  843.09   1 0.22502-0.56955-0.03556 0.37536-0.97371 0.73125
  -2  -5   514444.67  973.87   1 0.21845-0.56331-0.04265 0.38281-0.97491 0.73221
   2   5  -411512.47  959.40   1 0.32931 0.01881 0.41759-0.75731 0.84688-0.65282
  -2  -5   413186.38 1074.81   1 0.16318-0.51126 0.00749 0.33226-0.98658 0.79261
  -2  -5   412440.91 1048.44   1 0.17693-0.52523 0.02292 0.31722-0.98395 0.78961
   2   5  -3 4895.25 1305.78   1 0.38609-0.03437 0.37722-0.71697 0.84183-0.69629
  -2  -5   3 5044.08 1645.56   1 0.13016-0.48207 0.09510 0.24502-0.98692 0.84116
   2   5  -214261.83 1096.63   1 0.44443-0.08896 0.33266-0.67250 0.83178-0.73476
  -2  -5   214313.77 1496.85   1 0.07893-0.43446 0.17172 0.16839-0.98197 0.88481
   2   5  -1109987.8 2027.23   1 0.50224-0.14318 0.28418-0.62402 0.81672-0.76821
  -2  -5   1109649.3 2159.49   1 0.02429-0.38349 0.25066 0.08950-0.96776 0.91919
   2   5   0127838.4 2209.79   1 0.55853-0.19588 0.23263-0.57246 0.79622-0.79622
  -2  -5   0122212.2 2268.26   1-0.03201-0.33075 0.32937 0.01076-0.94365 0.94365
   2   5   129611.90 1119.77   1 0.61288-0.24617 0.17948-0.51966 0.76955-0.81817
  -2  -5  -129272.12 1080.54   1-0.08848-0.27784 0.40543-0.06533-0.90983 0.95840
   2   5   215016.03 1171.29   1 0.66250-0.29224 0.12447-0.46464 0.73867-0.83591
  -2  -5  -214116.24 1106.58   1-0.14362-0.22609 0.47631-0.13652-0.86746 0.96449
   2   5   3 1772.44  839.44   1 0.70749-0.33368 0.06914-0.40930 0.70336-0.84922
  -2  -5  -3 1956.09  880.44   1-0.19592-0.17737 0.54115-0.20137-0.81778 0.96332
   2   5   4 7760.39 1269.33   1 0.74805-0.37124 0.01512-0.35500 0.66349-0.85802
   2   5   4 7834.60  750.66   1 0.22447 0.15217-0.61683 0.27719 0.75440-0.94868
   2   5   548106.91 1705.63   1 0.78258-0.40232-0.03859-0.30127 0.62138-0.86453
   2   5   547243.92 1793.15   1 0.26983 0.11035-0.66522 0.32564 0.69618-0.93903
   2   5   617160.00  923.78   1 0.81177-0.42806-0.09060-0.24924 0.57694-0.86873
   2   5   616979.50 1013.18   1 0.31086 0.07287-0.70626 0.36675 0.63604-0.92746
   2   5   737570.04 1609.71   1 0.83577-0.44861-0.14053-0.19929 0.53083-0.87125
   2   5   737272.69 1615.83   1 0.34738 0.04051-0.74019 0.40005 0.57570-0.91559
   2   5   8 5839.45 1332.04   1 0.85381-0.46264-0.18905-0.15132 0.48507-0.87356
   2   5   8 4819.03 1862.08   1 0.38000 0.01146-0.76820 0.42808 0.51521-0.90366
   2   5   928911.07 1337.51   1 0.86836-0.47361-0.23407-0.10635 0.43726-0.87431
   2   5   930423.82 1658.85   1 0.40884-0.01379-0.79074 0.45062 0.45560-0.89260
   2   5  1033135.08 1866.47   1 0.87869-0.48038-0.27660-0.06386 0.38914-0.87475
   2   5  1034157.62 1791.14   1 0.43424-0.03561-0.80846 0.46836 0.39725-0.88281
   2   5  1115015.77 1314.55   1 0.45670-0.05409-0.82188 0.48153 0.34049-0.87475
   2   5  1210123.74 2415.32   1 0.47624-0.07007-0.83175 0.49141 0.28526-0.86810
   2   5  1313869.85 3338.01   1 0.49331-0.08356-0.83843 0.49811 0.23167-0.86307
   2   5  14 5473.84 1564.15   1 0.50816-0.09484-0.84230 0.50200 0.17967-0.85965
   2   5  15 3412.16  972.35   1 0.52103-0.10414-0.84370 0.50340 0.12920-0.85775
   2   5  16 4000.99 1365.26   1 0.53123-0.11093-0.84364 0.50497 0.07786-0.85597
  -2  -6  17 6521.35 2570.95   1 0.47534-0.77738-0.21976 0.62842-0.85192 0.02798
   2   6 -16 8620.19 1234.72   1 0.07521 0.23010 0.56366-0.97207 0.82260-0.04663
  -2  -6  16 9038.03 3030.69   1 0.47096-0.77653-0.21643 0.62502-0.85520 0.07973
   2   6 -15 2745.77 1767.41   1 0.08151 0.22738 0.56067-0.96903 0.82404-0.09657
  -2  -6  15 5428.81 1306.26   1 0.46424-0.77334-0.21134 0.61986-0.86014 0.13313
   2   6 -14 3523.52 2244.27   1 0.09158 0.22089 0.55583-0.96414 0.82627-0.14729
  -2  -6  14 7604.99 1597.58   1 0.45490-0.76754-0.20428 0.61274-0.86680 0.18826
   2   6 -13 3823.72  593.60   1 0.10558 0.21046 0.54896-0.95722 0.82918-0.19871
  -2  -6  13 3447.67 1274.81   1 0.44263-0.75880-0.19503 0.60343-0.87525 0.24517
   2   6 -12 4926.87 1426.12   1 0.12370 0.19593 0.53985-0.94806 0.83265-0.25067
  -2  -6  12 6621.33 1734.29   1 0.42703-0.74673-0.18334 0.59167-0.88546 0.30386
   2   6 -11 1622.49  379.22   1 0.14606 0.17715 0.52825-0.93642 0.83646-0.30298
  -2  -6  11 1061.81 1049.62   1 0.40765-0.73089-0.16892 0.57718-0.89739 0.36425
   2   6 -10 4621.69  520.39   1 0.17278 0.15401 0.51388-0.92199 0.84031-0.35533
  -2  -6  10 5313.77 1407.75   1 0.38401-0.71078-0.15144 0.55963-0.91083 0.42616
  -2  -6  10 5004.95 1492.96   1 0.32142-0.64843-0.21518 0.62352-0.92216 0.43675
   2   6  -929918.81 1437.28   1 0.20269 0.12750 0.49696-0.90444 0.84380-0.40716
  -2  -6   928397.46 1379.42   1 0.35555-0.68585-0.13058 0.53871-0.92550 0.48929
  -2  -6   926888.22 1575.69   1 0.30311-0.63369-0.18344 0.59174-0.93513 0.49826
   2   6  -842743.41 1558.57   1 0.23822 0.09555 0.47608-0.88361 0.84654-0.45842
  -2  -6   839790.51 1569.43   1 0.32172-0.65555-0.10602 0.51409-0.94089 0.55315
  -2  -6   842124.00 1745.16   1 0.28131-0.61546-0.14628 0.55454-0.94840 0.56007
   2   6  -7 3225.32  427.65   1 0.27779 0.05956 0.45158-0.85915 0.84791-0.50830
  -2  -6   7 3894.77  891.55   1 0.28315-0.62057-0.07672 0.48451-0.95601 0.61657
  -2  -6   7 3922.80 1258.96   1 0.25564-0.59336-0.10336 0.51159-0.96123 0.62144
   2   6  -665187.46 1892.65   1 0.32099 0.01994 0.42324-0.83086 0.84727-0.55618
  -2  -6   663018.97 2233.73   1 0.23705-0.57802-0.04403 0.45179-0.97051 0.67956
  -2  -6   664677.89 2110.50   1 0.22579-0.56708-0.05451 0.46270-0.97264 0.68140
   2   6  -521291.47 1018.70   1 0.36721-0.02269 0.39100-0.79865 0.84399-0.60141
  -2  -6   523242.01 1046.58   1 0.18436-0.52888-0.00717 0.41489-0.98284 0.74038
  -2  -6   524617.46 1282.48   1 0.19169-0.53637-0.00031 0.40849-0.98145 0.73853
   2   6  -4 9800.34 1020.41   1 0.41613-0.06784 0.35494-0.76276 0.83719-0.64316
  -2  -6   410522.08 2489.61   1 0.15311-0.50140 0.05996 0.34820-0.98638 0.79205
   2   6  -369513.50 2035.56   1 0.46575-0.11387 0.31527-0.72308 0.82687-0.68135
  -2  -6   368640.79 2195.27   1 0.11043-0.46234 0.12491 0.28323-0.98600 0.84025
   2   6  -213110.05 1325.34   1 0.51561-0.16014 0.27236-0.68016 0.81241-0.71539
  -2  -6   213275.88  953.62   1 0.06419-0.41972 0.19331 0.21481-0.97903 0.88186
   2   6  -119240.55 1480.19   1 0.56466-0.20560 0.22673-0.63453 0.79359-0.74508
  -2  -6   119742.72 1167.61   1 0.01517-0.37436 0.26361 0.14458-0.96451 0.91594
   2   6   0 5588.40  507.52   1 0.61282-0.24964 0.17954-0.58777 0.76958-0.76958
  -2  -6   0 6517.89 1825.64   1-0.03531-0.32744 0.33389 0.07426-0.94194 0.94194
   2   6   1 1873.54  588.52   1 0.65737-0.29063 0.13043-0.53865 0.74222-0.79084
  -2  -6  -1 2177.16  740.89   1-0.08621-0.28011 0.40243 0.00569-0.91138 0.95995
   2   6   258727.01 1823.86   1 0.69854-0.32825 0.08064-0.48885 0.71104-0.80828
  -2  -6  -258550.38 1954.99   1-0.13643-0.23328 0.46719-0.05943-0.87356 0.97059
   2   6   323844.40 1083.53   1 0.73583-0.36200 0.03083-0.43902 0.67649-0.82235
  -2  -6  -324822.72 1178.19   1-0.18475-0.18854 0.52754-0.11980-0.82919 0.97473
   2   6   417089.50  918.11   1 0.76968-0.39287-0.01769-0.39018 0.63822-0.83274
   2   6   570700.53 2048.90   1 0.79848-0.41823-0.06598-0.34186 0.59842-0.84158
   2   6   572872.45 2481.92   1 0.25232 0.12789-0.64689 0.23934 0.71962-0.96247
   2   6   658873.36 1896.59   1 0.82297-0.43927-0.11287-0.29495 0.55679-0.84858
   2   6   663449.09 2200.55   1 0.29241 0.09135-0.68815 0.28066 0.66403-0.95545
   2   6   726034.11 1829.61   1 0.84325-0.45610-0.15809-0.24971 0.51378-0.85420
   2   6   723916.10 1264.53   1 0.32895 0.05835-0.72344 0.31601 0.60697-0.94695
   2   6   8 9273.90 1857.46   1 0.85848-0.46734-0.20235-0.20603 0.47127-0.85976
   2   6   8 7826.20  821.90   1 0.36180 0.02972-0.75288 0.34470 0.54979-0.93824
   2   6   9 4475.20 1104.71   1 0.87098-0.47627-0.24364-0.16479 0.42669-0.86374
   2   6   9 3985.24 1750.12   1 0.39145 0.00365-0.77742 0.36926 0.49231-0.92931
   2   6  10 6017.35 1863.95   1 0.87993-0.48165-0.28292-0.12555 0.38173-0.86735
   2   6  10 5700.68  766.36   1 0.41794-0.01926-0.79734 0.38919 0.43539-0.92095
   2   6  11 1195.99  815.83   1 0.44151-0.03925-0.81311 0.40497 0.37936-0.91348
   2   6  1223250.12 5298.82   1 0.46257-0.05628-0.82506 0.41662 0.32449-0.90733
   2   6  1310636.71 2399.36   1 0.48103-0.07117-0.83383 0.42541 0.27079-0.90219
   2   6  1465099.82 5312.77   1 0.49727-0.08384-0.83966 0.43126 0.21834-0.89832
   2   6  1522607.89 3391.34   1 0.51149-0.09449-0.84286 0.43447 0.16716-0.89571
   2   6  16 3691.32 1737.85   1 0.52387-0.10329-0.84369 0.43531 0.11721-0.89433
  -2  -7  1618063.50 1469.28   1 0.43385-0.73938-0.18845 0.66496-0.88106 0.10559
   2   7 -15  550.73  329.40   1 0.18156 0.12731 0.50902-0.98532 0.84141-0.11394
  -2  -7  15 1054.05  504.92   1 0.42603-0.73509-0.18260 0.65904-0.88610 0.15909
   2   7 -1412071.62  874.87   1 0.19061 0.12164 0.50381-0.97907 0.84255-0.16332
  -2  -7  1411543.26 1552.32   1 0.41553-0.72813-0.17477 0.65115-0.89264 0.21410
   2   7 -13 9331.60  746.32   1 0.20534 0.11049 0.49543-0.97074 0.84405-0.21334
  -2  -7  13 9469.78 2380.25   1 0.40206-0.71819-0.16477 0.64109-0.90067 0.27060
   2   7 -1222951.48 1406.39   1 0.22389 0.09552 0.48463-0.95997 0.84561-0.26342
  -2  -7  1224045.80 1252.03   1 0.38526-0.70492-0.15236 0.62861-0.91015 0.32854
  -2  -7  1224156.87 1425.96   1 0.31987-0.63974-0.21247 0.68887-0.92332 0.34084
   2   7 -1113942.32  900.11   1 0.24629 0.07671 0.47120-0.94658 0.84697-0.31330
  -2  -7  1114666.92  946.25   1 0.36475-0.68794-0.13730 0.61348-0.92094 0.38780
  -2  -7  1116508.18 1254.88   1 0.30682-0.63026-0.18982 0.66618-0.93264 0.39870
   2   7 -1065698.50 1992.37   1 0.27248 0.05410 0.45495-0.93037 0.84783-0.36267
  -2  -7  1066522.68 2219.22   1 0.34009-0.66681-0.11932 0.59544-0.93280 0.44813
  -2  -7  1056540.49 2168.19   1 0.29117-0.61818-0.16300 0.63933-0.94268 0.45727
   2   7  -938559.13 1677.01   1 0.30233 0.02782 0.43569-0.91116 0.84783-0.41118
  -2  -7   939229.39 1743.16   1 0.31211-0.64241-0.09747 0.57326-0.94504 0.50861
  -2  -7   939432.92 1993.28   1 0.27264-0.60323-0.13169 0.60799-0.95305 0.51619
   2   7  -8 4711.42  515.33   1 0.33561-0.00187 0.41326-0.88877 0.84653-0.45841
  -2  -7   8 5202.35 1475.21   1 0.27782-0.61168-0.07292 0.54867-0.95787 0.56993
  -2  -7   8 6159.89 1397.66   1 0.25097-0.58512-0.09564 0.57191-0.96325 0.57493
   2   7  -713482.51 1152.74   1 0.37196-0.03463 0.38756-0.86311 0.84349-0.50388
  -2  -7   714201.26 2708.55   1 0.23812-0.57552-0.04478 0.52050-0.97021 0.63077
  -2  -7   712418.83 1053.46   1 0.22589-0.56362-0.05467 0.53090-0.97261 0.63283
   2   7  -6 5032.20  560.73   1 0.41155-0.07044 0.35846-0.83426 0.83796-0.54690
  -2  -7   6 5386.14  528.42   1 0.19272-0.53367-0.01298 0.48867-0.98118 0.69022
  -2  -7   6 5597.71 2299.58   1 0.19724-0.53853-0.00873 0.48493-0.98031 0.68907
   2   7  -5 9222.52  889.53   1 0.45234-0.10764 0.32628-0.80207 0.83005-0.58750
  -2  -7   5 8926.62 2320.71   1 0.14154-0.48604 0.02240 0.45324-0.98969 0.74723
  -2  -7   5 9616.86  814.07   1 0.16500-0.50968 0.04154 0.43465-0.98541 0.74249
   2   7  -4 6842.33 1832.67   1 0.49438-0.14609 0.29103-0.76681 0.81910-0.62507
  -2  -7   4 5830.19 1295.96   1 0.12907-0.47736 0.09676 0.37942-0.98690 0.79256
   2   7  -338977.03 1349.52   1 0.53690-0.18501 0.25300-0.72878 0.80484-0.65931
  -2  -7   337741.92 1771.00   1 0.08980-0.44170 0.15567 0.32048-0.98371 0.83796
   2   7  -228108.84 1410.72   1 0.57908-0.22360 0.21260-0.68837 0.78709-0.69007
  -2  -7   230190.64 1399.21   1 0.04749-0.40311 0.21741 0.25884-0.97492 0.87778
   2   7  -1149471.8 3609.36   1 0.62113-0.26148 0.17071-0.64699 0.76491-0.71630
  -2  -7   1146648.3 3817.82   1 0.00316-0.36235 0.28053 0.19568-0.95983 0.91126
   2   7   0 5352.35  662.24   1 0.66035-0.29715 0.12697-0.60324 0.74017-0.74017
  -2  -7   0 6735.26 2234.99   1-0.04258-0.32017 0.34382 0.13236-0.93806 0.93806
   2   7   147612.41 1650.69   1 0.69718-0.33043 0.08236-0.55862 0.71218-0.76080
  -2  -7  -149335.14 1786.93   1-0.08883-0.27748 0.40590 0.07025-0.90958 0.95816
   2   7   221991.65 2282.27   1 0.73114-0.36083 0.03739-0.51364 0.68123-0.77847
  -2  -7  -219665.23 1041.52   1-0.13480-0.23492 0.46511 0.01060-0.87493 0.97195
   2   7   3 6964.63 1746.78   1 0.76263-0.38928-0.00672-0.46915 0.64682-0.79272
  -2  -7  -3 5746.40  642.89   1-0.17946-0.19384 0.52105-0.04534-0.83444 0.97998
   2   7   411470.25  796.68   1 0.78999-0.41319-0.05109-0.42476 0.61102-0.80554
  -2  -7  -4 7600.95  659.97   1-0.22218-0.15469 0.57261-0.09691-0.78914 0.98319
   2   7   5106964.3 2612.54   1 0.81384-0.43360-0.09461-0.38123 0.57336-0.81652
   2   7   5110037.7 3138.41   1 0.24068 0.13957-0.63446 0.15893 0.73452-0.97737
   2   7   6 4665.85 1068.17   1 0.83420-0.45050-0.13698-0.33883 0.53422-0.82600
   2   7   6 3211.22  511.81   1 0.27936 0.10443-0.67499 0.19952 0.68289-0.97431
   2   7   715822.88 1513.27   1 0.85008-0.46253-0.17899-0.29736 0.49534-0.83527
   2   7   715176.49 1556.09   1 0.31513 0.07221-0.71037 0.23497 0.62933-0.96931
   2   7   815380.68 1240.35   1 0.86372-0.47261-0.21844-0.25795 0.45421-0.84270
   2   7   813845.71 1055.66   1 0.34779 0.04379-0.74056 0.26434 0.57498-0.96343
   2   7   9 6084.76 1861.40   1 0.87419-0.47952-0.25632-0.22011 0.41245-0.84950
   2   7   9 5281.89 2479.37   1 0.37763 0.01752-0.76625 0.29004 0.51984-0.95685
   2   7  1049677.53 1719.45   1 0.88166-0.48342-0.29258-0.18389 0.37026-0.85588
   2   7  1050159.25 2171.54   1 0.40464-0.00590-0.78760 0.31140 0.46469-0.95025
   2   7  1118482.37 2855.59   1 0.42896-0.02663-0.80496 0.32878 0.40991-0.94403
   2   7  1252912.80 4862.05   1 0.45075-0.04485-0.81869 0.34252 0.35576-0.93843
   2   7  1318522.20 4319.46   1 0.47038-0.06040-0.82901 0.35249 0.30245-0.93386
   2   7  14  681.45  522.13   1 0.48766-0.07411-0.83645 0.35994 0.25004-0.93002
   2   7  15 5378.89 2605.08   1 0.50294-0.08582-0.84118 0.36469 0.19861-0.92716
  -2  -8  1514570.10 1256.18   1 0.38481-0.69383-0.15203 0.69640-0.91040 0.18339
  -2  -8  1514571.31 1399.00   1 0.31798-0.62714-0.20917 0.75367-0.92473 0.19662
  -2  -8  14 8899.20  892.74   1 0.37321-0.68576-0.14350 0.68780-0.91659 0.23805
  -2  -8  14 7522.54 3492.94   1 0.31057-0.62330-0.19630 0.74077-0.93005 0.25049
   2   8 -13 9366.28  762.03   1 0.30660 0.00920 0.43287-0.97615 0.84774-0.21703
  -2  -8  13 9359.00  824.27   1 0.35861-0.67470-0.13282 0.67705-0.92400 0.29392
  -2  -8  13 9553.23  988.36   1 0.30133-0.61763-0.18036 0.72480-0.93630 0.30527
   2   8 -12 5746.45  638.83   1 0.32436-0.00497 0.42096-0.96428 0.84713-0.26493
  -2  -8  12 4313.87 1510.20   1 0.34072-0.66033-0.11978 0.66395-0.93251 0.35091
  -2  -8  12 4547.07 1062.17   1 0.29006-0.60994-0.16111 0.70551-0.94334 0.36086
   2   8 -11  217.63  361.49   1 0.34548-0.02250 0.40642-0.94978 0.84588-0.31220
  -2  -8  11  198.48  305.60   1 0.31918-0.64233-0.10419 0.64830-0.94196 0.40882
  -2  -8  11  699.08  436.88   1 0.27658-0.60002-0.13831 0.68267-0.95098 0.41703
   2   8 -1038182.54 1433.25   1 0.36980-0.04324 0.38913-0.93253 0.84372-0.35856
  -2  -8  1037396.34 1536.08   1 0.29500-0.62174-0.08519 0.62894-0.95170 0.46678
  -2  -8  1038531.39 1833.79   1 0.26067-0.58768-0.11170 0.65603-0.95894 0.47353
   2   8  -9 7929.39 1153.04   1 0.39708-0.06694 0.36902-0.91247 0.84035-0.40371
  -2  -8   9 7886.82  725.20   1 0.26511-0.59540-0.06388 0.60759-0.96211 0.52568
  -2  -8   9 7037.00  762.27   1 0.24212-0.57270-0.08110 0.62539-0.96685 0.52998
   2   8  -884609.97 2267.69   1 0.42784-0.09391 0.34583-0.88961 0.83510-0.44703
  -2  -8   882300.40 2328.58   1 0.23054-0.56438-0.03945 0.58313-0.97227 0.58433
  -2  -8   881591.92 2681.75   1 0.22074-0.55489-0.04633 0.59059-0.97423 0.58590
   2   8  -728698.03 1376.63   1 0.45993-0.12241 0.32007-0.86384 0.82829-0.48872
  -2  -8   730391.92 1450.42   1 0.19103-0.52842-0.01180 0.55545-0.98152 0.64208
  -2  -8   729687.50 1625.60   1 0.19646-0.53390-0.00787 0.55213-0.98048 0.64038
   2   8  -628934.20 1367.18   1 0.49379-0.15268 0.29154-0.83530 0.81928-0.52822
  -2  -8   629995.57 1449.86   1 0.14642-0.48736 0.01905 0.52455-0.98905 0.69810
  -2  -8   628516.21 1623.36   1 0.16898-0.51003 0.03536 0.50887-0.98498 0.69348
   2   8  -545887.91 1858.59   1 0.52888-0.18417 0.26037-0.80413 0.80780-0.56525
  -2  -8   546415.51 2175.22   1 0.13838-0.48305 0.08257 0.46163-0.98693 0.74400
   2   8  -435886.36 1553.35   1 0.56458-0.21628 0.22681-0.77056 0.79363-0.59959
  -2  -8   437422.68 1834.40   1 0.10478-0.45306 0.13337 0.41082-0.98551 0.79117
   2   8  -390220.73 2358.75   1 0.60138-0.24880 0.19149-0.73583 0.77570-0.62984
  -2  -8   391531.83 2700.18   1 0.06841-0.42031 0.18716 0.35702-0.97994 0.83419
   2   8  -223766.99 1247.39   1 0.63643-0.28031 0.15406-0.69839 0.75582-0.65858
  -2  -8   221910.70 2074.56   1 0.02951-0.38512 0.24323 0.30105-0.96952 0.87237
   2   8  -192640.41 2517.55   1 0.67033-0.31065 0.11526-0.65958 0.73309-0.68447
  -2  -8   181344.85 2452.24   1-0.01105-0.34813 0.30040 0.24384-0.95374 0.90517
   2   8   0 5996.47 1858.09   1 0.70257-0.33934 0.07549-0.61980 0.70763-0.70763
  -2  -8   0 7363.20 1880.89   1-0.05285-0.30989 0.35777 0.18644-0.93231 0.93231
   2   8   113693.44  993.10   1 0.73274-0.36597 0.03516-0.57946 0.67963-0.72825
  -2  -8  -113234.89  845.15   1-0.09518-0.27112 0.41426 0.12991-0.90516 0.95373
   2   8   213271.61  768.19   1 0.76127-0.39137-0.00463-0.53925 0.64844-0.74571
  -2  -8  -214949.04  928.82   1-0.13745-0.23228 0.46848 0.07519-0.87271 0.96973
   2   8   350129.31 1988.07   1 0.78643-0.41309-0.04503-0.49883 0.61606-0.76196
  -2  -8  -350057.74 2111.53   1-0.17881-0.19450 0.52025 0.02341-0.83508 0.98062
   2   8   4 6364.55 1429.00   1 0.80882-0.43203-0.08499-0.45885 0.58191-0.77643
  -2  -8  -4 5441.74  618.39   1-0.21873-0.15814 0.56852-0.02487-0.79305 0.98710
   2   8   5 7941.23 2025.65   1 0.82838-0.44814-0.12424-0.41959 0.54625-0.78941
   2   8   5 8221.01  908.70   1 0.23400 0.14628-0.62723 0.08373 0.74284-0.98569
   2   8   617039.02  929.17   1 0.84508-0.46139-0.16258-0.38123 0.50935-0.80114
   2   8   617009.31 1217.97   1 0.27101 0.11281-0.66643 0.12299 0.69455-0.98597
   2   8   7 8300.96 2059.82   1 0.85795-0.47044-0.20079-0.34356 0.47290-0.81283
   2   8   7 8350.16  929.10   1 0.30566 0.08171-0.70122 0.15784 0.64409-0.98407
   2   8   812170.56 1427.76   1 0.86913-0.47805-0.23681-0.30759 0.43424-0.82274
   2   8   811000.04 1054.78   1 0.33781 0.05310-0.73163 0.18830 0.59211-0.98067
   2   8   9 1933.43  791.96   1 0.87765-0.48301-0.27157-0.27287 0.39498-0.83204
   2   8   9 1532.10  966.44   1 0.36730 0.02791-0.75759 0.21333 0.53957-0.97658
   2   8  1014464.02  966.98   1 0.88362-0.48541-0.30502-0.23946 0.35526-0.84088
   2   8  1011626.73 3121.66   1 0.39438 0.00441-0.77972 0.23548 0.48630-0.97187
   2   8  11 1421.40  818.47   1 0.41901-0.01663-0.79809 0.25386 0.43297-0.96709
   2   8  1235651.98 3201.81   1 0.44130-0.03535-0.81298 0.26876 0.37988-0.96255
   2   8  13 1686.76 1198.28   1 0.46158-0.05149-0.82453 0.27991 0.32723-0.95864
   2   8  14 3357.18 2374.23   1 0.47959-0.06592-0.83322 0.28861 0.27519-0.95517
  -2  -9  14 1908.20 1745.05   1 0.32796-0.64047-0.11053 0.72276-0.93821 0.25967
  -2  -9  14 2369.32 2200.99   1 0.28106-0.59379-0.14586 0.75832-0.94854 0.26897
  -2  -9  13 4212.93 1987.12   1 0.31376-0.62985-0.09866 0.71044-0.94437 0.31397
  -2  -9  13 6339.35  917.33   1 0.27136-0.58766-0.12953 0.74197-0.95372 0.32269
  -2  -9  1219534.57 1816.84   1 0.29489-0.61452-0.08511 0.69685-0.95174 0.36984
  -2  -9  1222321.83 2197.58   1 0.25971-0.57959-0.11011 0.72251-0.95938 0.37690
   2   9 -11 1610.62  959.55   1 0.44121-0.11806 0.33524-0.94700 0.83246-0.29885
  -2  -9  11 2706.85 1444.67   1 0.27247-0.59565-0.06910 0.68081-0.95969 0.42628
  -2  -9  11 4464.69 1550.81   1 0.24596-0.56941-0.08740 0.69977-0.96533 0.43138
   2   9 -1012299.50  841.66   1 0.46256-0.13581 0.31791-0.92966 0.82766-0.34256
  -2  -9  10 9685.07 2395.35   1 0.24622-0.57295-0.05050 0.66217-0.96791 0.48299
  -2  -9  1011184.68 1432.85   1 0.22995-0.55697-0.06125 0.67358-0.97127 0.48586
   2   9  -9 1341.90  722.02   1 0.48628-0.15594 0.29799-0.90974 0.82144-0.38486
  -2  -9   9 1044.42  680.97   1 0.21587-0.54614-0.02915 0.64078-0.97600 0.53957
  -2  -9   9 1143.63  807.26   1 0.21153-0.54211-0.03153 0.64382-0.97686 0.53999
   2   9  -831026.39 1262.00   1 0.51204-0.17811 0.27554-0.88728 0.81359-0.42552
  -2  -9   827487.56 1808.95   1 0.18118-0.51500-0.00496 0.61656-0.98345 0.59551
  -2  -9   829088.56 1512.09   1 0.19066-0.52448 0.00131 0.61097-0.98165 0.59298
   2   9  -720187.77 1152.41   1 0.53944-0.20192 0.25064-0.86238 0.80388-0.46431
  -2  -9   717476.14 1000.75   1 0.14200-0.47937 0.02209 0.58947-0.98963 0.65019
  -2  -9   719159.72 4456.00   1 0.16703-0.50447 0.03838 0.57388-0.98520 0.64511
   2   9  -6 6835.07  940.26   1 0.56805-0.22694 0.22344-0.83517 0.79211-0.50105
  -2  -9   6 8377.97 2067.65   1 0.14071-0.48176 0.07901 0.53323-0.98689 0.69538
   2   9  -520533.51  998.30   1 0.59863-0.25314 0.19432-0.80672 0.77712-0.53403
  -2  -9   521007.91 4308.10   1 0.11173-0.45639 0.12296 0.48927-0.98610 0.74318
   2   9  -435778.67 1758.27   1 0.62817-0.27913 0.16312-0.77550 0.76081-0.56633
  -2  -9   433979.41 1972.09   1 0.08020-0.42848 0.16986 0.44235-0.98220 0.78786
   2   9  -359577.49 2308.79   1 0.65750-0.30490 0.13028-0.74266 0.74213-0.59627
  -2  -9   362415.84 2552.68   1 0.04615-0.39820 0.21934 0.39300-0.97455 0.82884
   2   9  -2 1697.52  817.53   1 0.68617-0.33002 0.09611-0.70848 0.72109-0.62385
  -2  -9   2 1565.85 1203.47   1 0.01035-0.36596 0.27041 0.34190-0.96268 0.86554
   2   9  -120709.36 1302.45   1 0.71376-0.35407 0.06092-0.67327 0.69776-0.64914
  -2  -9   119030.36 1077.08   1-0.02702-0.33215 0.32250 0.28977-0.94618 0.89761
   2   9   016384.18 1668.51   1 0.73993-0.37668 0.02502-0.63737 0.67225-0.67225
  -2  -9   018047.21 1074.59   1-0.06547-0.29727 0.37479 0.23745-0.92479 0.92479
   2   9   115354.10 2855.45   1 0.76512-0.39867-0.01055-0.60133 0.64383-0.69246
  -2  -9  -113422.86 3429.90   1-0.10451-0.26165 0.42606 0.18559-0.89863 0.94715
   2   9   2 2149.64  724.12   1 0.78760-0.41770-0.04701-0.56486 0.61443-0.71169
  -2  -9  -2 2294.77  572.37   1-0.14349-0.22624 0.47615 0.13549-0.86757 0.96460
   2   9   311278.72 1811.34   1 0.80794-0.43460-0.08333-0.52853 0.58337-0.72926
  -2  -9  -311147.66  857.41   1-0.18188-0.19143 0.52403 0.08760-0.83205 0.97759
   2   9   414972.67 2170.01   1 0.82605-0.44926-0.11928-0.49255 0.55086-0.74539
  -2  -9  -415822.69  971.82   1-0.21920-0.15768 0.56908 0.04253-0.79252 0.98657
   2   9   518771.61 2448.04   1 0.84184-0.46161-0.15470-0.45712 0.51711-0.76026
   2   9   519570.35 1312.32   1 0.23148 0.14883-0.62450 0.01302 0.74592-0.98877
   2   9   6 1290.91  586.17   1 0.85429-0.47038-0.19038-0.42195 0.48371-0.77507
   2   9   6 1852.88  914.32   1 0.26674 0.11711-0.66202 0.05059 0.70041-0.99182
   2   9   7 2053.32  602.95   1 0.86548-0.47800-0.22418-0.38818 0.44802-0.78795
   2   9   7 2678.31  597.34   1 0.30007 0.08733-0.69574 0.08438 0.65261-0.99260
   2   9   847227.86 1899.26   1 0.87437-0.48333-0.25706-0.35535 0.41161-0.80010
   2   9   847435.94 2118.36   1 0.33129 0.05966-0.72562 0.11432 0.60309-0.99165
   2   9   931894.38 1609.92   1 0.88103-0.48642-0.28895-0.32351 0.37460-0.81165
   2   9   933645.70 1828.97   1 0.36025 0.03501-0.75154 0.13923 0.55263-0.98964
   2   9  1021305.81 2150.33   1 0.38706 0.01179-0.77392 0.16163 0.50121-0.98678
   2   9  11 1459.75 1322.10   1 0.41167-0.00924-0.79281 0.18054 0.44940-0.98352
   2   9  12 5551.99 3615.35   1 0.43414-0.02813-0.80840 0.19614 0.39749-0.98017
   2   9  13  189.15  458.00   1 0.45476-0.04455-0.82078 0.20806 0.34569-0.97710
  -2 -10  13 9808.97 1195.82   1 0.26476-0.58083-0.06363 0.74333-0.96222 0.33182
  -2 -10  12 6864.09 1394.82   1 0.24504-0.56465-0.04966 0.72933-0.96825 0.38635
  -2 -10  12 5680.47 1728.25   1 0.22887-0.54875-0.05949 0.73989-0.97163 0.38915
  -2 -10  1111971.75 1010.50   1 0.22189-0.54505-0.03336 0.71300-0.97451 0.44110
  -2 -10  1113512.28 1246.32   1 0.21500-0.53844-0.03709 0.71745-0.97591 0.44196
   2  10 -1025427.44 2138.62   1 0.54745-0.22070 0.24316-0.92288 0.80076-0.31566
  -2 -10  1026568.95 2310.91   1 0.19509-0.52180-0.01463 0.69423-0.98069 0.49577
  -2 -10  1023598.75 2303.73   1 0.19902-0.52604-0.01157 0.69190-0.97992 0.49452
   2  10  -9  326.75  168.52   1 0.56713-0.23679 0.22434-0.90405 0.79251-0.35593
  -2 -10   9  120.43  214.10   1 0.16444-0.49470 0.00662 0.67293-0.98637 0.54995
  -2 -10   9  680.20  466.90   1 0.18096-0.51115 0.01661 0.66370-0.98335 0.54609
   2  10  -8 8485.90 1460.52   1 0.58840-0.25447 0.20326-0.88297 0.78263-0.39455
  -2 -10   810002.29 3136.58   1 0.16047-0.49428 0.04858 0.63171-0.98584 0.59717
   2  10  -7 2971.92 1504.13   1 0.61230-0.27389 0.18009-0.86055 0.76986-0.42953
  -2 -10   7 3911.91 1392.06   1 0.13764-0.47507 0.08371 0.59657-0.98693 0.64684
   2  10  -6 7977.08 1034.64   1 0.63558-0.29362 0.15500-0.83544 0.75634-0.46462
  -2 -10   6 8696.36 2105.60   1 0.11245-0.45349 0.12187 0.55839-0.98615 0.69464
   2  10  -5 5617.91 2003.35   1 0.65935-0.31384 0.12814-0.80857 0.74086-0.49776
  -2 -10   5 7055.47 1428.91   1 0.08496-0.42962 0.16283 0.51741-0.98299 0.74006
   2  10  -4 7414.38 2046.77   1 0.68322-0.33416 0.09972-0.78015 0.72340-0.52892
  -2 -10   4 8079.42 2553.37   1 0.05530-0.40358 0.20624 0.47398-0.97693 0.78260
   2  10  -3  816.68  334.51   1 0.70682-0.35421 0.07000-0.75042 0.70394-0.55808
  -2 -10   3  506.60  382.18   1 0.02348-0.37552 0.25182 0.42856-0.96749 0.82177
   2  10  -2 2847.63  815.15   1 0.72982-0.37366 0.03921-0.71962 0.68254-0.58530
  -2 -10   2 2973.65 1551.83   1-0.00980-0.34580 0.29866 0.38168-0.95431 0.85716
   2  10  -113400.59  938.64   1 0.75266-0.39312 0.00834-0.68826 0.65839-0.60975
  -2 -10   113251.76 1087.93   1-0.04443-0.31474 0.34634 0.33396-0.93705 0.88848
   2  10   0 4489.02 1015.41   1 0.77355-0.41056-0.02385-0.65605 0.63331-0.63331
  -2 -10   0 4765.82 1660.85   1-0.07999-0.28274 0.39419 0.28608-0.91554 0.91554
   2  10   1 1871.62  669.65   1 0.79304-0.42661-0.05638-0.62350 0.60658-0.65521
  -2 -10  -1 1689.66  501.99   1-0.11613-0.25004 0.44114 0.23848-0.88989 0.93840
   2  10   227866.91 1358.82   1 0.81095-0.44107-0.08903-0.59083 0.57833-0.67559
  -2 -10  -229836.33 1546.23   1-0.15227-0.21747 0.48723 0.19237-0.85989 0.95692
   2  10   313024.09 2658.03   1 0.82714-0.45381-0.12160-0.55824 0.54871-0.69460
  -2 -10  -315176.43 1034.57   1-0.18800-0.18531 0.53152 0.14807-0.82591 0.97145
   2  10   423281.03 1133.74   1 0.84152-0.46474-0.15393-0.52590 0.51786-0.71238
   2  10   520485.23 1121.13   1 0.85301-0.47270-0.18684-0.49345 0.48733-0.73014
   2  10   518718.60 1348.30   1 0.23249 0.14785-0.62560-0.05385 0.74469-0.98754
   2  10   6 6492.68 1769.50   1 0.86364-0.47976-0.21819-0.46214 0.45448-0.74585
   2  10   6 5222.10 2429.37   1 0.26599 0.11790-0.66123-0.01816 0.70144-0.99286
   2  10   7 6339.71 1123.34   1 0.87235-0.48491-0.24890-0.43148 0.42081-0.76074
   2  10   7 7299.89 1484.73   1 0.29789 0.08955-0.69359 0.01425 0.65589-0.99588
   2  10   8 3316.60 2244.96   1 0.87915-0.48814-0.27889-0.40152 0.38645-0.77494
   2  10   8 5364.42  931.12   1 0.32801 0.06296-0.72257 0.04329 0.60852-0.99707
   2  10   9 1884.84 1748.36   1 0.88405-0.48948-0.30811-0.37235 0.35150-0.78855
   2  10   9 3283.44  938.91   1 0.35624 0.03908-0.74804 0.06769 0.55993-0.99694
   2  10  10 1098.03  672.41   1 0.38253 0.01637-0.77027 0.08993 0.51025-0.99581
   2  10  11 1031.32 1209.31   1 0.40686-0.00437-0.78926 0.10894 0.45992-0.99404
  -2 -11  12 1207.29 1783.53   1 0.19254-0.51214-0.01285 0.76045-0.98121 0.39931
  -2 -11  1110420.84  980.36   1 0.16882-0.49196 0.00360 0.74395-0.98565 0.45224
  -2 -11  10 9261.13  878.26   1 0.14164-0.46834 0.02233 0.72518-0.98967 0.50475
  -2 -11  10 8232.82 3468.48   1 0.16798-0.49456 0.03691 0.71144-0.98509 0.49925
  -2 -11   9 2968.41 1883.88   1 0.15013-0.48033 0.06455 0.68378-0.98655 0.54929
   2  11  -8 3031.48 1275.17   1 0.65805-0.32316 0.12964-0.87815 0.74176-0.35280
  -2 -11   8 3142.82 1060.60   1 0.13021-0.46402 0.09503 0.65328-0.98692 0.59824
  -2 -11   7  315.04  361.22   1 0.10819-0.44562 0.12826 0.62004-0.98582 0.64573
   2  11  -6 2302.00  844.05   1 0.69392-0.35194 0.08646-0.83495 0.71486-0.42315
  -2 -11   6 2070.23  855.93   1 0.08411-0.42515 0.16409 0.58419-0.98285 0.69134
   2  11  -5 6114.77 1654.39   1 0.71258-0.36705 0.06247-0.81095 0.69883-0.45573
  -2 -11   5 6355.69 2800.89   1 0.05802-0.40268 0.20229 0.54597-0.97760 0.73468
   2  11  -4 5431.49  763.67   1 0.73131-0.38223 0.03715-0.78562 0.68106-0.48658
  -2 -11   4 4925.70 1972.21   1 0.02984-0.37831 0.24275 0.50568-0.96962 0.77534
   2  11  -3 7382.93  780.30   1 0.75057-0.39793 0.01143-0.75938 0.66072-0.51483
  -2 -11   3 6682.92 2158.79   1 0.00023-0.35226 0.28465 0.46375-0.95863 0.81291
   2  11  -216265.86 1127.89   1 0.76857-0.41249-0.01595-0.73197 0.63959-0.54233
  -2 -11   215123.11 2284.16   1-0.03083-0.32476 0.32775 0.42061-0.94426 0.84711
   2  11  -111781.38 2734.61   1 0.78585-0.42632-0.04406-0.70385 0.61687-0.56824
  -2 -11   111601.43 2470.87   1-0.06306-0.29610 0.37155 0.37678-0.92627 0.87769
   2  11   023571.74 2233.15   1 0.80219-0.43921-0.07268-0.67521 0.59265-0.59265
  -2 -11   021247.69 4537.79   1-0.09610-0.26662 0.41547 0.33282-0.90451 0.90451
   2  11   1 2826.30  813.37   1 0.81742-0.45099-0.10164-0.64623 0.56703-0.61567
  -2 -11  -1 2239.24 1036.13   1-0.12968-0.23649 0.45857 0.28901-0.87914 0.92765
   2  11   232050.13 1352.35   1 0.83139-0.46151-0.13076-0.61709 0.54012-0.63738
  -2 -11  -229446.21 1505.90   1-0.16331-0.20644 0.50105 0.24652-0.84986 0.94689
   2  11   312108.17 1053.70   1 0.84399-0.47066-0.15988-0.58795 0.51201-0.65791
  -2 -11  -312081.30  934.22   1-0.19664-0.17668 0.54202 0.20553-0.81703 0.96256
   2  11   4 2957.05 1266.54   1 0.85411-0.47740-0.18987-0.55839 0.48423-0.67848
   2  11   5 5594.05 2196.42   1 0.86375-0.48348-0.21855-0.52974 0.45409-0.69689
   2  11   5 7760.06 1247.98   1 0.23650 0.14388-0.62995-0.11748 0.73974-0.98259
   2  11   612213.78 1106.90   1 0.87183-0.48799-0.24687-0.50147 0.42308-0.71445
   2  11   615153.09 2110.65   1 0.26827 0.11566-0.66359-0.08377 0.69833-0.98975
   2  11   719559.97 1782.69   1 0.87831-0.49090-0.27473-0.47365 0.39131-0.73124
   2  11   720122.45 2060.59   1 0.29871 0.08876-0.69440-0.05291 0.65466-0.99464
   2  11   8 1256.23 1138.77   1 0.88318-0.49221-0.30206-0.44636 0.35886-0.74735
   2  11   8 2052.23  762.80   1 0.32765 0.06336-0.72223-0.02502 0.60912-0.99767
   2  11   935295.28 2393.14   1 0.35499 0.04038-0.74695-0.00144 0.56217-0.99918
   2  11  10 4867.25 2875.46   1 0.38059 0.01836-0.76869 0.02030 0.51406-0.99962
  -2 -12   8 2991.33 1207.97   1 0.09982-0.43362 0.14078 0.67555-0.98499 0.59632
  -2 -12   7 2390.17 1531.34   1 0.07864-0.41606 0.17215 0.64415-0.98192 0.64183
   2  12  -631992.40 2497.78   1 0.74538-0.40309 0.01901-0.83501 0.66639-0.37461
  -2 -12   633348.14 2133.03   1 0.05562-0.39666 0.20578 0.61052-0.97701 0.68551
   2  12  -517397.81 1519.08   1 0.75941-0.41367-0.00179-0.81418 0.65064-0.40748
  -2 -12   517523.89 1700.01   1 0.03060-0.37550 0.24167 0.57483-0.96987 0.72702
   2  12  -4 4968.37 1277.66   1 0.77355-0.42436-0.02385-0.79211 0.63331-0.43879
  -2 -12   4 4499.04 2293.78   1 0.00424-0.35270 0.27902 0.53745-0.96027 0.76599
  -2 -12   3 5981.75 2636.06   1-0.02358-0.32844 0.31777 0.49866-0.94787 0.80216
   2  12  -2  674.67  398.47   1 0.80124-0.44515-0.07094-0.74497 0.59416-0.49689
  -2 -12   2 1000.40  644.50   1-0.05267-0.30292 0.35753 0.45886-0.93241 0.83527
   2  12  -1 5900.83 1722.52   1 0.81437-0.45484-0.09563-0.72027 0.57245-0.52382
  -2 -12   1 5190.62 1592.27   1-0.08276-0.27640 0.39786 0.41850-0.91370 0.86513
   2  12   0 1145.55  426.60   1 0.82678-0.46381-0.12084-0.69503 0.54941-0.54942
  -2 -12   0 1004.91  880.54   1-0.11361-0.24899 0.43788 0.37768-0.89182 0.89182
   2  12   1  710.09  482.24   1 0.83834-0.47192-0.14644-0.66942 0.52514-0.57377
  -2 -12  -1  401.57  291.14   1-0.14488-0.22130 0.47791 0.33764-0.86637 0.91489
   2  12   258667.15 5269.97   1 0.84788-0.47834-0.17326-0.64292 0.50112-0.59824
  -2 -12  -261154.13 4903.76   1-0.17625-0.19350 0.51710 0.29843-0.83758 0.93460
   2  12   3  145.79  138.13   1 0.85739-0.48429-0.19916-0.61706 0.47460-0.62028
   2  12   4 9840.80 1686.31   1 0.86573-0.48906-0.22504-0.59122 0.44710-0.64134
   2  12   5 5690.90 3146.43   1 0.87283-0.49259-0.25079-0.56552 0.41870-0.66150
   2  12   5 9733.59 1439.56   1 0.24309 0.13732-0.63705-0.17836 0.73148-0.97433
   2  12   612259.06 1270.68   1 0.87863-0.49483-0.27631-0.54004 0.38947-0.68084
   2  12   612849.25 1358.86   1 0.27319 0.11077-0.66867-0.14667 0.69154-0.98296
   2  12   735971.70 2142.61   1 0.88310-0.49573-0.30153-0.51486 0.35951-0.69944
   2  12   735991.07 2530.60   1 0.30218 0.08532-0.69781-0.11747 0.64941-0.98940
  -2 -13   5 1367.25  953.98   1 0.00315-0.34804 0.28054 0.60398-0.95983 0.71698
   2  13  -4  113.62  134.09   1 0.80871-0.45953-0.08477-0.79917 0.58209-0.38757
   2  13  -3 3049.58  781.37   1 0.81885-0.46622-0.10450-0.77942 0.56444-0.41855
  -2 -13   3 3683.50 1657.21   1-0.04796-0.30406 0.35114 0.53331-0.93509 0.78937
   2  13  -227535.52 1778.55   1 0.82879-0.47272-0.12513-0.75878 0.54542-0.44815
  -2 -13   229306.91 1978.83   1-0.07525-0.28033 0.38787 0.49655-0.91863 0.82149
   2  13  -111908.21 1328.90   1 0.83837-0.47885-0.14649-0.73739 0.52508-0.47645
  -2 -13   113882.93 1315.76   1-0.10342-0.25561 0.42464 0.45890-0.89943 0.85092
   2  13   010911.60 1973.99   1 0.84636-0.48399-0.16940-0.71470 0.50498-0.50498
  -2 -13   012266.81 1334.87   1-0.13227-0.23034 0.46188 0.42164-0.87702 0.87702
   2  13   112967.11 1074.53   1 0.85481-0.48887-0.19182-0.69233 0.48222-0.53078
  -2 -13  -112355.01 1316.80   1-0.16150-0.20469 0.49879 0.38472-0.85154 0.90005
   2  13   223228.42 1556.70   1 0.86249-0.49299-0.21454-0.66965 0.45838-0.55550
  -2 -13  -221601.00 1624.85   1-0.19083-0.17893 0.53497 0.34853-0.82303 0.92006
   2  13   311673.01 2420.04   1 0.86931-0.49624-0.23746-0.64677 0.43353-0.57921
  -2 -13  -312126.56 1132.83   1-0.22001-0.15332 0.57004 0.31344-0.79160 0.93714
   2  13   4 1907.82 1072.87   1 0.87518-0.49854-0.26047-0.62380 0.40773-0.60198
   2  13   4 3668.03  792.57   1 0.22267 0.15423-0.61486-0.26859 0.75654-0.95082
   2  13   5  249.84  331.68   1 0.88003-0.49983-0.28348-0.60083 0.38106-0.62387
   2  14  -1  149.02  207.74   1 0.85688-0.49811-0.19768-0.75439 0.47615-0.42759
   2  14   0 2135.79 1867.67   1 0.86312-0.50078-0.21652-0.73559 0.45626-0.45626
   2  14   1  392.30  594.34   1 0.86888-0.50297-0.23591-0.71624 0.43524-0.48380
   2  14   2 1350.72 1217.08   1 0.87405-0.50458-0.25572-0.69648 0.41314-0.51026
   3  -7   0 3513.53 1353.28   1-0.06434 0.60848 0.62281-0.14753 0.77976-0.77976
   3  -6  -158450.24 2059.27   1-0.12730 0.66782 0.64435-0.23702 0.75409-0.70560
   3  -6   010119.91  566.51   1-0.03241 0.57643 0.61011-0.20249 0.79168-0.79168
   3  -6   129306.59 1142.40   1 0.08435 0.46324 0.55931-0.15164 0.82468-0.87318
   3  -6   237318.44 1318.20   1 0.22652 0.32471 0.48307-0.07530 0.84580-0.94283
  -3   5  11  966.00  567.12   1 0.41262-0.91753-0.17261-0.16628-0.89441 0.36127
  -3   5  10 8434.16  528.60   1 0.37122-0.87966-0.14204-0.19691-0.91762 0.43295
  -3   5   9 9121.90  549.76   1 0.31727-0.82923-0.10281-0.23621-0.94276 0.50655
  -3   5   8 7193.97 1400.32   1 0.24679-0.76200-0.05090-0.28844-0.96774 0.57980
  -3   5   7 4784.91  504.86   1 0.15706-0.67581 0.01172-0.35111-0.98753 0.64808
   3  -5  -1105383.3 2384.20   1-0.08626 0.62674 0.63065-0.29122 0.77128-0.72279
   3  -5   033474.90 1096.00   1 0.00712 0.53688 0.59407-0.25438 0.80441-0.80441
   3  -5   116464.66  663.56   1 0.11839 0.42919 0.54254-0.20281 0.83167-0.88017
   3  -5   243969.03 1179.39   1 0.24827 0.30294 0.46999-0.13019 0.84706-0.94409
   3  -5   324957.99  694.67   1 0.39347 0.16132 0.37173-0.03197 0.84086-0.98640
   3  -5   437925.16 1261.23   1 0.54594 0.01235 0.24458 0.09526 0.80136-0.99539
   3  -5  13 7679.48 1369.14   1 0.82567-0.23579-0.52924 0.86884-0.19540-0.43535
   3  -5  14 8115.39 1024.09   1 0.82162-0.22816-0.52277 0.86237-0.22730-0.45197
   3  -5  15  250.57  206.54   1 0.81672-0.21969-0.51580 0.85539-0.25869-0.46909
  -3   4  16 2840.07 1312.98   1 0.51246-0.99865-0.24764-0.02363-0.82224 0.04644
  -3   4  15  852.02  691.73   1 0.50358-0.99430-0.24138-0.02932-0.82955 0.10254
  -3   4  14 2650.26  773.74   1 0.49206-0.98632-0.23253-0.03823-0.83894 0.16040
  -3   4  1321645.61 1051.47   1 0.47613-0.97392-0.22037-0.05047-0.85133 0.22125
  -3   4  1239103.60 1333.89   1 0.45481-0.95614-0.20421-0.06669-0.86687 0.28526
  -3   4  1118955.36  871.75   1 0.42687-0.93173-0.18322-0.08774-0.88557 0.35243
  -3   4  1024505.61  991.07   1 0.39072-0.89911-0.15638-0.11465-0.90714 0.42247
  -3   4   9 4256.07 1149.37   1 0.34440-0.85632-0.12246-0.14864-0.93081 0.49461
  -3   4   825154.40  852.27   1 0.28538-0.80057-0.07831-0.19311-0.95522 0.56728
  -3   4   737835.45 1380.26   1 0.21154-0.73028-0.02611-0.24534-0.97703 0.63759
   3  -4  -235273.80 1337.73   1-0.11521 0.65207 0.64045-0.36896 0.75934-0.66235
   3  -4  -233065.79  868.07   1 0.64772-0.11162-0.35598 0.62750-0.67361 0.77058
   3  -4  -141792.20 1304.19   1-0.03800 0.57843 0.61228-0.34058 0.78975-0.74126
   3  -4  -138038.97 1036.70   1 0.55063-0.01096-0.27739 0.54892-0.78732 0.83581
   3  -4   071637.87 1843.53   1 0.05321 0.49078 0.57387-0.30212 0.81724-0.81724
   3  -4   188644.45 2006.51   1 0.15883 0.38875 0.52145-0.24966 0.83839-0.88689
   3  -4   2 2024.17  271.17   1 0.27770 0.27348 0.45164-0.17981 0.84791-0.94494
   3  -4   3 3007.60  742.54   1 0.40554 0.14922 0.36263-0.09085 0.83909-0.98464
   3  -4   4 1968.24  491.64   1 0.53497 0.02332 0.25478 0.01710 0.80556-0.99960
   3  -4   5 2692.85  556.64   1 0.65732-0.09506 0.13048 0.14171 0.74225-0.98535
   3  -4   6 8151.11  824.72   1 0.76023-0.19493-0.00304 0.27511 0.64967-0.94146
   3  -4  15  866.78  862.37   1 0.82736-0.23035-0.53225 0.80391-0.17944-0.54835
   3  -4  1613013.83 1130.73   1 0.82330-0.22272-0.52536 0.79701-0.21490-0.56141
  -3   3  18 3650.87 2737.08   1 0.51824-0.99728-0.25211 0.04875-0.81724-0.05552
  -3   3  16 4590.82 1527.10   1 0.51178-0.99794-0.24711 0.04372-0.82282 0.04702
  -3   3  1523855.37 2111.00   1 0.50329-0.99397-0.24116 0.03837-0.82979 0.10278
  -3   3  1418197.88 3201.28   1 0.49244-0.98666-0.23282 0.02997-0.83864 0.16009
  -3   3  13 1632.85  705.31   1 0.47754-0.97529-0.22145 0.01853-0.85025 0.22018
  -3   3  12 6378.06 1328.72   1 0.45780-0.95908-0.20646 0.00348-0.86476 0.28315
  -3   3  11 6618.53 1451.23   1 0.43218-0.93699-0.18720-0.01584-0.88215 0.34901
  -3   3  10 1506.04  474.80   1 0.39944-0.90778-0.16283-0.04028-0.90219 0.41752
  -3   3   9 2545.00  732.43   1 0.35807-0.86995-0.13242-0.07075-0.92427 0.48806
  -3   3   8 8628.16 1841.10   1 0.30639-0.82156-0.09336-0.11014-0.94733 0.55939
  -3   3   713354.03 1293.28   1 0.24251-0.76123-0.04787-0.15565-0.96898 0.62953
  -3   3   712308.20  451.56   1 0.26096-0.78002-0.11220-0.09155-0.95880 0.61902
  -3   3   632244.21 1075.79   1 0.16519-0.68747 0.00610-0.20967-0.98625 0.69530
  -3   3   631820.55  747.62   1 0.13259-0.65507 0.09141-0.29535-0.98694 0.69544
   3  -3  -342242.55 1457.71   1-0.12637 0.65961 0.64405-0.44051 0.75450-0.60902
   3  -3  -230584.56 1177.53   1-0.06107 0.59788 0.62160-0.41801 0.78098-0.68399
   3  -3  -123842.81  983.73   1 0.01577 0.52464 0.59040-0.38664 0.80699-0.75849
   3  -3   0 8648.68  616.17   1 0.10427 0.43972 0.54961-0.34580 0.82892-0.82892
   3  -3   119810.96  955.10   1 0.20389 0.34368 0.49627-0.29238 0.84391-0.89243
   3  -3   121241.48  602.43   1 0.57144-0.02369-0.76146 0.96604-0.30597 0.25730
   3  -3   118497.15  494.79   1 0.29105 0.25655-0.16280 0.36683-0.94275 0.89421
   3  -3   218725.96  780.31   1 0.31235 0.23880 0.42905-0.22520 0.84758-0.94461
   3  -3   219087.00  641.78   1 0.57108-0.01979-0.78475 0.98944-0.24088 0.14355
   3  -3   216962.33  471.83   1 0.09246 0.45894 0.15172 0.05235-0.98408 0.88692
   3  -3   311343.75  480.28   1 0.57022-0.01540-0.79263 0.99744-0.21580 0.06980
   3  -3   431378.26  948.62   1 0.53756 0.02073 0.25239-0.04847 0.80459-0.99863
   3  -3   430913.66 1019.09   1 0.56988-0.01154-0.79492 0.99984-0.20815 0.01348
   3  -3   5110923.8 2202.37   1 0.64238-0.08010 0.14745 0.05670 0.75209-0.99519
   3  -3   5109053.5 2425.73   1 0.56997-0.00809-0.79437 0.99941-0.20999-0.03333
   3  -3   626326.12  758.12   1 0.73265-0.16682 0.03528 0.16889 0.67972-0.97143
   3  -3   627362.93 1213.49   1 0.57030-0.00489-0.79207 0.99722-0.21766-0.07432
   3  -3   716429.79  563.66   1 0.80335-0.23461-0.07479 0.27890 0.59082-0.93124
   3  -3   719061.32  886.56   1 0.57073-0.00179-0.78850 0.99376-0.22919-0.11146
   3  -3   8 9541.08  484.49   1 0.85212-0.27926-0.18442 0.38811 0.48981-0.87830
   3  -3   810793.55  707.44   1 0.57114 0.00131-0.78391 0.98930-0.24343-0.14588
   3  -3   920060.34 1040.33   1 0.57146 0.00452-0.77846 0.98396-0.25965-0.17833
   3  -3  10 4301.74 1990.24   1 0.57162 0.00790-0.77221 0.97782-0.27737-0.20928
   3  -3  1110537.89 1632.39   1 0.57156 0.01148-0.76520 0.97093-0.29625-0.23906
   3  -3  12  497.11  583.28   1 0.57125 0.01532-0.75747 0.96332-0.31606-0.26792
   3  -3  13  421.48  662.47   1 0.57065 0.01945-0.74902 0.95498-0.33662-0.29602
   3  -3  14  632.55 1009.68   1 0.56973 0.02391-0.73984 0.94592-0.35780-0.32350
  -3   2  18 3345.94 1494.69   1 0.51329-0.99230-0.24828 0.11281-0.82153-0.05123
  -3   2  17 1441.96  650.10   1 0.51123-0.99381-0.24669 0.11120-0.82329-0.00098
  -3   2  16 1887.13  607.02   1 0.50565-0.99276-0.24298 0.10818-0.82782 0.05235
  -3   2  15 1637.61  718.59   1 0.49835-0.98899-0.23736 0.10249-0.83386 0.10685
  -3   2  14  235.88  378.14   1 0.48781-0.98198-0.22928 0.09435-0.84231 0.16377
  -3   2  13 5462.10 1192.92   1 0.47350-0.97120-0.21837 0.08337-0.85331 0.22323
  -3   2  1219991.13 1017.85   1 0.45471-0.95594-0.20413 0.06907-0.86694 0.28533
  -3   2  1120993.26 1018.36   1 0.43059-0.93536-0.18601 0.05088-0.88318 0.35004
  -3   2  10 2760.55  685.53   1 0.40012-0.90842-0.16333 0.02814-0.90180 0.41713
  -3   2   9 4932.57 1273.75   1 0.36210-0.87393-0.13536 0.00011-0.92227 0.48606
  -3   2   8 8873.78 2193.96   1 0.31543-0.83059-0.09986-0.03570-0.94369 0.55575
  -3   2   729433.02 1092.59   1 0.25830-0.77701-0.05904-0.07655-0.96427 0.62482
  -3   2   728486.73  789.43   1 0.26952-0.78857-0.12645-0.00929-0.95465 0.61487
  -3   2   610919.30 1203.42   1 0.19002-0.71227-0.01110-0.12454-0.98173 0.69077
  -3   2   610077.42  763.00   1 0.18551-0.70799 0.00945-0.14537-0.98259 0.69109
   3  -2  -5 9954.72  487.52   1 0.54158-0.01474-0.84025 0.97592 0.02555 0.21760
  -3   2   511162.13  576.95   1 0.06652-0.59262 0.18991-0.32586-0.97954 0.73662
   3  -2  -415861.80 1605.41   1-0.12375 0.65337 0.64321-0.50761 0.75565-0.56167
   3  -2  -414534.41  611.96   1 0.55684-0.02647-0.82742 0.96323-0.07281 0.26734
  -3   2   415520.88  640.55   1-0.08832-0.44160 0.40522-0.54113-0.90994 0.71565
   3  -2  -3 7802.55  627.86   1-0.06747 0.60066 0.62395-0.48830 0.77858-0.63309
   3  -2  -3 6536.82  317.23   1 0.57125-0.03751-0.78249 0.91845-0.24775 0.39375
   3  -2  -3 7327.85  362.88   1 0.30711 0.22564-0.70263 0.83840 0.64185-0.49614
   3  -2  -2 4450.94 1179.52   1-0.00168 0.53851 0.59774-0.46197 0.80171-0.70472
   3  -2  -2 3199.03  211.30   1 0.41740 0.11918-0.79695 0.93302 0.43661-0.33950
   3  -2  -111248.48  719.49   1 0.07382 0.46658 0.56432-0.42849 0.82228-0.77378
   3  -2  -111408.28  507.79   1 0.47181 0.06851-0.82970 0.96588 0.29830-0.24973
   3  -2   0101916.8 2641.27   1 0.15870 0.38528 0.52152-0.38564 0.83838-0.83838
   3  -2   0104385.6 2243.75   1 0.49942 0.04448-0.84027 0.97647 0.21098-0.21098
   3  -2   193921.03 2375.04   1 0.25173 0.29581 0.46787-0.33196 0.84721-0.89573
   3  -2   196689.26 2169.06   1 0.51596 0.03150-0.84341 0.97962 0.14978-0.19835
   3  -2   188367.96 1984.71   1 0.21597 0.33163-0.03866 0.17469-0.97563 0.92709
   3  -2   223298.13 1049.11   1 0.35037 0.20075 0.40299-0.26712 0.84551-0.94254
   3  -2   223160.18  812.82   1 0.52739 0.02364-0.84349 0.97972 0.10180-0.19894
   3  -2   221197.54  888.30   1 0.08902 0.46238 0.15682-0.02076-0.98360 0.88643
   3  -2   313853.56 1834.00   1 0.45067 0.10404 0.32763-0.19168 0.83042-0.97595
   3  -2   313412.76  730.77   1 0.53585 0.01916-0.84248 0.97932 0.05551-0.20141
   3  -2   310327.81  558.32   1-0.01083 0.56572 0.30010-0.16393-0.95384 0.80813
   3  -2   452947.07 1378.34   1 0.54862 0.00968 0.24206-0.10610 0.80029-0.99433
   3  -2   450005.39 1441.47   1 0.54268 0.01585-0.83971 0.97669 0.01953-0.21406
   3  -2   524067.39 1919.02   1 0.63964-0.07733 0.15051-0.01438 0.75382-0.99692
   3  -2   525073.27  957.60   1 0.54835 0.01369-0.83613 0.97325-0.01383-0.22932
   3  -2   638913.03 1253.81   1 0.71879-0.15294 0.05423 0.08190 0.69314-0.98485
   3  -2   638368.41 1314.39   1 0.55315 0.01242-0.83183 0.96910-0.04546-0.24632
   3  -2   733735.78 1243.16   1 0.78337-0.21463-0.03989 0.17600 0.62031-0.96072
   3  -2   735283.38 1573.62   1 0.55722 0.01187-0.82688 0.96430-0.07587-0.26454
   3  -2   8 5066.82  915.15   1 0.83219-0.26001-0.13252 0.26865 0.53845-0.92750
   3  -2   8 6615.67  966.18   1 0.56067 0.01194-0.82129 0.95885-0.10541-0.28363
   3  -2   928400.97 1067.88   1 0.86440-0.28800-0.22063 0.35627 0.45186-0.88891
   3  -2   933353.37 1426.63   1 0.56356 0.01257-0.81508 0.95278-0.13431-0.30337
   3  -2  10 7260.84 1871.59   1 0.56700 0.01262-0.80787 0.94533-0.16078-0.32587
   3  -2  1149175.81 2266.04   1 0.56888 0.01427-0.80041 0.93799-0.18895-0.34636
   3  -2  1222587.39 1287.66   1 0.57027 0.01641-0.79232 0.93001-0.21683-0.36715
   3  -2  1331618.20 2737.68   1 0.57117 0.01904-0.78358 0.92138-0.24446-0.38818
   3  -2  14 8859.27 1639.61   1 0.57159 0.02214-0.77416 0.91208-0.27192-0.40939
   3  -2  15 2223.74 2099.51   1 0.57153 0.02573-0.76407 0.90210-0.29923-0.43074
   3  -2  1615164.10 1369.69   1 0.57099 0.02981-0.75326 0.89141-0.32644-0.45220
  -3   1  18 1723.15  815.19   1 0.50369-0.98369-0.24147 0.17472-0.82946-0.04294
  -3   1  17 1643.27 1047.74   1 0.50139-0.98492-0.23970 0.17289-0.83136 0.00742
  -3   1  1621261.79 4144.75   1 0.49671-0.98377-0.23610 0.16923-0.83519 0.05972
  -3   1  1523167.29 2070.51   1 0.48933-0.97993-0.23045 0.16351-0.84111 0.11410
  -3   1  1416442.53 1059.28   1 0.47886-0.97299-0.22245 0.15544-0.84925 0.17070
  -3   1  1320298.88 1091.57   1 0.46480-0.96247-0.21177 0.14469-0.85972 0.22965
  -3   1  1214651.61 1308.16   1 0.44655-0.94775-0.19799 0.13085-0.87259 0.29098
  -3   1  1155086.73 1807.56   1 0.42338-0.92811-0.18062 0.11342-0.88777 0.35463
  -3   1  1013809.31 1870.95   1 0.39444-0.90270-0.15913 0.09186-0.90505 0.42037
  -3   1   9 2736.70 1048.26   1 0.35875-0.87054-0.13291 0.06558-0.92393 0.48773
  -3   1   846665.43 1536.43   1 0.31564-0.83078-0.10001 0.03236-0.94360 0.55567
  -3   1   844003.83 1430.86   1 0.31621-0.83170-0.20609 0.13837-0.92603 0.53770
  -3   1   769721.96 1836.17   1 0.26333-0.78203-0.06261-0.00506-0.96268 0.62324
  -3   1   762279.74 1929.38   1 0.26659-0.78565-0.12157 0.05381-0.95611 0.61632
   3  -1  -631807.02 1013.50   1 0.57024-0.04699-0.79253 0.85999-0.21614 0.50813
  -3   1   638658.58 1288.49   1 0.20151-0.72375-0.01911-0.04860-0.97931 0.68836
  -3   1   638079.64 1180.73   1 0.20087-0.72349-0.01450-0.05328-0.97951 0.68826
   3  -1  -522244.78 1071.34   1-0.10997 0.63597 0.63872-0.57107 0.76157-0.51909
   3  -1  -520730.69  755.42   1 0.57101-0.04423-0.75359 0.82117-0.32564 0.56896
  -3   1   521919.50  893.92   1 0.11715-0.64324 0.11480-0.18273-0.98645 0.74353
   3  -1  -466099.75 2026.79   1-0.06090 0.59047 0.62154-0.55384 0.78104-0.58706
  -3   1   468499.77 1677.60   1 0.01480-0.54473 0.26412-0.33200-0.96437 0.77009
   3  -1  -3 1102.83  421.86   1-0.00388 0.53712 0.59865-0.53086 0.80103-0.65553
  -3   1   3 1263.66  338.20   1-0.09720-0.43628 0.41692-0.48484-0.90373 0.75801
   3  -1  -239700.55 1382.69   1 0.06138 0.47543 0.57012-0.50229 0.81929-0.72229
  -3   1   241328.30 1143.91   1-0.20526-0.33138 0.55243-0.62036-0.80789 0.71086
   3  -1  -1 7036.11  947.48   1 0.13463 0.40576 0.53423-0.46634 0.83458-0.78608
   3  -1  -1 7420.47  833.67   1 0.30701 0.23286-0.70253 0.77045 0.64201-0.59344
   3  -1   012570.86  790.53   1 0.21500 0.32893 0.48984-0.42187 0.84491-0.84491
   3  -1   015009.40  754.02   1 0.37138 0.17241-0.76104 0.82909 0.53186-0.53186
   3  -1   116294.27  824.54   1 0.41784 0.12952-0.79727 0.86533 0.43561-0.48417
   3  -1   114387.93  701.15   1 0.19358 0.35402-0.00294 0.07097-0.98108 0.93253
   3  -1   2 6837.65  525.81   1 0.39031 0.16078 0.37408-0.30619 0.84128-0.93832
   3  -1   2 7341.30  673.76   1 0.45172 0.09923-0.81926 0.88733 0.35321-0.45032
   3  -1   2 5725.05  815.64   1 0.09706 0.45434 0.14489-0.07684-0.98467 0.88750
   3  -1   3 5176.14 1231.09   1 0.47938 0.07533 0.30386-0.23588 0.82335-0.96888
   3  -1   3 4549.82  745.47   1 0.47713 0.07759-0.83215 0.90029 0.28260-0.42831
   3  -1   437505.51 1242.74   1 0.56519-0.00688 0.22621-0.15823 0.79336-0.98740
   3  -1   437616.14 1600.77   1 0.49649 0.06180-0.83943 0.90759 0.22100-0.41528
   3  -1   519807.58  725.60   1 0.64478-0.08245 0.14477-0.07667 0.75056-0.99366
   3  -1   520173.39  884.13   1 0.51171 0.05016-0.84290 0.91107 0.16634-0.40919
   3  -1   630759.32  996.96   1 0.71440-0.14853 0.06007 0.00802 0.69718-0.98889
   3  -1   629955.10 1193.57   1 0.52393 0.04150-0.84369 0.91187 0.11694-0.40836
   3  -1   778272.96 2482.58   1 0.77273-0.20400-0.02253 0.09065 0.63437-0.97478
   3  -1   777508.97 2915.31   1 0.53343 0.03581-0.84315 0.91236 0.06737-0.40780
   3  -1   812482.43 1196.24   1 0.81875-0.24657-0.10429 0.17243 0.56463-0.95368
   3  -1   812041.43 2115.91   1 0.54163 0.03113-0.84023 0.90959 0.02527-0.41433
   3  -1   943244.51 1589.25   1 0.85168-0.27533-0.18326 0.25088 0.49100-0.92805
   3  -1   943487.44 1896.80   1 0.54844 0.02785-0.83606 0.90556-0.01440-0.42328
   3  -1  1017440.88  740.36   1 0.87380-0.29388-0.25471 0.32230 0.41427-0.89988
   3  -1  1019523.58 4012.64   1 0.55409 0.02572-0.83081 0.90047-0.05216-0.43415
   3  -1  11 6905.24 2059.44   1 0.55874 0.02459-0.82461 0.89441-0.08838-0.44656
   3  -1  12 1078.77  570.18   1 0.56252 0.02433-0.81752 0.88747-0.12335-0.46022
   3  -1  13 1138.52  784.98   1 0.56663 0.02368-0.80908 0.87873-0.15592-0.47672
   3  -1  1411973.33 1738.77   1 0.56889 0.02495-0.80036 0.87013-0.18913-0.49218
   3  -1  15 9034.28 1283.90   1 0.57046 0.02691-0.79085 0.86073-0.22164-0.50834
   3  -1  1610939.11 1152.80   1 0.57136 0.02953-0.78054 0.85054-0.25356-0.52508
  -3   0  1813584.93 3735.49   1 0.49183-0.97179-0.23236 0.23354-0.83912-0.03328
  -3   0  17 2903.92 1076.86   1 0.48921-0.97270-0.23035 0.23147-0.84120 0.01726
  -3   0  16 3148.41 1208.67   1 0.48425-0.97127-0.22656 0.22761-0.84510 0.06962
  -3   0  15 1233.59  540.91   1 0.47665-0.96721-0.22077 0.22175-0.85093 0.12392
  -3   0  14  360.26  347.20   1 0.46606-0.96014-0.21272 0.21364-0.85881 0.18027
  -3   0  13 5507.48 1374.27   1 0.45203-0.94964-0.20211 0.20296-0.86881 0.23874
  -3   0  1224893.61 1364.83   1 0.43402-0.93517-0.18858 0.18936-0.88095 0.29934
  -3   0  11 2337.82  964.27   1 0.41142-0.91610-0.17171 0.17243-0.89513 0.36199
  -3   0  1020106.43 1293.47   1 0.38349-0.89171-0.15106 0.15171-0.91111 0.42644
  -3   0   9251448.1 3755.28   1 0.34945-0.86120-0.12614 0.12673-0.92843 0.49223
  -3   0   8163859.6 4169.54   1 0.30895-0.82409-0.09520 0.09548-0.94631 0.55837
  -3   0   8164627.8 2550.36   1 0.30126-0.81675-0.18025 0.18052-0.93635 0.54802
   3   0  -719214.81 1409.96   1-0.12358 0.64240 0.64316-0.64350 0.75572-0.41626
  -3   0   720269.44  926.67   1 0.26022-0.77890-0.06040 0.06064-0.96367 0.62422
  -3   0   720422.17  838.46   1 0.25781-0.77686-0.10695 0.10719-0.96025 0.62047
   3   0  -6 1075.59  321.47   1-0.08688 0.60927 0.63087-0.63116 0.77104-0.48007
  -3   0   6  889.85  310.04   1 0.20322-0.72545-0.02030 0.02051-0.97893 0.68798
  -3   0   6  830.01  471.61   1 0.20309-0.72571-0.01803 0.01824-0.97899 0.68775
   3   0  -581340.30 2403.02   1-0.04386 0.56994 0.61454-0.61478 0.78770-0.54521
  -3   0   577856.52 2120.36   1 0.13782-0.66359 0.02496-0.02478-0.99015 0.74769
   3   0  -425717.30 1153.52   1 0.00606 0.52358 0.59451-0.59471 0.80409-0.61010
  -3   0   425318.38  950.84   1 0.05820-0.58790 0.20204-0.20197-0.97764 0.78331
   3   0  -310270.05 1275.45   1 0.06297 0.47025 0.56939-0.56954 0.81968-0.67419
  -3   0   311311.19  627.72   1-0.02831-0.50516 0.32429-0.32418-0.94553 0.79982
   3   0  -2 9619.20  704.16   1 0.12672 0.41009 0.53830-0.53840 0.83320-0.73620
  -3   0   2 9647.17  575.49   1-0.11619-0.42046 0.44122-0.44119-0.88984 0.79281
   3   0  -123597.15 1013.49   1 0.19659 0.34372 0.50043-0.50039 0.84319-0.79467
  -3   0   123415.02 1160.30   1-0.19914-0.34108 0.54505-0.54504-0.81440 0.76589
   3   0   021887.80  947.16   1 0.27195 0.27195 0.45528-0.45528 0.84782-0.84782
   3   0   021164.52 1278.43   1 0.27173 0.27173-0.66717 0.66717 0.69357-0.69357
   3   0   018219.47  726.20   1 0.27202 0.27202-0.13065 0.13065-0.95338 0.95338
   3   0   1  102.12  234.10   1 0.35085 0.19664 0.40265-0.40269 0.84547-0.89399
   3   0   1  136.14  321.89   1 0.32954 0.21745-0.72399 0.72406 0.60599-0.65456
   3   0   1   13.05   79.62   1 0.18895 0.35883 0.00402-0.00400-0.98197 0.93339
   3   0   232551.55 1173.34   1 0.43100 0.12012 0.34335-0.34334 0.83450-0.93152
   3   0   232940.23 1270.64   1 0.37620 0.17480-0.76507 0.76510 0.52261-0.61973
   3   0   3 4499.92 1358.91   1 0.51005 0.04466 0.27730-0.27729 0.81424-0.95977
   3   0   3 3463.06 1221.26   1 0.41347 0.14111-0.79413 0.79417 0.44541-0.59108
   3   0   480221.54 2217.49   1 0.58537-0.02706 0.20631-0.20629 0.78410-0.97814
   3   0   480900.67 2263.91   1 0.44335 0.11481-0.81425 0.81430 0.37474-0.56897
   3   0   518879.02 2308.29   1 0.65520-0.09286 0.13293-0.13287 0.74369-0.98679
   3   0   516834.89  852.39   1 0.46764 0.09434-0.82766 0.82773 0.31028-0.55313
   3   0   6 8533.58 1424.20   1 0.71652-0.15063 0.05726-0.05719 0.69524-0.98695
   3   0   6 9854.45 2080.76   1 0.48734 0.07820-0.83633 0.83642 0.25106-0.54248
   3   0   713748.53 1164.32   1 0.76887-0.20014-0.01641 0.01654 0.63923-0.97965
   3   0   715924.19 2616.35   1 0.50357 0.06555-0.84133 0.84143 0.19638-0.53637
   3   0   894803.57 2974.41   1 0.81126-0.23909-0.08962 0.08977 0.57781-0.96686
   3   0   898963.57 2216.73   1 0.51704 0.05565-0.84350 0.84361 0.14550-0.53406
   3   0   912086.83  637.85   1 0.84384-0.26822-0.15953 0.15969 0.51237-0.95005
   3   0   913998.20 2646.45   1 0.52771 0.04874-0.84420 0.84550 0.09404-0.53173
   3   0  1023133.01  918.24   1 0.86617-0.28628-0.22652 0.22610 0.44549-0.93110
   3   0  1021879.80 1635.92   1 0.53713 0.04284-0.84207 0.84352 0.04905-0.53537
   3   0  1135123.57 1186.82   1 0.88074-0.29729-0.28733 0.28686 0.37652-0.91069
   3   0  1134820.72 1578.93   1 0.54501 0.03848-0.83840 0.84000 0.00626-0.54121
   3   0  12 3926.09 1381.31   1 0.55158 0.03543-0.83339 0.83514-0.03469-0.54889
   3   0  13 5654.00 1678.86   1 0.55700 0.03353-0.82719 0.82908-0.07410-0.55811
   3   0  1411228.07 3295.51   1 0.56139 0.03266-0.81990 0.82193-0.11220-0.56863
   3   0  15 2894.30 1643.71   1 0.56485 0.03272-0.81158 0.81376-0.14920-0.58027
   3   0  16 1812.70 1389.23   1 0.56860 0.03239-0.80170 0.80354-0.18429-0.59436
  -3  -1  17 2643.82 1009.87   1 0.47385-0.95729-0.21864 0.28767-0.85304 0.02910
  -3  -1  1625183.33 1677.88   1 0.46852-0.95549-0.21458 0.28355-0.85701 0.08153
  -3  -1  1523010.81 4551.42   1 0.46059-0.95110-0.20858 0.27748-0.86277 0.13576
  -3  -1  1414596.85  998.62   1 0.44974-0.94378-0.20039 0.26922-0.87040 0.19186
  -3  -1  1319289.58 1170.44   1 0.43557-0.93314-0.18974 0.25851-0.87994 0.24987
  -3  -1  1215346.07  981.35   1 0.41760-0.91871-0.17631 0.24502-0.89137 0.30976
  -3  -1  1159577.52 1932.89   1 0.39530-0.89994-0.15977 0.22841-0.90456 0.37142
   3   1 -1014983.92 1534.37   1-0.13799 0.64605 0.64770-0.71607 0.74933-0.26438
  -3  -1  1015471.64  899.33   1 0.36805-0.87622-0.13972 0.20830-0.91926 0.43458
   3   1  -9 2493.88  840.24   1-0.11555 0.62718 0.64056-0.70889 0.75919-0.32274
  -3  -1   9 3157.24 1049.20   1 0.33520-0.84690-0.11578 0.18429-0.93502 0.49881
  -3  -1   9 2625.19  567.90   1 0.31601-0.82793-0.20574 0.27405-0.92617 0.48931
   3   1  -841877.63 1640.15   1-0.08831 0.60351 0.63137-0.69964 0.77047-0.38251
  -3  -1   842870.18 1857.91   1 0.29667-0.81178-0.08638 0.15458-0.95107 0.56314
  -3  -1   840491.24 1724.91   1 0.28448-0.79997-0.15164 0.21991-0.94661 0.55828
   3   1  -769818.92 2138.48   1-0.05586 0.57462 0.61967-0.68790 0.78290-0.44344
  -3  -1   766871.64 2995.59   1 0.25066-0.76932-0.05363 0.12180-0.96660 0.62715
  -3  -1   766834.03 1890.95   1 0.24544-0.76450-0.08655 0.15479-0.96553 0.62575
   3   1  -636832.57 1483.65   1-0.01795 0.54043 0.60438-0.67261 0.79652-0.50553
  -3  -1   638906.28 1365.23   1 0.19740-0.71961-0.01624 0.08437-0.98020 0.68925
  -3  -1   638339.52 1280.40   1 0.19799-0.72062-0.00993 0.07813-0.98015 0.68891
   3   1  -520853.93 1043.93   1 0.02596 0.50010 0.58601-0.65419 0.80992-0.56743
  -3  -1   522544.73  950.00   1 0.14210-0.66819 0.07689-0.00878-0.98686 0.74394
   3   1  -466377.28 2054.21   1 0.07585 0.45378 0.56336-0.63149 0.82275-0.62876
  -3  -1   467850.31 1884.41   1 0.07762-0.60732 0.17365-0.10556-0.98174 0.78740
   3   1  -3 1496.97  518.16   1 0.13164 0.40158 0.53578-0.60386 0.83406-0.68857
  -3  -1   3 1115.11  329.38   1 0.00675-0.54023 0.27548-0.20734-0.96128 0.81556
   3   1  -240202.92 1438.84   1 0.19265 0.34406 0.50267-0.57056 0.84277-0.74574
  -3  -1   240655.91 1354.30   1-0.06674-0.47029 0.37650-0.30839-0.92401 0.82686
   3   1  -1 6795.85  575.03   1 0.25878 0.28151 0.46352-0.53146 0.84748-0.79896
  -3  -1   1 8378.73 1074.50   1-0.13911-0.40112 0.47060-0.40262-0.87131 0.82279
   3   1   013313.52  889.70   1 0.32845 0.21542 0.41818-0.48615 0.84693-0.84693
  -3  -1   013630.66  803.99   1-0.20687-0.33694 0.55436-0.48639-0.80615 0.80615
   3   1   115228.42  890.59   1 0.40010 0.14735 0.36675-0.43477 0.83991-0.88843
   3   1   115434.84  906.71   1 0.26125 0.28578-0.65629 0.58838 0.70782-0.75639
   3   1   2 7274.98 1305.89   1 0.47183 0.07930 0.31021-0.37816 0.82534-0.92236
   3   1   2 8371.75  662.21   1 0.31255 0.23802-0.70789 0.64004 0.63340-0.73054
   3   1   3 6584.40 1433.83   1 0.54172 0.01300 0.24853-0.31648 0.80300-0.94853
   3   1   3 5629.76  648.68   1 0.35606 0.19858-0.74788 0.67987 0.56025-0.70592
   3   1   438988.27 1350.48   1 0.60845-0.04963 0.18414-0.25214 0.77196-0.96644
   3   1   438515.07 1802.54   1 0.39266 0.16555-0.77838 0.71038 0.48983-0.68406
   3   1   518826.32 1370.96   1 0.66919-0.10682 0.11662-0.18460 0.73391-0.97701
   3   1   518389.07  931.01   1 0.42334 0.13845-0.80113 0.73315 0.42304-0.66582
   3   1   632055.77 1176.89   1 0.72319-0.15727 0.04830-0.11627 0.68899-0.98071
   3   1   631199.82 1313.60   1 0.44908 0.11629-0.81771 0.74974 0.36008-0.65142
   3   1   777685.69 2608.96   1 0.76994-0.20123-0.01811-0.04974 0.63788-0.97830
   3   1   777845.00 2836.18   1 0.47090 0.09834-0.82926 0.76126 0.30095-0.64094
   3   1   812926.76 1499.56   1 0.80846-0.23630-0.08430 0.01646 0.58251-0.97156
   3   1   814255.89 2993.06   1 0.48918 0.08362-0.83701 0.76902 0.24517-0.63372
   3   1   939773.53 2063.68   1 0.83898-0.26337-0.14792 0.08010 0.52370-0.96138
   3   1   939817.42 1852.24   1 0.50466 0.07171-0.84158 0.77361 0.19246-0.62958
   3   1  1019341.50  868.64   1 0.86089-0.28103-0.20956 0.14113 0.46367-0.94928
   3   1  1021919.64 3673.81   1 0.51780 0.06215-0.84355 0.77559 0.14246-0.62816
   3   1  11 6918.06  548.62   1 0.87646-0.29304-0.26610 0.19762 0.40129-0.93547
   3   1  11 6974.33 1348.67   1 0.52828 0.05536-0.84412 0.77752 0.09145-0.62641
   3   1  12 1198.21  506.74   1 0.53773 0.04943-0.84186 0.77540 0.04594-0.62952
   3   1  13 1488.79  505.84   1 0.54570 0.04499-0.83797 0.77166 0.00221-0.63443
   3   1  1412788.20 2067.14   1 0.55235 0.04186-0.83265 0.76648-0.03995-0.64089
   3   1  15 8390.03 3529.42   1 0.55783 0.03990-0.82601 0.75999-0.08077-0.64870
   3   1  1613015.20 1462.01   1 0.56223 0.03902-0.81816 0.75228-0.12043-0.65767
   3   2 -17  546.69  395.04   1-0.13442 0.61745 0.64659-0.78319 0.75093 0.07347
  -3  -2  17 1693.82  674.51   1 0.45547-0.93887-0.20471 0.34167-0.86640 0.04246
   3   2 -16 2663.73  594.07   1-0.13467 0.62127 0.64667-0.78322 0.75082 0.02508
  -3  -2  16 2614.94  712.71   1 0.44969-0.93662-0.20035 0.33724-0.87043 0.09496
   3   2 -15 1971.19  514.80   1-0.13217 0.62233 0.64589-0.78239 0.75194-0.02452
  -3  -2  15 2071.24  684.83   1 0.44135-0.93182-0.19408 0.33091-0.87610 0.14909
   3   2 -14  465.22  313.54   1-0.12673 0.62046 0.64417-0.78063 0.75434-0.07542
  -3  -2  14  282.73  296.53   1 0.43015-0.92415-0.18568 0.32244-0.88346 0.20492
   3   2 -13 3447.19 1680.47   1-0.11812 0.61543 0.64140-0.77781 0.75809-0.12766
  -3  -2  13 6153.99 2476.57   1 0.41572-0.91325-0.17492 0.31161-0.89252 0.26245
   3   2 -1218813.70 2396.98   1-0.10610 0.60697 0.63744-0.77380 0.76319-0.18126
  -3  -2  1218052.23 1060.39   1 0.39766-0.89872-0.16151 0.29814-0.90322 0.32161
   3   2 -1121310.18 1283.15   1-0.09037 0.59482 0.63208-0.76840 0.76964-0.23620
  -3  -2  1121139.04 1235.79   1 0.37547-0.88007-0.14516 0.28173-0.91540 0.38226
   3   2 -10 2472.71  856.99   1-0.07064 0.57866 0.62510-0.76137 0.77737-0.29243
  -3  -2  10 1945.38  716.12   1 0.34866-0.85678-0.12556 0.26206-0.92881 0.44414
  -3  -2  10 1978.77  694.80   1 0.32014-0.82849-0.21294 0.34928-0.92312 0.43772
   3   2  -9 4210.87  617.43   1-0.04680 0.55853 0.61565-0.75197 0.78665-0.35017
  -3  -2   9 5443.36 1609.15   1 0.31739-0.82894-0.10127 0.23743-0.94288 0.50645
  -3  -2   9 4497.19  564.45   1 0.29591-0.80783-0.17109 0.30739-0.93976 0.50290
   3   2  -8 9134.87 1356.67   1-0.01810 0.53341 0.60444-0.74071 0.79647-0.40849
  -3  -2   810148.86 2488.52   1 0.27967-0.79477-0.07424 0.21036-0.95723 0.56929
  -3  -2   8 8013.83  778.13   1 0.26631-0.78180-0.12110 0.25737-0.95624 0.56792
   3   2  -728074.97 1697.58   1 0.01549 0.50340 0.59052-0.72674 0.80690-0.46741
  -3  -2   728838.67 1694.41   1 0.23581-0.75446-0.04315 0.17925-0.97085 0.63140
  -3  -2   727854.05 1918.97   1 0.23065-0.74971-0.06238 0.19862-0.97103 0.63125
   3   2  -6 9861.76 2014.13   1 0.05417 0.46830 0.57343-0.70960 0.81749-0.52650
  -3  -2   610265.25  724.90   1 0.18552-0.70772-0.00798 0.14403-0.98262 0.69166
  -3  -2   610130.95  756.82   1 0.18874-0.71121 0.00434 0.13179-0.98201 0.69051
   3   2  -511413.32  911.26   1 0.09803 0.42802 0.55268-0.68880 0.82763-0.58514
  -3  -2   510713.86  838.93   1 0.13978-0.66587 0.08043 0.05568-0.98691 0.74398
   3   2  -417683.16  969.27   1 0.14699 0.38264 0.52776-0.66383 0.83660-0.64261
  -3  -2   415487.61  924.49   1 0.08461-0.61431 0.16335-0.02725-0.98293 0.78859
   3   2  -3 6812.42  831.07   1 0.20037 0.33273 0.49828-0.63411 0.84357-0.69802
  -3  -2   3 8244.76 2020.32   1 0.02429-0.55777 0.25066-0.11449-0.96777 0.82205
   3   2  -2 2918.00  398.00   1 0.25848 0.27819 0.46370-0.59958 0.84747-0.75044
  -3  -2   2 4039.72 1023.17   1-0.03869-0.49835 0.33851-0.20239-0.94016 0.84302
   3   2  -112079.50  831.54   1 0.31996 0.22030 0.42394-0.55985 0.84731-0.79880
  -3  -2   111254.74  725.25   1-0.10212-0.43811 0.42294-0.28700-0.90038 0.85187
   3   2   0106166.5 2816.45   1 0.38366 0.16018 0.37901-0.51496 0.84214-0.84214
  -3  -2   0106433.1 2754.23   1-0.16357-0.38024 0.50138-0.36545-0.84962 0.84962
   3   2   223649.87 1025.35   1 0.51204 0.03909 0.27554-0.41146 0.81359-0.91061
   3   2   223784.33 1140.74   1 0.26282 0.28778-0.65793 0.52210 0.70572-0.80286
   3   2   313690.90 1590.66   1 0.57365-0.01891 0.21796-0.35388 0.78959-0.93512
   3   2   312647.83 1215.23   1 0.30856 0.24559-0.70403 0.56827 0.63962-0.78533
   3   2   449861.06 1511.47   1 0.63232-0.07349 0.15859-0.29462 0.75833-0.95281
   3   2   452692.86 1779.71   1 0.34849 0.20978-0.74119 0.60515 0.57375-0.76797
   3   2   525909.96  986.51   1 0.68553-0.12315 0.09689-0.23291 0.72159-0.96469
   3   2   524516.91 1122.75   1 0.38317 0.17868-0.77079 0.63476 0.50898-0.75176
   3   2   638869.11 1331.29   1 0.73302-0.16709 0.03476-0.17078 0.67934-0.97106
   3   2   640891.67 1822.69   1 0.41309 0.15233-0.79385 0.65784 0.44625-0.73758
   3   2   734626.59 1435.84   1 0.77462-0.20591-0.02556-0.11028 0.63194-0.97236
   3   2   732692.78 1871.28   1 0.43887 0.13014-0.81144 0.67544 0.38594-0.72583
   3   2   8 7463.13 1254.65   1 0.80927-0.23711-0.08583-0.05000 0.58116-0.97021
   3   2   8 5642.55 1688.54   1 0.46120 0.11172-0.82433 0.68824 0.32826-0.71682
   3   2   934152.99 1209.58   1 0.83731-0.26170-0.14404 0.00822 0.52745-0.96513
   3   2   932517.65 1925.37   1 0.48030 0.09619-0.83352 0.69745 0.27302-0.71015
   3   2  10 6966.58 2102.79   1 0.85799-0.27817-0.20092 0.06447 0.47277-0.95838
   3   2  10 8925.11 1700.12   1 0.49674 0.08332-0.83951 0.70344 0.22014-0.70584
   3   2  1150330.62 1539.84   1 0.87350-0.29011-0.25349 0.11700 0.41565-0.94983
   3   2  1150427.56 2011.73   1 0.51089 0.07275-0.84277 0.70672 0.16946-0.70373
   3   2  1222292.59 1333.02   1 0.88332-0.29636-0.30299 0.16646 0.35774-0.94047
   3   2  1221860.28 4536.28   1 0.52303 0.06417-0.84371 0.70767 0.12078-0.70361
   3   2  1333195.60 2921.55   1 0.53272 0.05812-0.84332 0.70881 0.07078-0.70299
   3   2  14 8943.94 2910.35   1 0.54159 0.05277-0.84025 0.70589 0.02550-0.70635
   3   2  15 3758.01 1716.13   1 0.54907 0.04882-0.83557 0.70135-0.01834-0.71113
   3   2  1614351.76 1347.85   1 0.55529 0.04613-0.82942 0.69535-0.06092-0.71718
   3   3 -17  251.98  381.47   1-0.07242 0.55540 0.62574-0.83024 0.77669 0.04770
  -3  -3  17  397.56  366.87   1 0.43418-0.91754-0.18870 0.39358-0.88085 0.05691
   3   3 -16 3517.61 2382.97   1-0.07147 0.55802 0.62540-0.82985 0.77705-0.00114
  -3  -3  16 6145.99 1829.37   1 0.42791-0.91480-0.18400 0.38882-0.88490 0.10942
   3   3 -1525396.04 2397.41   1-0.06768 0.55780 0.62402-0.82843 0.77850-0.05108
  -3  -3  1524550.53 2249.33   1 0.41911-0.90953-0.17743 0.38219-0.89044 0.16343
   3   3 -1415935.98 1652.07   1-0.06086 0.55455 0.62153-0.82588 0.78105-0.10213
  -3  -3  1418593.47 1772.35   1 0.40749-0.90144-0.16879 0.37348-0.89748 0.21894
   3   3 -13 1863.85  523.29   1-0.05082 0.54808 0.61778-0.82209 0.78473-0.15430
  -3  -3  13 2640.54 1131.71   1 0.39272-0.89021-0.15787 0.36249-0.90601 0.27594
   3   3 -12 6405.37  818.61   1-0.03761 0.53859 0.61213-0.81653 0.78989-0.20791
  -3  -3  12 6726.51 2082.65   1 0.37446-0.87547-0.14442 0.34897-0.91594 0.33433
   3   3 -11 7244.09 1712.87   1-0.02043 0.52499 0.60537-0.80973 0.79571-0.26223
  -3  -3  11 7736.37 2321.13   1 0.35227-0.85682-0.12819 0.33268-0.92709 0.39395
  -3  -3  11 6408.13 2823.45   1 0.31771-0.82249-0.20870 0.41307-0.92493 0.39098
   3   3 -10 1940.90  594.38   1 0.00065 0.50748 0.59677-0.80108 0.80244-0.31746
  -3  -3  10 1365.25  636.67   1 0.32574-0.83382-0.10893 0.31335-0.93917 0.45450
  -3  -3  10 2110.00  461.51   1 0.29838-0.80674-0.17532 0.37966-0.93820 0.45279
   3   3  -9 2326.57 1081.31   1 0.02588 0.48584 0.58604-0.79030 0.80990-0.37341
  -3  -3   9 2558.09 1143.47   1 0.29520-0.80673-0.08533 0.28942-0.95163 0.51520
  -3  -3   9 2119.15  448.60   1 0.27500-0.78692-0.13564 0.33995-0.95182 0.51496
   3   3  -8 8921.03 2269.97   1 0.05544 0.45986 0.57285-0.77706 0.81781-0.42982
  -3  -3   8 8454.83 1802.94   1 0.25863-0.77371-0.05927 0.26333-0.96417 0.57623
  -3  -3   8 9013.26 2495.15   1 0.24704-0.76253-0.08917 0.29344-0.96489 0.57656
   3   3  -712824.81  997.83   1 0.08946 0.42942 0.55685-0.76101 0.82581-0.48632
  -3  -3   714821.77 2609.50   1 0.21651-0.73514-0.02960 0.23361-0.97584 0.63640
  -3  -3   711579.77  819.15   1 0.21407-0.73313-0.03560 0.23984-0.97616 0.63638
   3   3  -632194.74 1382.64   1 0.12799 0.39446 0.53765-0.74176 0.83342-0.54243
  -3  -3   631767.30 1323.79   1 0.16866-0.69084 0.00371 0.20027-0.98568 0.69472
  -3  -3   631056.29 1944.75   1 0.17609-0.69855 0.02424 0.17990-0.98407 0.69256
   3   3  -5 9622.48  749.45   1 0.17096 0.35508 0.51487-0.71893 0.84007-0.59758
  -3  -3   5 9911.87  850.13   1 0.13251-0.65859 0.09152 0.11260-0.98694 0.74402
   3   3  -4 2203.12  811.55   1 0.21767 0.31181 0.48828-0.69205 0.84513-0.65106
  -3  -3   4 2315.99  640.66   1 0.08403-0.61373 0.16420 0.03991-0.98284 0.78850
   3   3  -350451.64 1751.74   1 0.26874 0.26433 0.45731-0.66111 0.84776-0.70221
  -3  -3   345768.96 2311.69   1 0.03135-0.56482 0.24059-0.03640-0.97012 0.82440
   3   3  -234205.33 1403.16   1 0.32291 0.21374 0.42195-0.62579 0.84719-0.75016
  -3  -3   231984.90 1256.77   1-0.02377-0.51326 0.31802-0.11387-0.94778 0.85064
   3   3  -125802.59 1153.44   1 0.37933 0.16090 0.38219-0.58608 0.84266-0.79415
  -3  -3   125925.57 1133.44   1-0.07994-0.46065 0.39412-0.19000-0.91557 0.86700
   3   3   011198.69 2129.30   1 0.43709 0.10686 0.33853-0.54243 0.83330-0.83330
  -3  -3   0 8592.00  829.16   1-0.13544-0.40837 0.46593-0.26203-0.87439 0.87439
   3   3   121817.82 1263.51   1 0.49471 0.05284 0.29074-0.49464 0.81901-0.86752
  -3  -3  -121520.48  980.31   1-0.18868-0.35871 0.53234-0.32846-0.82523 0.87374
   3   3   219826.21  982.05   1 0.55117-0.00002 0.23965-0.44353 0.79926-0.89628
   3   3   219640.70 1065.50   1 0.22565 0.32499-0.61813 0.41432 0.75298-0.85012
   3   3   3 9870.90  827.22   1 0.60602-0.05072 0.18667-0.39076 0.77326-0.91912
   3   3   310921.89  817.52   1 0.27118 0.28300-0.66660 0.46286 0.69433-0.84003
   3   3   432521.14 1644.15   1 0.65681-0.09796 0.13107-0.33515 0.74260-0.93708
   3   3   432140.66 1421.54   1 0.31226 0.24546-0.70762 0.50393 0.63384-0.82812
   3   3   5113067.1 2697.38   1 0.70336-0.14096 0.07448-0.27854 0.70695-0.95005
   3   3   5116692.1 3069.81   1 0.34882 0.21309-0.74148 0.53740 0.57317-0.81595
   3   3   628965.22 1580.05   1 0.74546-0.18021 0.01889-0.22275 0.66631-0.95809
   3   3   628136.33 1540.78   1 0.38123 0.18425-0.76921 0.56515 0.51281-0.80414
   3   3   720236.45 1550.54   1 0.78188-0.21318-0.03741-0.16642 0.62234-0.96275
   3   3   718468.30 1090.49   1 0.40976 0.15930-0.79142 0.58737 0.45359-0.79348
   3   3   811822.19 2490.45   1 0.81279-0.24064-0.09256-0.11125 0.57519-0.96424
   3   3   812185.02 3251.43   1 0.43480 0.13784-0.80883 0.60479 0.39591-0.78436
   3   3   918382.45  871.77   1 0.83817-0.26258-0.14604-0.05775 0.52552-0.96320
   3   3   921033.45 1864.89   1 0.45687 0.11974-0.82197 0.61779 0.34004-0.77716
   3   3  10 5089.54 1270.56   1 0.85722-0.27743-0.19865-0.00579 0.47513-0.96075
   3   3  10 6317.27 1316.09   1 0.47602 0.10416-0.83165 0.62749 0.28592-0.77162
   3   3  1110822.24  907.05   1 0.87201-0.28865-0.24757 0.04307 0.42231-0.95648
   3   3  1110290.17 2811.86   1 0.49272 0.09102-0.83824 0.63409 0.23361-0.76788
   3   3  12  643.20  349.39   1 0.88190-0.29498-0.29398 0.08945 0.36859-0.95133
   3   3  12 1028.25  742.74   1 0.50726 0.08006-0.84213 0.63800 0.18302-0.76586
   3   3  13 1360.18  694.84   1 0.51986 0.07103-0.84366 0.63954 0.13405-0.76546
   3   3  14 1974.60  853.35   1 0.52998 0.06455-0.84386 0.64130 0.08371-0.76456
   3   3  15 3404.76 1844.63   1 0.53933 0.05871-0.84124 0.63883 0.03762-0.76710
   3   4 -17  511.22  607.47   1-0.00582 0.48889 0.59945-0.87204 0.80042 0.02404
   3   4 -16 3612.94 1712.29   1-0.00377 0.49043 0.59861-0.87115 0.80106-0.02509
  -3  -4  16 3822.62  903.49   1 0.40328-0.89012-0.16567 0.43841-0.89997 0.12449
   3   4 -15 1085.08  456.94   1 0.00118 0.48905 0.59655-0.86904 0.80260-0.07513
  -3  -4  15 1150.00  615.19   1 0.39397-0.88434-0.15878 0.43146-0.90531 0.17830
   3   4 -14 2711.11  674.65   1 0.00920 0.48460 0.59319-0.86563 0.80504-0.12606
  -3  -4  14 2613.29  775.89   1 0.38189-0.87580-0.14988 0.42249-0.91198 0.23344
   3   4 -1323252.33 1385.33   1 0.02046 0.47693 0.58839-0.86078 0.80835-0.17787
  -3  -4  1321621.32 1293.79   1 0.36675-0.86419-0.13877 0.41131-0.91992 0.28985
  -3  -4  1322651.81 1404.25   1 0.32368-0.82133-0.21914 0.49158-0.92043 0.28940
   3   4 -1239077.81 1692.87   1 0.03510 0.46586 0.58200-0.85434 0.81246-0.23048
  -3  -4  1236072.51 1501.61   1 0.34822-0.84920-0.12524 0.39772-0.92902 0.34741
  -3  -4  1239010.89 1705.25   1 0.31075-0.81197-0.19662 0.46902-0.92993 0.34744
   3   4 -1118439.60 1161.52   1 0.05333 0.45122 0.57382-0.84611 0.81727-0.28379
  -3  -4  1119345.00 3261.25   1 0.32596-0.83047-0.10909 0.38151-0.93907 0.40593
  -3  -4  1118004.63 1116.59   1 0.29496-0.79975-0.16947 0.44184-0.94035 0.40641
   3   4 -1023116.72 1250.34   1 0.07528 0.43285 0.56363-0.83587 0.82262-0.33764
  -3  -4  1023857.50 1289.87   1 0.30049-0.80847-0.08913 0.36117-0.94962 0.46470
  -3  -4  1022901.87 1278.10   1 0.27596-0.78431-0.13726 0.40960-0.95131 0.46591
   3   4  -9 5097.89  637.25   1 0.10109 0.41062 0.55118-0.82337 0.82827-0.39178
  -3  -4   9 6302.69 1572.72   1 0.26965-0.78117-0.06710 0.33911-0.96063 0.52420
  -3  -4   9 6303.69 1688.10   1 0.25337-0.76529-0.09960 0.37191-0.96222 0.52536
   3   4  -825187.82 1221.61   1 0.13085 0.38444 0.53618-0.80832 0.83393-0.44594
  -3  -4   826091.06 1227.20   1 0.23402-0.74909-0.04189 0.31387-0.97134 0.58340
  -3  -4   824450.44 1178.87   1 0.22684-0.74234-0.05620 0.32847-0.97230 0.58398
   3   4  -737003.35 1799.71   1 0.16458 0.35429 0.51835-0.79044 0.83921-0.49972
  -3  -4   736926.22 1693.77   1 0.19337-0.71199-0.01343 0.28537-0.98104 0.64160
  -3  -4   736015.65 1690.92   1 0.19636-0.71521-0.00771 0.27990-0.98050 0.64041
   3   4  -623968.39 1167.84   1 0.20152 0.32077 0.49762-0.76928 0.84368-0.55259
  -3  -4   625304.33 1177.07   1 0.14758-0.66974 0.01825 0.25365-0.98889 0.69794
  -3  -4   624504.37 1479.65   1 0.16125-0.68371 0.04738 0.22478-0.98577 0.69427
   3   4  -5 9644.75  888.27   1 0.24295 0.28292 0.47322-0.74492 0.84680-0.60422
  -3  -4   5 9446.62 2532.87   1 0.12183-0.64790 0.10773 0.16441-0.98668 0.74376
   3   4  -4 3316.73  567.84   1 0.28772 0.24173 0.44521-0.71696 0.84796-0.65390
  -3  -4   4 3380.43 1320.48   1 0.07844-0.60813 0.17245 0.09968-0.98189 0.78755
   3   4  -315146.73 2304.72   1 0.33533 0.19770 0.41346-0.68524 0.84655-0.70100
  -3  -4   312948.54  827.11   1 0.03154-0.56501 0.24032 0.03189-0.97018 0.82446
   3   4  -237461.19 1484.28   1 0.38512 0.15150 0.37793-0.64975 0.84196-0.74492
  -3  -4   235552.07 1694.95   1-0.01750-0.51953 0.30935-0.03717-0.95078 0.85364
   3   4  -143438.69 2257.82   1 0.43649 0.10387 0.33900-0.61087 0.83342-0.78491
  -3  -4   143448.66 1498.38   1-0.06778-0.47281 0.37789-0.10574-0.92336 0.87479
   3   4   080023.11 2181.01   1 0.48808 0.05588 0.29645-0.56832 0.82094-0.82094
  -3  -4   073497.20 2047.13   1-0.11808-0.42574 0.44366-0.17180-0.88838 0.88838
   3   4   192534.00 2365.61   1 0.53919 0.00835 0.25087-0.52273 0.80397-0.85248
  -3  -4  -191437.92 2387.49   1-0.16715-0.38025 0.50583-0.23399-0.84628 0.89479
   3   4   2 2867.13  609.10   1 0.58889-0.03774 0.20277-0.47462 0.78239-0.87941
  -3  -4  -2 2342.53  937.88   1-0.21398-0.33699 0.56287-0.29104-0.79836 0.89539
   3   4   3 3213.48 1289.56   1 0.63706-0.08173 0.15337-0.42549 0.75543-0.90129
   3   4   3 4791.63 1188.63   1 0.24296 0.31125-0.63691 0.36519 0.73164-0.87735
   3   4   4 3478.29  995.01   1 0.68138-0.12251 0.10197-0.37408 0.72481-0.91929
   3   4   4 2514.75  720.36   1 0.28369 0.27407-0.67938 0.40772 0.67672-0.87100
   3   4   5 4090.02 1154.71   1 0.72200-0.15958 0.04990-0.32201 0.69012-0.93321
   3   4   5 4211.62 1434.28   1 0.32085 0.24045-0.71583 0.44423 0.62019-0.86304
   3   4   611773.68 1849.71   1 0.75894-0.19369-0.00107-0.27077 0.65119-0.94298
   3   4   610470.24  858.91   1 0.35435 0.21119-0.74638 0.47427 0.56333-0.85467
   3   4   719257.04  910.18   1 0.79093-0.22224-0.05272-0.21910 0.60966-0.95007
   3   4   719607.65 1175.93   1 0.38449 0.18463-0.77185 0.49976 0.50636-0.84625
   3   4   814476.93 1009.28   1 0.81829-0.24615-0.10338-0.16842 0.56546-0.95450
   3   4   813519.98 1273.73   1 0.41139 0.16130-0.79261 0.52053 0.45001-0.83846
   3   4   9 6101.15 1481.60   1 0.84099-0.26541-0.15267-0.11912 0.51909-0.95677
   3   4   9 4830.88 1850.10   1 0.43531 0.14096-0.80916 0.53709 0.39465-0.83165
   3   4  10 5088.32 1566.64   1 0.85817-0.27841-0.20143-0.07103 0.47224-0.95785
   3   4  10 4065.90 1869.34   1 0.45669 0.12360-0.82187 0.54960 0.34053-0.82622
   3   4  11 4681.71 1940.20   1 0.87186-0.28853-0.24697-0.02552 0.42297-0.95715
   3   4  11 4745.31 1075.18   1 0.47543 0.10843-0.83138 0.55913 0.28768-0.82195
   3   4  1223027.67 1998.93   1 0.88130-0.29441-0.29046 0.01792 0.37279-0.95553
   3   4  1221503.21 4988.79   1 0.49194 0.09549-0.83797 0.56574 0.23619-0.81903
   3   4  13 8829.48 2732.52   1 0.50643 0.08457-0.84196 0.56974 0.18605-0.81745
   3   4  14 2305.23 1751.65   1 0.51909 0.07548-0.84363 0.57142 0.13719-0.81717
   3   4  15 2009.87 1440.94   1 0.52928 0.06892-0.84398 0.57336 0.08691-0.81639
   3   5 -17 2167.07 1205.42   1 0.06558 0.41748 0.56818-0.90870 0.82032 0.00414
   3   5 -16 3119.64 2585.10   1 0.06850 0.41814 0.56682-0.90729 0.82102-0.04505
  -3  -5  16 4443.18 3339.73   1 0.32634-0.81328-0.22380 0.56434-0.91837 0.14172
   3   5 -15 7200.78  812.31   1 0.07436 0.41586 0.56406-0.90449 0.82240-0.09493
  -3  -5  15 5678.97 2184.52   1 0.36604-0.85637-0.13824 0.47884-0.92028 0.19327
  -3  -5  15 5598.80  885.16   1 0.31968-0.81019-0.21214 0.55265-0.92347 0.19536
   3   5 -1428331.73 2539.72   1 0.08328 0.41052 0.55982-0.90020 0.82444-0.14547
  -3  -5  1430435.95 2654.79   1 0.35348-0.84735-0.12907 0.46961-0.92650 0.24796
  -3  -5  1426573.42 2453.35   1 0.31110-0.80518-0.19722 0.53770-0.92968 0.25011
   3   5 -1311745.50 1014.88   1 0.09537 0.40201 0.55398-0.89431 0.82708-0.19660
  -3  -5  1311685.52 1608.20   1 0.33794-0.83534-0.11777 0.45824-0.93378 0.30370
  -3  -5  1311940.73 1026.57   1 0.30039-0.79804-0.17876 0.51919-0.93691 0.30588
   3   5 -12 5720.45 1948.11   1 0.11075 0.39021 0.54638-0.88666 0.83021-0.24823
  -3  -5  12 6253.07 1802.91   1 0.32013-0.82099-0.10325 0.44329-0.94174 0.35984
  -3  -5  12 5006.82 2265.88   1 0.28730-0.78852-0.15642 0.49682-0.94498 0.36249
   3   5 -11 2235.88 1174.32   1 0.12953 0.37501 0.53686-0.87709 0.83369-0.30021
  -3  -5  11 2021.06  563.14   1 0.29774-0.80215-0.08715 0.42716-0.95067 0.41726
  -3  -5  11 2223.66  570.85   1 0.27157-0.77635-0.12989 0.47026-0.95361 0.41966
   3   5 -10 8757.95  903.24   1 0.15179 0.35633 0.52522-0.86540 0.83735-0.35237
  -3  -5  10 9509.30 2992.63   1 0.27148-0.77944-0.06840 0.40837-0.96002 0.47510
  -3  -5  1010275.26 2310.80   1 0.25292-0.76128-0.09887 0.43921-0.96242 0.47701
   3   5  -910894.39  995.28   1 0.17757 0.33414 0.51124-0.85137 0.84092-0.40444
  -3  -5   9 9200.11 2554.71   1 0.24106-0.75257-0.04685 0.38679-0.96939 0.53296
  -3  -5   910893.33  983.58   1 0.23109-0.74302-0.06311 0.40341-0.97088 0.53401
   3   5  -8 7500.83  732.01   1 0.20600 0.30910 0.49506-0.83461 0.84411-0.45599
  -3  -5   8 7660.76 1582.72   1 0.20624-0.72130-0.02241 0.36231-0.97825 0.59032
  -3  -5   8 7882.10 2846.91   1 0.20585-0.72134-0.02244 0.36270-0.97832 0.59000
   3   5  -7 6066.07  683.10   1 0.23885 0.27984 0.47571-0.81530 0.84658-0.50697
  -3  -5   7 5341.78  638.60   1 0.16685-0.68545 0.00496 0.33490-0.98598 0.64653
  -3  -5   7 4713.09 1367.47   1 0.17724-0.69608 0.02245 0.31775-0.98391 0.64382
   3   5  -621277.31 1093.25   1 0.27495 0.24731 0.45338-0.79302 0.84787-0.55678
  -3  -5   621584.38 1118.05   1 0.14472-0.66718 0.07287 0.26731-0.98678 0.69528
   3   5  -513466.69  971.70   1 0.31403 0.21182 0.42793-0.76760 0.84753-0.60495
  -3  -5   512733.82 2862.50   1 0.10864-0.63471 0.12759 0.21257-0.98585 0.74293
   3   5  -443634.32 1777.33   1 0.35568 0.17374 0.39923-0.73895 0.84507-0.65101
  -3  -5   443669.50 1658.82   1 0.06926-0.59895 0.18590 0.15424-0.98012 0.78578
   3   5  -3111068.3 2842.01   1 0.39940 0.13361 0.36728-0.70704 0.84002-0.69447
  -3  -5   3107722.7 2836.75   1 0.02693-0.56039 0.24691 0.09333-0.96866 0.82295
   3   5  -216563.34 1619.30   1 0.44482 0.09195 0.33235-0.67219 0.83170-0.73468
  -3  -5   214735.88 3192.95   1-0.01727-0.51975 0.30904 0.03116-0.95089 0.85374
   3   5  -1102524.4 3701.95   1 0.49064 0.04973 0.29425-0.63409 0.82020-0.77169
  -3  -5   1104317.9 2702.86   1-0.06273-0.47785 0.37111-0.03094-0.92646 0.87789
   3   5   034866.35 1358.83   1 0.53645 0.00751 0.25342-0.59325 0.80501-0.80501
  -3  -5   032341.21 1350.06   1-0.10856-0.43527 0.43133-0.09151-0.89563 0.89563
   3   5   117284.84  942.31   1 0.58147-0.03391 0.21022-0.55004 0.78597-0.83447
  -3  -5  -117007.16 1051.19   1-0.15378-0.39363 0.48913-0.14932-0.85854 0.90706
   3   5   250468.29 1736.10   1 0.62578-0.07399 0.16570-0.50587 0.76222-0.85946
  -3  -5  -250174.82 1742.29   1-0.19756-0.35342 0.54314-0.20334-0.81606 0.91309
   3   5   325123.87 1104.64   1 0.66710-0.11175 0.11908-0.45925 0.73542-0.88128
   3   5   327069.74 1530.00   1 0.22255 0.33170-0.61472 0.27502 0.75669-0.90240
   3   5   439857.42 1955.20   1 0.70564-0.14674 0.07154-0.41169 0.70498-0.89946
   3   5   440720.47 1938.07   1 0.26211 0.29568-0.65719 0.31755 0.70668-0.90096
   3   5   5 1346.00  438.85   1 0.29886 0.26247-0.69455 0.35498 0.65442-0.89727
   3   5   638162.71 1643.83   1 0.77322-0.20798-0.02331-0.31652 0.63374-0.92553
   3   5   638915.05 1957.68   1 0.33268 0.23220-0.72690 0.38739 0.60077-0.89219
   3   5   719104.11 2397.10   1 0.80117-0.23248-0.07082-0.26900 0.59426-0.93468
   3   5   719435.27 2167.98   1 0.36344 0.20573-0.75429 0.41415 0.54675-0.88665
   3   5   827036.72 2501.30   1 0.82519-0.25306-0.11748-0.22231 0.55253-0.94158
   3   5   826682.37 1475.19   1 0.39140 0.18135-0.77738 0.43726 0.49241-0.88086
   3   5   9 6447.75 1791.81   1 0.84525-0.26967-0.16301-0.17677 0.50893-0.94661
   3   5   9 4715.52 1917.18   1 0.41662 0.15971-0.79639 0.45628 0.43837-0.87538
   3   5  1010122.14  752.69   1 0.86046-0.28074-0.20827-0.13219 0.46504-0.95066
   3   5  10 8654.36 3556.17   1 0.43926 0.14065-0.81169 0.47159 0.38496-0.87052
   3   5  11  948.96  575.77   1 0.87281-0.28952-0.25070-0.08980 0.41879-0.95297
   3   5  11 1219.98  949.93   1 0.45970 0.12428-0.82352 0.48317 0.33239-0.86665
   3   5  12  815.35  503.31   1 0.88147-0.29461-0.29143-0.04911 0.37163-0.95437
   3   5  13 7948.61 3237.32   1 0.49377 0.09735-0.83858 0.49826 0.23013-0.86154
   3   5  14 8461.87 3715.38   1 0.50793 0.08676-0.84226 0.50195 0.18055-0.86053
   3   6 -16 7853.18  947.99   1 0.14420 0.34243 0.52923-0.93764 0.83616-0.06019
   3   6 -15  386.18  265.70   1 0.15064 0.33957 0.52583-0.93419 0.83717-0.10970
  -3  -6  15  491.99  408.22   1 0.33539-0.82568-0.11592 0.52444-0.93493 0.20792
  -3  -6  15 1243.54  561.82   1 0.29616-0.78667-0.17151 0.58001-0.93961 0.21150
  -3  -6  14 1341.77  753.03   1 0.32236-0.81619-0.10649 0.51495-0.94061 0.26207
  -3  -6  14 1908.51 1419.14   1 0.28727-0.78134-0.15636 0.56483-0.94500 0.26543
  -3  -6  13 3366.80 1263.47   1 0.30749-0.80479-0.09415 0.50215-0.94689 0.31649
  -3  -6  13 3404.54  664.38   1 0.27634-0.77399-0.13790 0.54633-0.95111 0.32008
   3   6 -1216156.22 1611.45   1 0.18694 0.31380 0.50587-0.91324 0.84213-0.25994
  -3  -6  1217244.01 1665.57   1 0.28839-0.78924-0.08046 0.48842-0.95413 0.37223
  -3  -6  1217384.74 1761.21   1 0.26317-0.76439-0.11587 0.52427-0.95776 0.37527
   3   6 -1112336.49  969.67   1 0.20585 0.29848 0.49514-0.90255 0.84410-0.31042
  -3  -6  1112050.47  937.21   1 0.26588-0.77028-0.06442 0.47235-0.96186 0.42845
  -3  -6  1112363.79 1635.41   1 0.24757-0.75236-0.09005 0.49842-0.96467 0.43072
   3   6 -10 4876.28 2030.79   1 0.22794 0.27997 0.48223-0.88968 0.84590-0.36074
  -3  -6  10 6311.34 1707.73   1 0.23972-0.74766-0.04591 0.45380-0.96976 0.48485
  -3  -6  10 4731.07 1440.32   1 0.22932-0.73768-0.06022 0.46856-0.97148 0.48608
   3   6  -917274.13 1119.07   1 0.25317 0.25832 0.46698-0.87447 0.84727-0.41063
  -3  -6   915176.65  929.10   1 0.20968-0.72117-0.02481 0.43267-0.97746 0.54104
  -3  -6   916282.72 1136.24   1 0.20823-0.72016-0.02625 0.43455-0.97772 0.54086
   3   6  -834236.32 1496.64   1 0.28147 0.23360 0.44923-0.85676 0.84794-0.45982
  -3  -6   837090.26 1512.27   1 0.17558-0.69062-0.00107 0.40890-0.98447 0.59654
  -3  -6   834397.89 1628.24   1 0.18437-0.69959 0.01125 0.39698-0.98279 0.59411
   3   6  -7 8424.49  833.69   1 0.31266 0.20599 0.42884-0.83641 0.84757-0.50796
  -3  -6   7 6788.68 1920.10   1 0.13732-0.65591 0.02530 0.38249-0.99021 0.65077
  -3  -6   7 6915.27 1985.58   1 0.15716-0.67600 0.05370 0.35451-0.98611 0.64602
   3   6  -6 9117.65 2876.63   1 0.34651 0.17572 0.40569-0.81331 0.84580-0.55471
  -3  -6   6 9064.57 2388.06   1 0.12684-0.64930 0.10014 0.30806-0.98685 0.69534
   3   6  -5 1246.42  581.46   1 0.38270 0.14312 0.37972-0.78737 0.84226-0.59968
  -3  -6   5  828.88  494.94   1 0.09352-0.61958 0.15016 0.25802-0.98422 0.74130
   3   6  -4  523.92  338.75   1 0.42123 0.10836 0.35099-0.75881 0.83631-0.64227
  -3  -6   4  988.00  463.19   1 0.05742-0.58710 0.20316 0.20499-0.97746 0.78312
   3   6  -3 8112.75  705.13   1 0.46071 0.07248 0.31943-0.72725 0.82810-0.68257
  -3  -6   3 7505.77 2333.45   1 0.01878-0.55224 0.25849 0.14978-0.96583 0.82011
   3   6  -2 8270.58  908.04   1 0.50107 0.03571 0.28521-0.69302 0.81708-0.72006
  -3  -6   2 9658.10 2772.55   1-0.02147-0.51555 0.31485 0.09338-0.94889 0.85175
   3   6  -162127.42 2390.02   1 0.54171-0.00133 0.24853-0.65634 0.80301-0.75450
  -3  -6   159400.69 2335.16   1-0.06293-0.47765 0.37137 0.03682-0.92634 0.87777
   3   6   011283.84  845.98   1 0.58202-0.03804 0.20967-0.61747 0.78571-0.78571
  -3  -6   011054.43 2577.42   1-0.10493-0.43891 0.42660-0.01881-0.89833 0.89833
   3   6   125299.99 2101.56   1 0.62224-0.07398 0.16951-0.57773 0.76427-0.81289
  -3  -6  -131345.72 1544.55   1-0.14668-0.40073 0.48018-0.07241-0.86481 0.91332
   3   6   241259.93 2010.34   1 0.66008-0.10827 0.12729-0.53550 0.74036-0.83759
  -3  -6  -237393.74 1753.13   1-0.18752-0.36346 0.53093-0.12317-0.82640 0.92342
   3   6   337821.93 1939.63   1 0.69590-0.14053 0.08398-0.49218 0.71324-0.85910
   3   6   431105.34 1468.12   1 0.72925-0.17034 0.04000-0.44819 0.68310-0.87758
   3   6   432837.62 1766.22   1 0.24661 0.31121-0.64081 0.23320 0.72700-0.92128
   3   6   5  560.96  261.52   1 0.76035-0.19857-0.00322-0.40462 0.64953-0.89269
   3   6   5  648.07  344.32   1 0.28241 0.27896-0.67809 0.27053 0.67855-0.92140
   3   6   6 7515.74 1807.32   1 0.78784-0.22261-0.04742-0.36040 0.61408-0.90587
   3   6   6 6923.47 2705.72   1 0.31580 0.24911-0.71102 0.30353 0.62826-0.91968
   3   6   7  275.01  243.05   1 0.81208-0.24340-0.09120-0.31660 0.57640-0.91682
   3   6   7  174.80  329.45   1 0.34665 0.22258-0.73954 0.33135 0.57698-0.91687
   3   6   8 4330.87 1079.60   1 0.83298-0.26086-0.13427-0.27352 0.53679-0.92584
   3   6   8 3013.69 1941.16   1 0.37502 0.19778-0.76409 0.35591 0.52489-0.91334
   3   6   9  699.28  314.24   1 0.84955-0.27343-0.17759-0.23083 0.49675-0.93381
   3   6   9  236.92  213.28   1 0.40094 0.17545-0.78479 0.37663 0.47258-0.90959
   3   6  1011125.45 1268.53   1 0.86372-0.28403-0.21845-0.19002 0.45420-0.93982
   3   6  10 9507.28  958.73   1 0.42448 0.15548-0.80192 0.39377 0.42040-0.90596
   3   6  1140393.75 3577.72   1 0.87460-0.29134-0.25800-0.15051 0.41055-0.94472
   3   6  1139489.43 3508.29   1 0.44578 0.13776-0.81573 0.40759 0.36859-0.90271
   3   6  1260429.96 3001.54   1 0.88225-0.29543-0.29614-0.11242 0.36601-0.94875
   3   6  1256982.93 3268.49   1 0.46515 0.12251-0.82640 0.41796 0.31732-0.90016
   3   6  13 7358.86 2407.43   1 0.48234 0.10889-0.83437 0.42595 0.26676-0.89816
   3   7 -15 2453.63 1768.62   1 0.22750 0.26247 0.48249-0.95771 0.84587-0.11813
   3   7 -14 9677.72  970.18   1 0.23712 0.25643 0.47675-0.95201 0.84648-0.16726
  -3  -7  1411496.82 1091.05   1 0.28974-0.78348-0.08143 0.55739-0.95364 0.27475
  -3  -7  14 8409.65 3277.21   1 0.26264-0.75673-0.11499 0.59146-0.95801 0.27844
   3   7 -1320822.20 1499.38   1 0.24966 0.24747 0.46914-0.94444 0.84713-0.21642
  -3  -7  1320745.74 1538.75   1 0.27342-0.77071-0.06978 0.54571-0.95937 0.32897
  -3  -7  1320048.81 1693.47   1 0.25158-0.74923-0.09666 0.57309-0.96299 0.33196
   3   7 -12 9745.36 1370.82   1 0.26512 0.23559 0.45957-0.93491 0.84767-0.26548
  -3  -7  1211694.37  986.49   1 0.25406-0.75489-0.05604 0.53193-0.96557 0.38367
  -3  -7  1210670.20 2031.43   1 0.23842-0.73964-0.07505 0.55145-0.96825 0.38576
   3   7 -11 1576.19  447.20   1 0.28349 0.22081 0.44794-0.92332 0.84795-0.31428
  -3  -7  11 1318.01  915.46   1 0.23144-0.73582-0.04008 0.51593-0.97203 0.43862
  -3  -7  11 1404.52  804.93   1 0.22301-0.72780-0.05000 0.52637-0.97353 0.43958
   3   7 -10 8039.13  798.04   1 0.30471 0.20317 0.43412-0.90955 0.84778-0.36262
  -3  -7  10 6250.31 1474.85   1 0.20538-0.71331-0.02181 0.49763-0.97845 0.49353
  -3  -7  10 6604.85  870.94   1 0.20518-0.71354-0.02138 0.49771-0.97849 0.49308
   3   7  -9 3116.22  621.99   1 0.32868 0.18278 0.41802-0.89349 0.84692-0.41027
  -3  -7   9 3532.51 1457.21   1 0.17569-0.68717-0.00115 0.47694-0.98445 0.54802
  -3  -7   9 2464.24 1555.47   1 0.18503-0.69663 0.01020 0.46606-0.98268 0.54542
   3   7  -8 8340.87  908.30   1 0.35526 0.15978 0.39953-0.87504 0.84511-0.45698
  -3  -7   8 8068.25  728.12   1 0.14227-0.65730 0.02190 0.45385-0.98959 0.60166
  -3  -7   8 8839.86 2357.21   1 0.16200-0.67721 0.04621 0.43003-0.98570 0.59703
   3   7  -7 7264.49  857.72   1 0.38425 0.13438 0.37858-0.85413 0.84207-0.50245
  -3  -7   7 8551.28 2535.78   1 0.13626-0.65509 0.08581 0.39041-0.98695 0.64685
   3   7  -616831.06 1428.23   1 0.41591 0.10650 0.35511-0.83090 0.83723-0.54618
  -3  -7   617196.48 3239.83   1 0.10784-0.63029 0.12879 0.34742-0.98579 0.69428
   3   7  -517651.69 1047.36   1 0.44875 0.07726 0.32918-0.80498 0.83084-0.58830
  -3  -7   515822.69 3199.03   1 0.07684-0.60291 0.17479 0.30140-0.98160 0.73868
   3   7  -427449.73 1380.37   1 0.48299 0.04661 0.30080-0.77658 0.82236-0.62833
  -3  -7   428898.55 1535.46   1 0.04327-0.57316 0.22349 0.25284-0.97374 0.77946
   3   7  -321613.83 1198.73   1 0.51819 0.01500 0.27005-0.74583 0.81154-0.66601
  -3  -7   323336.11 1293.03   1 0.00793-0.54138 0.27382 0.20247-0.96174 0.81603
   3   7  -2 5612.01 2036.92   1 0.55387-0.01708 0.23708-0.71285 0.79816-0.70114
  -3  -7   2 6284.37 1702.47   1-0.02903-0.50798 0.32527 0.15098-0.94517 0.84803
   3   7  -143115.84 2198.56   1 0.58954-0.04916 0.20211-0.67788 0.78207-0.73356
  -3  -7   145511.06 2252.01   1-0.06712-0.47346 0.37700 0.09922-0.92377 0.87520
   3   7   0 5757.45 1896.56   1 0.62561-0.08087 0.16589-0.64216 0.76232-0.76232
  -3  -7   0 5169.17 1375.84   1-0.10581-0.43803 0.42775 0.04798-0.89767 0.89767
   3   7   119169.25 1115.17   1 0.65973-0.11145 0.12770-0.60395 0.74060-0.78922
  -3  -7  -117606.89 1099.16   1-0.14449-0.40293 0.47741-0.00168-0.86671 0.91522
   3   7   255980.99 2240.99   1 0.69242-0.14058 0.08835-0.56460 0.71609-0.81333
  -3  -7  -252496.10 2600.43   1-0.18260-0.36839 0.52490-0.04918-0.83134 0.92836
   3   7   3 2147.59 1039.29   1 0.72327-0.16789 0.04819-0.52442 0.68891-0.83477
  -3  -7  -3 1775.45  756.55   1-0.21965-0.33491 0.56961-0.09390-0.79201 0.93755
   3   7   429992.81 1289.42   1 0.75253-0.19420 0.00853-0.48439 0.65853-0.85305
   3   7   429396.38 1598.36   1 0.23631 0.32155-0.62974 0.15415 0.73998-0.93426
   3   7   5 4572.35 1170.99   1 0.77879-0.21702-0.03233-0.44350 0.62647-0.86963
   3   7   5 4274.32  716.71   1 0.27083 0.29057-0.66625 0.19072 0.69480-0.93765
   3   7   620569.73 3734.06   1 0.80242-0.23720-0.07310-0.40272 0.59229-0.88408
   3   7   619442.21 2017.91   1 0.30342 0.26153-0.69903 0.22356 0.64753-0.93894
   3   7   717076.08 1009.19   1 0.82327-0.25460-0.11349-0.36230 0.55622-0.89664
   3   7   716391.72 1235.80   1 0.33391 0.23458-0.72804 0.25264 0.59870-0.93869
   3   7   812834.43 1316.73   1 0.84126-0.26914-0.15329-0.32248 0.51848-0.90753
   3   7   813898.80 1174.17   1 0.36221 0.21065-0.75323 0.27700 0.54904-0.93749
   3   7   919731.32 1778.30   1 0.85540-0.27931-0.19346-0.28298 0.48052-0.91758
   3   7   916702.91 3363.93   1 0.38835 0.18809-0.77496 0.29875 0.49860-0.93561
   3   7  1012416.72 1331.98   1 0.86760-0.28795-0.23141-0.24506 0.44016-0.92578
   3   7  1013506.27 1543.38   1 0.41236 0.16766-0.79332 0.31712 0.44788-0.93344
   3   7  11 3440.82 2080.80   1 0.87694-0.29373-0.26829-0.20823 0.39878-0.93295
   3   7  11 3021.50 2146.49   1 0.43428 0.14931-0.80849 0.33231 0.39715-0.93127
   3   7  1224940.33 2439.34   1 0.88347-0.29668-0.30398-0.17258 0.35653-0.93927
   3   7  1227129.03 2033.33   1 0.45442 0.13336-0.82059 0.34406 0.34659-0.92942
   3   8 -14 2647.45  609.59   1 0.31622 0.17731 0.42646-0.96970 0.84746-0.16823
   3   8 -13 5123.79  854.77   1 0.32818 0.16893 0.41837-0.96164 0.84694-0.21624
  -3  -8  13 3330.48 2388.74   1 0.23682-0.73409-0.04386 0.58771-0.97057 0.34018
  -3  -8  13 2979.71 2106.12   1 0.22617-0.72382-0.05511 0.59954-0.97252 0.34150
   3   8 -12  639.83  516.07   1 0.34284 0.15785 0.40826-0.95158 0.84607-0.26388
  -3  -8  12  587.85  424.74   1 0.21723-0.71804-0.03010 0.57391-0.97567 0.39376
  -3  -8  12  218.47  424.85   1 0.21308-0.71430-0.03401 0.57841-0.97644 0.39395
   3   8 -1119965.47 1885.00   1 0.36012 0.14415 0.39608-0.93944 0.84468-0.31100
  -3  -8  1117679.62 1821.28   1 0.19453-0.69890-0.01424 0.55803-0.98080 0.44739
  -3  -8  1118943.92 1942.43   1 0.19791-0.70270-0.00979 0.55416-0.98017 0.44622
   3   8 -1031832.56 2715.54   1 0.37992 0.12793 0.38176-0.92516 0.84259-0.35743
  -3  -8  1030771.85 2672.47   1 0.16859-0.67650 0.00375 0.53998-0.98569 0.50077
  -3  -8  1030526.89 6341.38   1 0.18074-0.68873 0.01694 0.52735-0.98338 0.49754
   3   8  -915649.51 1535.92   1 0.40286 0.10878 0.36508-0.90886 0.83932-0.40274
  -3  -8   915231.34 1490.57   1 0.13928-0.65074 0.02395 0.51975-0.98997 0.55354
  -3  -8   915678.89 2941.33   1 0.16106-0.67266 0.04766 0.49662-0.98579 0.54853
   3   8  -814273.24 1044.99   1 0.42716 0.08808 0.34637-0.89014 0.83523-0.44715
  -3  -8   815487.96 3372.66   1 0.13902-0.65424 0.08159 0.46267-0.98692 0.59824
   3   8  -730998.86 1455.29   1 0.45342 0.06541 0.32539-0.86916 0.82980-0.49023
  -3  -8   728381.30 4721.00   1 0.11461-0.63344 0.11862 0.42562-0.98630 0.64621
   3   8  -621107.91 1551.59   1 0.48137 0.04105 0.30217-0.84593 0.82281-0.53175
  -3  -8   619819.38 1339.94   1 0.08786-0.61031 0.15854 0.38569-0.98343 0.69192
   3   8  -511400.37  921.06   1 0.51069 0.01532 0.27674-0.82050 0.81403-0.57149
  -3  -8   514249.49 3252.40   1 0.05889-0.58495 0.20104 0.34317-0.97781 0.73489
   3   8  -441721.49 1830.75   1 0.54101-0.01140 0.24919-0.79294 0.80328-0.60924
  -3  -8   442510.50 1904.91   1 0.02766-0.55754 0.24586 0.29849-0.96891 0.77462
   3   8  -326534.25 1330.82   1 0.57195-0.03875 0.21963-0.76337 0.79036-0.64483
  -3  -8   324848.34 1452.49   1-0.00507-0.52837 0.29206 0.25225-0.95638 0.81067
   3   8  -2 1350.62  786.95   1 0.60412-0.06646 0.18865-0.73298 0.77427-0.67703
  -3  -8   2 2552.96  869.48   1-0.03924-0.49777 0.33926 0.20502-0.93987 0.84272
   3   8  -118691.70 1116.44   1 0.63503-0.09382 0.15561-0.69993 0.75668-0.70806
  -3  -8   117756.12 1195.48   1-0.07444-0.46613 0.38679 0.15746-0.91915 0.87058
   3   8   021775.92 1817.60   1 0.66534-0.12059 0.12115-0.66545 0.73667-0.73667
  -3  -8   023205.98 1298.65   1-0.11027-0.43358 0.43355 0.11015-0.89435 0.89435
   3   8   1 8434.94  900.97   1 0.69468-0.14638 0.08551-0.62981 0.71424-0.76286
  -3  -8  -1 8234.82 2490.05   1-0.14621-0.40121 0.47959 0.06410-0.86522 0.91373
   3   8   2 3206.44 1226.77   1 0.72269-0.17083 0.04898-0.59326 0.68946-0.78670
  -3  -8  -2 2844.28 1823.14   1-0.18181-0.36918 0.52394 0.01973-0.83212 0.92914
   3   8   3 5063.51 1443.10   1 0.74966-0.19478 0.01277-0.55664 0.66173-0.80762
  -3  -8  -3 2693.32 1517.22   1-0.21667-0.33791 0.56607-0.02239-0.79537 0.94091
   3   8   415328.48 1088.80   1 0.77414-0.21582-0.02480-0.51905 0.63255-0.82708
   3   8   417039.95 1243.09   1 0.23043 0.32746-0.62336 0.07979 0.74721-0.94149
   3   8   5 3123.71  987.66   1 0.79653-0.23476-0.06250-0.48132 0.60139-0.84455
   3   8   5 2321.43 1381.82   1 0.26352 0.29791-0.65867 0.11516 0.70477-0.94762
   3   8   6  951.89  552.73   1 0.81665-0.25143-0.10011-0.44370 0.56842-0.86021
   3   8   6  872.25  668.28   1 0.29505 0.26993-0.69078 0.14733 0.66012-0.95154
   3   8   7 3525.72 1187.40   1 0.83438-0.26572-0.13740-0.40639 0.53382-0.87423
   3   8   7 3011.28  595.41   1 0.32484 0.24368-0.71959 0.17621 0.61372-0.95371
   3   8   8 3859.22 1479.41   1 0.84871-0.27622-0.17540-0.36900 0.49897-0.88746
   3   8   8 4241.59  712.45   1 0.35278 0.22013-0.74500 0.20073 0.56614-0.95459
   3   8   9 6504.54 2769.80   1 0.86150-0.28545-0.21146-0.33298 0.46166-0.89871
   3   8  1015788.73 1448.61   1 0.87179-0.29218-0.24673-0.29775 0.42324-0.90885
   3   8  1015853.91 1430.56   1 0.40291 0.17716-0.78630 0.24205 0.46838-0.95395
   3   8  11   48.50  279.29   1 0.87958-0.29640-0.28110-0.26342 0.38386-0.91804
   3   8  11   85.77  363.25   1 0.42513 0.15852-0.80236 0.25813 0.41889-0.95301
   3   9 -13 2944.14  527.14   1 0.40670 0.09058 0.36216-0.97393 0.83873-0.20811
   3   9 -1226860.24 1759.67   1 0.41997 0.08090 0.35197-0.96373 0.83653-0.25442
   3   9 -11 1048.90  619.92   1 0.43559 0.06887 0.33972-0.95148 0.83360-0.30000
  -3  -9  11 1067.08  835.89   1 0.15525-0.65960 0.01297 0.59873-0.98780 0.45439
  -3  -9  11 1080.31  855.43   1 0.17249-0.67685 0.02988 0.58245-0.98455 0.45013
   3   9 -10 4060.50 2609.73   1 0.45342 0.05464 0.32540-0.93715 0.82980-0.34471
  -3  -9  10 7657.39 2152.45   1 0.15557-0.66355 0.05616 0.55616-0.98622 0.50038
   3   9  -926286.47 2344.95   1 0.47329 0.03835 0.30898-0.92073 0.82496-0.38838
   3   9  -820393.58 2024.31   1 0.49500 0.02024 0.29049-0.90223 0.81892-0.43084
   3   9  -714007.45 1685.05   1 0.51832 0.00051 0.26993-0.88167 0.81149-0.47193
  -3  -9   716278.83 3253.35   1 0.09228-0.61110 0.15199 0.46027-0.98406 0.64397
   3   9  -636160.03 3034.71   1 0.54297-0.02053 0.24736-0.85909 0.80252-0.51146
  -3  -9   634931.91 3065.45   1 0.06702-0.58946 0.18918 0.42306-0.97965 0.68814
   3   9  -510211.01  994.43   1 0.56865-0.04263 0.22285-0.83457 0.79184-0.54929
  -3  -9   5 9423.32 2783.17   1 0.03957-0.56588 0.22882 0.38360-0.97266 0.72981
   3   9  -4 2354.50 1100.25   1 0.59619-0.06561 0.19682-0.80921 0.77837-0.58389
  -3  -9   4 2340.90 1136.38   1 0.01064-0.54051 0.27000 0.34238-0.96280 0.76851
   3   9  -314027.59 1168.32   1 0.62292-0.08880 0.16878-0.78116 0.76388-0.61802
  -3  -9   312137.78 2410.64   1-0.01984-0.51360 0.31259 0.29975-0.94968 0.80396
   3   9  -231447.68 1390.29   1 0.64971-0.11203 0.13920-0.75156 0.74736-0.65012
  -3  -9   234016.71 1643.58   1-0.05159-0.48541 0.35607 0.25624-0.93303 0.83589
   3   9  -1 1555.55  626.28   1 0.67620-0.13498 0.10824-0.72060 0.72875-0.68013
  -3  -9   1 1073.03  810.44   1-0.08428-0.45628 0.39988 0.21240-0.91268 0.86411
   3   9   0 8562.19 2347.15   1 0.70208-0.15731 0.07612-0.68846 0.70804-0.70804
  -3  -9   0 8467.08 2362.23   1-0.11760-0.42625 0.44305 0.16862-0.88875 0.88875
   3   9   1 8518.60 2104.97   1 0.72704-0.17872 0.04304-0.65537 0.68527-0.73389
  -3  -9  -1 6966.33 2229.23   1-0.15111-0.39632 0.48577 0.12589-0.86092 0.90943
   3   9   2 6539.89 1651.76   1 0.75142-0.20000 0.01017-0.62205 0.65977-0.75703
  -3  -9  -2 6446.07 1276.31   1-0.18443-0.36657 0.52715 0.08449-0.82951 0.92654
  -3  -9  -3  445.74  382.04   1-0.21721-0.33737 0.56672 0.04491-0.79476 0.94030
   3   9   4 1546.56  610.52   1 0.79444-0.23612-0.05882-0.55301 0.60452-0.79904
   3   9   4 1441.15  533.07   1 0.22831 0.32961-0.62104 0.00949 0.74978-0.94406
   3   9   542228.40 3467.97   1 0.81331-0.25155-0.09358-0.51823 0.57428-0.81743
   3   9   545358.76 3916.25   1 0.25992 0.30155-0.65489 0.04341 0.70961-0.95246
   3   9   633663.15 3062.00   1 0.83024-0.26503-0.12826-0.48354 0.54248-0.83426
   3   9   637917.66 3336.90   1 0.29026 0.27475-0.68599 0.07457 0.66720-0.95861
   3   9   722789.27 2062.53   1 0.84512-0.27647-0.16269-0.44909 0.50925-0.84966
   3   9   724058.64 2352.66   1 0.31915 0.24941-0.71421 0.10285 0.62293-0.96292
   3   9   8 4174.66 2139.69   1 0.85694-0.28449-0.19787-0.41454 0.47595-0.86444
   3   9   8 4888.11  808.05   1 0.34650 0.22647-0.73941 0.12709 0.57724-0.96569
   3   9   9  841.98 1106.45   1 0.86757-0.29155-0.23129-0.38116 0.44030-0.87736
   3   9   9  438.80  513.26   1 0.37214 0.20441-0.76168 0.14938 0.53041-0.96742
   3   9  10 2616.40 1768.74   1 0.87600-0.29642-0.26406-0.34844 0.40364-0.88925
   3   9  10 2744.92 2245.73   1 0.39609 0.18404-0.78106 0.16877 0.48275-0.96832
   3  10 -1014198.17 1277.71   1 0.52273-0.01467 0.26595-0.94567 0.80997-0.32488
   3  10  -9 2270.08 2425.24   1 0.54005-0.02839 0.25008-0.92979 0.80365-0.36706
  -3 -10   9 4803.80 1965.89   1 0.11159-0.62318 0.12316 0.55715-0.98609 0.54883
   3  10  -811205.61 1133.01   1 0.55891-0.04366 0.23227-0.91198 0.79606-0.40798
  -3 -10   810492.09 3757.51   1 0.09138-0.60659 0.15332 0.52697-0.98394 0.59526
   3  10  -7 3861.26 2098.35   1 0.57910-0.06026 0.21257-0.89227 0.78708-0.44751
  -3 -10   7 5771.02 1884.75   1 0.06930-0.58812 0.18585 0.49442-0.98013 0.64004
  -3 -10   6 7382.94 1313.69   1 0.04511-0.56785 0.22084 0.45964-0.97426 0.68283
   3  10  -5 1830.04 1057.03   1 0.62361-0.09656 0.16805-0.84848 0.76348-0.52039
  -3 -10   5 2190.69 1017.81   1 0.01954-0.54584 0.25741 0.42303-0.96610 0.72324
   3  10  -4 4451.88 2029.41   1 0.64612-0.11553 0.14325-0.82368 0.74969-0.55521
  -3 -10   4 4036.66 1560.30   1-0.00759-0.52228 0.29558 0.38483-0.95528 0.76100
   3  10  -3  617.52  418.02   1 0.66888-0.13474 0.11697-0.79739 0.73413-0.58827
  -3 -10   3  466.88  555.89   1-0.03609-0.49734 0.33496 0.34541-0.94154 0.79582
   3  10  -2 1260.31  758.55   1 0.69160-0.15390 0.08937-0.76978 0.71676-0.61952
  -3 -10   2 1714.55  388.11   1-0.06572-0.47127 0.37513 0.30521-0.92463 0.82749
   3  10  -1 9729.55  990.11   1 0.71399-0.17275 0.06061-0.74101 0.69755-0.64893
  -3 -10   1 7679.83 2206.60   1-0.09622-0.44434 0.41562 0.26468-0.90443 0.85586
   3  10   022771.31 2063.44   1 0.73580-0.19101 0.03087-0.71125 0.67652-0.67652
  -3 -10   020868.30 3227.58   1-0.12731-0.41654 0.45554 0.22409-0.88106 0.88106
   3  10   113566.98 1822.85   1 0.75740-0.20944 0.00124-0.68113 0.65297-0.70161
  -3 -10  -110773.68 3638.78   1-0.15863-0.38880 0.49521 0.18440-0.85416 0.90267
   3  10   225116.21 2427.53   1 0.77732-0.22591-0.02993-0.64993 0.62842-0.72568
  -3 -10  -225612.54 2365.95   1-0.18987-0.36114 0.53380 0.14580-0.82401 0.92104
  -3 -10  -311594.77  982.46   1-0.22073-0.33385 0.57089 0.10870-0.79079 0.93633
   3  10   4 2336.73  841.21   1 0.81325-0.25494-0.09346-0.58636 0.57439-0.76891
   3  10   4 2849.63  871.76   1 0.22940 0.32856-0.62223-0.05728 0.74846-0.94274
   3  10   5 2553.16 1114.23   1 0.82895-0.26719-0.12546-0.55435 0.54510-0.78826
   3  10   5 2031.19 1150.18   1 0.25952 0.30198-0.65448-0.02497 0.71014-0.95298
   3  10   6 5761.52 2283.32   1 0.84297-0.27777-0.15741-0.52238 0.51445-0.80623
   3  10   6 5708.13 3528.51   1 0.28861 0.27643-0.68435 0.00495 0.66960-0.96102
   3  10   7 2908.26 1852.63   1 0.85428-0.28543-0.19034-0.49003 0.48374-0.82367
   3  10   7 2872.54 2079.60   1 0.31649 0.25210-0.71167 0.03234 0.62717-0.96716
   3  10   8 1500.77  953.66   1 0.86473-0.29232-0.22173-0.45869 0.45067-0.83917
   3  10   8 1914.85  555.98   1 0.34302 0.22911-0.73637 0.05710 0.58316-0.97172
   3  11  -9  883.93  905.46   1 0.60408-0.09121 0.18869-0.93721 0.77429-0.33671
   3  11  -8 6954.62 1793.69   1 0.61986-0.10344 0.17207-0.92058 0.76564-0.37668
   3  11  -7 2751.86 1577.22   1 0.63676-0.11679 0.15370-0.90220 0.75561-0.41528
  -3 -11   7 3438.22 1264.86   1 0.04538-0.56455 0.22045 0.52810-0.97434 0.63434
   3  11  -617198.18 2256.48   1 0.65455-0.13103 0.13367-0.88216 0.74413-0.45242
  -3 -11   619017.00 1568.94   1 0.02276-0.54550 0.25283 0.49568-0.96724 0.67581
   3  11  -5 2396.56 1558.95   1 0.67299-0.14592 0.11209-0.86057 0.73114-0.48804
  -3 -11   5 3398.33 1844.33   1-0.00136-0.52493 0.28688 0.46159-0.95796 0.71510
   3  11  -4 6347.82 2318.97   1 0.69183-0.16122 0.08908-0.83755 0.71657-0.52209
  -3 -11   4 8128.37 1022.28   1-0.02689-0.50297 0.32233 0.42611-0.94624 0.75196
   3  11  -317461.93 1290.85   1 0.71084-0.17667 0.06477-0.81322 0.70039-0.55453
  -3 -11   316203.66 1651.86   1-0.05363-0.47979 0.35883 0.38957-0.93186 0.78614
   3  11  -2 1579.44  853.56   1 0.72976-0.19205 0.03929-0.78773 0.68259-0.58536
  -3 -11   2 2089.51 1065.28   1-0.08138-0.45561 0.39603 0.35234-0.91462 0.81748
   3  11  -1 7226.10 1988.50   1 0.74902-0.20796 0.01370-0.76161 0.66243-0.61380
  -3 -11   1 5848.14 2380.82   1-0.10993-0.43036 0.43311 0.31450-0.89461 0.84609
   3  11   0 6582.87 2385.40   1 0.76711-0.22259-0.01365-0.73424 0.64140-0.64140
  -3 -11   0 6858.07 2248.00   1-0.13902-0.40484 0.47049 0.27711-0.87138 0.87138
   3  11   1 9554.10  971.53   1 0.78446-0.23650-0.04172-0.70615 0.61880-0.66743
  -3 -11  -1 7705.79 3311.47   1-0.16837-0.37907 0.50735 0.24023-0.84512 0.89364
   3  11   210037.20 3274.15   1 0.80090-0.24950-0.07034-0.67751 0.59468-0.69194
  -3 -11  -211011.36 1309.77   1-0.19771-0.35331 0.54332 0.20425-0.81591 0.91293
   3  11   3 9919.61 1131.47   1 0.81627-0.26142-0.09937-0.64847 0.56909-0.71498
   3  11   4 8047.79 1423.00   1 0.83042-0.27212-0.12865-0.61917 0.54211-0.73663
   3  11   4 8738.71 1115.57   1 0.23326 0.32473-0.62644-0.12106 0.74374-0.93802
   3  11   5 5001.05 2146.67   1 0.84323-0.28148-0.15805-0.58975 0.51382-0.75698
   3  11   5 4264.32 3264.53   1 0.26193 0.29960-0.65700-0.09043 0.70692-0.94976
   3  12  -7  376.54  447.22   1 0.68833-0.16835 0.09343-0.90997 0.71938-0.37904
   3  12  -6 3574.74 1237.32   1 0.70282-0.17929 0.07516-0.89169 0.70741-0.41569
   3  12  -5  521.67  278.18   1 0.71787-0.19078 0.05546-0.87198 0.69400-0.45090
   3  12  -4 3884.22 1893.76   1 0.73325-0.20261 0.03445-0.85096 0.67912-0.48464
   3  12  -3 1616.55  971.46   1 0.74942-0.21525 0.01313-0.82907 0.66200-0.51610
   3  12  -2 1601.82  733.63   1 0.76484-0.22723-0.01012-0.80580 0.64417-0.54691
   3  12  -110034.81 3080.73   1 0.77999-0.23893-0.03430-0.78160 0.62488-0.57625
   3  12   0 5964.30 2063.03   1 0.79469-0.25018-0.05926-0.75662 0.60414-0.60414
   3  12   1 3045.96 1204.63   1 0.80877-0.26081-0.08488-0.73098 0.58200-0.63063
   3  12   2 8541.89  964.26   1 0.82207-0.27067-0.11102-0.70482 0.55849-0.65575
   4  -7  -5 1110.06  290.89   1-0.13677 0.84433 0.64732-0.17229 0.74988-0.50740
   4  -7  -410073.63  783.77   1-0.09164 0.80277 0.63252-0.15744 0.76913-0.57515
   4  -6  -5  816.03  368.58   1-0.11637 0.82388 0.64083-0.23369 0.75884-0.51637
   4  -6  -415308.45  955.64   1-0.07151 0.78259 0.62541-0.21823 0.77704-0.58306
   4  -6  -324207.24 1142.85   1-0.01861 0.73321 0.60464-0.19717 0.79631-0.65081
   4  -6  -2  886.77  561.98   1 0.04300 0.67518 0.57849-0.17096 0.81459-0.71759
   4  -5  -633332.10 1681.27   1-0.12837 0.83226 0.64469-0.30549 0.75362-0.46266
   4  -5  -5 1120.86  304.43   1-0.09025 0.79771 0.63204-0.29280 0.76969-0.52722
   4  -5  -4 6804.39  634.95   1-0.04544 0.75646 0.61514-0.27565 0.78714-0.59315
   4  -5  -3  618.81  215.84   1 0.00666 0.70792 0.59426-0.25472 0.80427-0.65878
   4  -5  -2 7173.56 1985.65   1 0.06668 0.65149 0.56766-0.22808 0.82058-0.72359
   4  -5  -119574.20  950.72   1 0.13505 0.58670 0.53401-0.19437 0.83465-0.78615
   4  -5   047072.92 1459.95   1 0.21195 0.51340 0.49162-0.15173 0.84465-0.84465
   4  -4  -7 3747.67  545.36   1-0.12993 0.83021 0.64518-0.37393 0.75293-0.41347
   4  -4  -6 8752.42 3288.41   1-0.09720 0.80105 0.63443-0.36313 0.76687-0.47591
   4  -4  -524824.41 1230.24   1-0.05877 0.76619 0.62075-0.34941 0.78183-0.53936
   4  -4  -419772.66 1096.57   1-0.01406 0.72507 0.60281-0.33126 0.79779-0.60379
   4  -4  -351073.22 1770.03   1 0.03735 0.67723 0.58100-0.30940 0.81307-0.66758
   4  -4  -2 5828.60  545.73   1 0.09583 0.62233 0.55375-0.28210 0.82717-0.73018
   4  -4  -148659.23 1570.94   1 0.16153 0.56021 0.51999-0.24830 0.83878-0.79028
   4  -4   0 5421.25  480.10   1 0.23427 0.49105 0.47846-0.20655 0.84631-0.84631
   4  -4   1 2491.63  357.88   1 0.31343 0.41548 0.42833-0.15647 0.84755-0.89606
   4  -4   2  182.58  239.80   1 0.39763 0.33485 0.36861-0.09679 0.84027-0.93730
  -4   3  10 4479.02 1674.07   1 0.14481-0.83406 0.02015-0.22359-0.98926 0.50434
   4  -3  -821949.52 1230.18   1-0.12265 0.81931 0.64286-0.43956 0.75613-0.36817
   4  -3  -7  813.80  314.34   1-0.09436 0.79459 0.63346-0.43010 0.76803-0.42857
   4  -3  -6 7507.23  729.64   1-0.06107 0.76487 0.62160-0.41820 0.78098-0.49001
   4  -3  -510120.22 2625.00   1-0.02239 0.72981 0.60616-0.40259 0.79506-0.55257
   4  -3  -414756.93  891.89   1 0.02214 0.68885 0.58766-0.38405 0.80883-0.61484
   4  -3  -3 2148.38  790.09   1 0.07278 0.64180 0.56481-0.36115 0.82203-0.67654
   4  -3  -212210.31  818.45   1 0.12965 0.58850 0.53680-0.33309 0.83372-0.73672
   4  -3  -136538.15 1375.12   1 0.19259 0.52912 0.50270-0.29873 0.84276-0.79425
   4  -3   0  261.26  216.84   1 0.26146 0.46383 0.46186-0.25793 0.84757-0.84757
   4  -3   122070.07 1032.53   1 0.33525 0.39362 0.41352-0.20963 0.84655-0.89507
   4  -3   254201.89 1584.99   1 0.41239 0.32004 0.35781-0.15391 0.83782-0.93484
   4  -3   321130.88  906.36   1 0.49144 0.24458 0.29356-0.08965 0.81997-0.96549
   4  -3   4 5205.94 1133.28   1 0.56985 0.16976 0.22168-0.01776 0.79131-0.98534
  -4   2  15  914.75  420.13   1 0.30267-0.97417-0.09069-0.04464-0.94878 0.22140
  -4   2  14 2908.62 1596.81   1 0.28415-0.95920-0.07743-0.05793-0.95566 0.27677
  -4   2  13 3180.42 1312.94   1 0.26147-0.94006-0.06129-0.07410-0.96327 0.33288
  -4   2  12 1171.40  621.83   1 0.23419-0.91633-0.04201-0.09341-0.97129 0.38939
  -4   2  1122942.78 1996.99   1 0.20188-0.88757-0.01937-0.11609-0.97923 0.44582
   4  -2 -1016438.82 1712.02   1-0.12809 0.81756 0.64460-0.50928 0.75374-0.26880
  -4   2  1016881.00 1522.34   1 0.16414-0.85338 0.00683-0.14234-0.98642 0.50150
   4  -2  -9 4887.45 2025.98   1-0.10764 0.80069 0.63795-0.50259 0.76254-0.32609
   4  -2  -8 3401.74  620.39   1-0.08311 0.77972 0.62955-0.49414 0.77253-0.38458
   4  -2  -7  980.23  355.16   1-0.05414 0.75432 0.61903-0.48357 0.78353-0.44407
   4  -2  -6 1562.37  565.05   1-0.02045 0.72428 0.60538-0.46980 0.79570-0.50471
   4  -2  -5  120.66  289.68   1 0.01841 0.68900 0.58927-0.45364 0.80775-0.56526
   4  -2  -410599.43  761.23   1 0.06260 0.64839 0.56956-0.43388 0.81959-0.62560
   4  -2  -334013.25 1420.80   1 0.11225 0.60231 0.54563-0.40991 0.83050-0.68500
   4  -2  -238926.08 1470.42   1 0.16735 0.55080 0.51684-0.38107 0.83959-0.74259
   4  -2  -120868.01 1013.47   1 0.22750 0.49417 0.48249-0.34650 0.84587-0.79735
   4  -2   0 2994.01  876.93   1 0.29250 0.43276 0.44212-0.30617 0.84795-0.84795
   4  -2   120929.94  998.30   1 0.36122 0.36762 0.39529-0.25938 0.84457-0.89309
   4  -2   219116.19  876.33   1 0.43222 0.30021 0.34239-0.20644 0.83426-0.93128
   4  -2   3 4645.75 1043.19   1 0.50414 0.23188 0.28252-0.14657 0.81613-0.96166
   4  -2   441986.37 1362.79   1 0.57492 0.16470 0.21671-0.08075 0.78901-0.98305
   4  -2   5 2424.11  800.47   1 0.64291 0.10092 0.14686-0.01073 0.75176-0.99486
   4  -2   6 8838.23 1458.65   1 0.70520 0.04217 0.07210 0.06403 0.70536-0.99707
  -4   1  16 7892.12 1148.30   1 0.31745-0.98538-0.10132 0.03394-0.94286 0.16698
  -4   1  15  418.84  267.96   1 0.30349-0.97497-0.09127 0.02387-0.94846 0.22108
   4  -1 -14  878.29  412.43   1-0.13639 0.81154 0.64721-0.57998 0.75004-0.07112
  -4   1  14  570.52  294.56   1 0.28604-0.96107-0.07878 0.01134-0.95498 0.27609
   4  -1 -1312656.77 1305.77   1-0.12840 0.80712 0.64470-0.57742 0.75360-0.12318
  -4   1  1311721.81 1048.73   1 0.26476-0.94334-0.06363-0.00384-0.96222 0.33182
   4  -1 -12  921.08  772.29   1-0.11746 0.79974 0.64118-0.57386 0.75838-0.17644
   4  -1 -11 5682.24 2364.92   1-0.10332 0.78918 0.63650-0.56913 0.76435-0.23091
  -4   1  11 5266.68 1661.44   1 0.20925-0.89493-0.02451-0.04302-0.97756 0.44415
   4  -1 -1033224.56 1642.55   1-0.08575 0.77517 0.63047-0.56305 0.77149-0.28654
  -4   1  1035967.32 1428.34   1 0.17431-0.86354-0.00020-0.06737-0.98470 0.49978
   4  -1  -935025.20 1626.65   1-0.06447 0.75747 0.62285-0.55539 0.77971-0.34326
   4  -1  -829964.99 1509.73   1-0.03933 0.73599 0.61280-0.54525 0.78929-0.40130
   4  -1  -711867.26 2938.81   1-0.00978 0.71002 0.60107-0.53348 0.79916-0.45968
   4  -1  -6 7862.19 2346.08   1 0.02427 0.67954 0.58674-0.51910 0.80944-0.51845
   4  -1  -5 1352.95  427.89   1 0.06304 0.64436 0.56936-0.50167 0.81970-0.57721
   4  -1  -419611.82 1757.16   1 0.10663 0.60434 0.54844-0.48070 0.82939-0.63540
   4  -1  -3 4566.43  986.95   1 0.15506 0.55950 0.52347-0.45569 0.83784-0.69235
   4  -1  -2 5158.19 1703.22   1 0.20792 0.51015 0.49395-0.42589 0.84429-0.74726
   4  -1  -1 1044.04  347.02   1 0.26538 0.45627 0.45941-0.39140 0.84768-0.79916
   4  -1   0 4691.23  579.61   1 0.32648 0.39875 0.41952-0.35154 0.84703-0.84703
   4  -1   1 8756.79 1475.51   1 0.39033 0.33849 0.37407-0.30614 0.84128-0.88980
   4  -1   216769.21 1126.61   1 0.45562 0.27682 0.32360-0.25563 0.82930-0.92632
   4  -1   3 4347.27  892.12   1 0.52110 0.21493 0.26743-0.19944 0.81054-0.95607
   4  -1   3 3665.87 1083.05   1 0.50286 0.23324-0.84116 0.90931 0.19889-0.34460
   4  -1   497867.80 2371.06   1 0.58514 0.15448 0.20655-0.13856 0.78421-0.97825
   4  -1   4100318.3 2387.43   1 0.51576 0.22391-0.84339 0.91154 0.15060-0.34488
   4  -1   527056.32 1070.57   1 0.64661 0.09724 0.14271-0.07461 0.74938-0.99248
   4  -1   524543.59 1499.02   1 0.52644 0.21680-0.84357 0.91174 0.10603-0.34888
   4  -1   6 5032.35 1394.00   1 0.70296 0.04443 0.07499-0.00689 0.70729-0.99901
   4  -1   6 3807.19 1835.23   1 0.53501 0.21231-0.84273 0.91180 0.05968-0.35147
   4  -1   7 1915.49  821.30   1 0.75322-0.00296 0.00751 0.06060 0.65776-0.99818
   4  -1   7 1604.34  780.66   1 0.54250 0.20834-0.83980 0.90902 0.02051-0.36094
   4  -1   8 1049.23  484.07   1 0.54884 0.20552-0.83575 0.90511-0.01686-0.37218
   4  -1   9  998.62  592.51   1 0.55418 0.20369-0.83071 0.90022-0.05283-0.38485
   4  -1  10 2360.14 1010.68   1 0.55866 0.20274-0.82475 0.89440-0.08765-0.39866
   4  -1  1143114.62 2536.64   1 0.56234 0.20258-0.81792 0.88772-0.12153-0.41341
   4  -1  12 2131.30 2398.12   1 0.56530 0.20315-0.81025 0.88020-0.15465-0.42892
  -4   0  16 7635.54 3417.69   1 0.31279-0.98071-0.09796 0.09851-0.94477 0.16889
  -4   0  1513576.66 1138.57   1 0.29938-0.97085-0.08833 0.08884-0.95005 0.22267
   4   0 -14  393.25  434.01   1-0.09326 0.76836 0.63308-0.63375 0.76848-0.08955
  -4   0  14  106.89  180.21   1 0.28270-0.95772-0.07639 0.07688-0.95617 0.27728
   4   0 -13  763.51  396.79   1-0.08442 0.76308 0.63001-0.63063 0.77202-0.14159
  -4   0  13  313.69  235.79   1 0.26246-0.94102-0.06199 0.06244-0.96296 0.33256
   4   0 -1217440.34 1820.87   1-0.07260 0.75484 0.62581-0.62638 0.77662-0.19469
  -4   0  1219567.54 1938.02   1 0.23834-0.92045-0.04493 0.04535-0.97015 0.38825
   4   0 -11173433.0 3740.14   1-0.05761 0.74342 0.62032-0.62085 0.78226-0.24882
  -4   0  11160791.912564.95   1 0.21003-0.89569-0.02506 0.02544-0.97738 0.44397
   4   0 -10 3307.87  584.52   1-0.03940 0.72890 0.61282-0.61332 0.78927-0.30428
  -4   0  10 2315.80 1045.47   1 0.17725-0.86646-0.00224 0.00258-0.98417 0.49925
   4   0  -9 1769.93  636.71   1-0.01737 0.71045 0.60415-0.60459 0.79671-0.36023
  -4   0   9 1357.21  590.66   1 0.13979-0.83255 0.02360-0.02329-0.98991 0.55348
   4   0  -812664.13  955.14   1 0.00848 0.68817 0.59350-0.59389 0.80482-0.41684
   4   0  -717059.88 2113.95   1 0.03837 0.66185 0.58055-0.58089 0.81335-0.47386
   4   0  -6 4072.19 2130.08   1 0.07246 0.63134 0.56496-0.56525 0.82196-0.53097
   4   0  -5 4205.20  866.19   1 0.11085 0.59653 0.54633-0.54658 0.83023-0.58774
  -4   0   5 2719.48 1030.42   1-0.08165-0.62609 0.39639-0.39621-0.91444 0.67158
   4   0  -454618.99 1842.92   1 0.15355 0.55742 0.52428-0.52447 0.83762-0.64362
  -4   0   462919.41 1847.51   1-0.14543-0.56533 0.47861-0.47856-0.86589 0.67184
   4   0  -3  477.32  267.30   1 0.20013 0.51433 0.49842-0.49830 0.84355-0.69800
  -4   0   3  288.60  206.52   1-0.20796-0.50638 0.55567-0.55563-0.80496 0.65942
   4   0  -2 2111.36  813.72   1 0.25104 0.46700 0.46829-0.46821 0.84719-0.75015
   4   0  -2 1980.66  930.12   1 0.27123 0.44629-0.66666 0.66653 0.69426-0.59712
   4   0  -1  394.91  261.05   1 0.30542 0.41620 0.43365-0.43361 0.84776-0.79925
   4   0  -1  233.67  152.36   1 0.32027 0.40079-0.71527 0.71521 0.62113-0.57256
   4   0   0 4858.79  512.26   1 0.36261 0.36260 0.39430-0.39430 0.84444-0.84444
   4   0   0 5289.63  465.38   1 0.36257 0.36257-0.75353 0.75353 0.54838-0.54838
   4   0   112457.40  787.31   1 0.42169 0.30715 0.35063-0.35062 0.83623-0.88473
   4   0   111240.43  654.23   1 0.39790 0.33081-0.78246 0.78248 0.47897-0.52753
   4   0   223219.99 1163.94   1 0.48162 0.25082 0.30196-0.30195 0.82274-0.91976
   4   0   222906.84  998.65   1 0.42744 0.30484-0.80394 0.80397 0.41347-0.51058
   4   0   3 3698.04 1133.55   1 0.54121 0.19482 0.24900-0.24899 0.80320-0.94873
   4   0   3 2811.42 1170.65   1 0.45211 0.28375-0.81948 0.81952 0.35218-0.49785
   4   0   414137.17  909.63   1 0.59970 0.14062 0.19322-0.19318 0.77657-0.97105
   4   0   412518.09  766.31   1 0.47294 0.26685-0.83023 0.83029 0.29501-0.48929
   4   0   534917.37 1676.80   1 0.65478 0.08908 0.13341-0.13335 0.74398-0.98708
   4   0   532746.23 1368.33   1 0.49032 0.25304-0.83741 0.83748 0.24149-0.48434
   4   0   611562.68 1777.41   1 0.70575 0.04167 0.07140-0.07133 0.70488-0.99660
   4   0   612821.32 3195.09   1 0.50501 0.24192-0.84166 0.84174 0.19121-0.48263
   4   0   7  534.31  400.94   1 0.75162-0.00137 0.00988-0.00975 0.65955-0.99997
   4   0   7  411.48  325.04   1 0.51748 0.23302-0.84353 0.84363 0.14373-0.48372
   4   0   8  226.60  304.45   1 0.79152-0.03783-0.05374 0.05389 0.60880-0.99785
   4   0   956309.93 4312.88   1 0.82486-0.06772-0.11681 0.11697 0.55316-0.99084
   4   0   959348.77 4740.51   1 0.53662 0.22141-0.84224 0.84354 0.05160-0.48928
   4   0  10 8482.82 1909.10   1 0.54429 0.21726-0.83882 0.84028 0.01039-0.49671
   4   0  1116093.65 1292.79   1 0.55078 0.21430-0.83413 0.83573-0.02935-0.50559
   4   0  12 4710.02 2713.43   1 0.55620 0.21240-0.82827 0.83001-0.06786-0.51571
   4   0  13  694.60  556.10   1 0.56066 0.21146-0.82131 0.82320-0.10532-0.52689
   4   0  14  225.10  474.82   1 0.56423 0.21141-0.81333 0.81536-0.14188-0.53896
  -4  -1  15  334.42  387.09   1 0.29099-0.96244-0.08232 0.15076-0.95319 0.22581
   4   1 -14  782.67  461.51   1-0.04625 0.72142 0.61545-0.68407 0.78685-0.10787
  -4  -1  14 1134.06  505.04   1 0.27486-0.94986-0.07081 0.13921-0.95888 0.27999
   4   1 -1311763.02 1251.74   1-0.03658 0.71532 0.61173-0.68031 0.79025-0.15977
  -4  -1  13 9545.19 3324.16   1 0.25538-0.93393-0.05698 0.12535-0.96517 0.33477
   4   1 -12 1110.50  681.90   1-0.02394 0.70627 0.60678-0.67530 0.79454-0.21256
  -4  -1  12 1047.44  636.34   1 0.23229-0.91439-0.04068 0.10902-0.97180 0.38990
   4   1 -11 6725.07 2568.33   1-0.00818 0.69408 0.60042-0.66890 0.79967-0.26619
  -4  -1  11 5504.35 1998.77   1 0.20533-0.89097-0.02177 0.09008-0.97846 0.44505
   4   1 -1034715.98 1793.53   1 0.01089 0.67859 0.59248-0.66091 0.80554-0.32056
  -4  -1  1033500.92 1493.10   1 0.17426-0.86345-0.00016 0.06843-0.98471 0.49979
   4   1  -941001.94 1831.65   1 0.03345 0.65960 0.58273-0.65111 0.81201-0.37552
  -4  -1   935091.62 1508.29   1 0.13889-0.83163 0.02422 0.04401-0.99002 0.55359
  -4  -1   934527.09 1316.67   1 0.14237-0.83539 0.07647-0.00829-0.98685 0.54959
   4   1  -828089.36 1544.48   1 0.05966 0.63698 0.57092-0.63925 0.81887-0.43088
  -4  -1   827223.36 1116.03   1 0.10298-0.79961 0.13605-0.06790-0.98533 0.59665
   4   1  -711350.99  900.08   1 0.08964 0.61058 0.55676-0.62505 0.82585-0.48636
  -4  -1   713846.46  809.83   1 0.05844-0.75869 0.20168-0.13354-0.97770 0.63761
   4   1  -6 7493.42  720.42   1 0.12347 0.58033 0.53996-0.60820 0.83261-0.54162
  -4  -1   6 6647.38 1882.96   1 0.00888-0.71306 0.27248-0.20423-0.96212 0.67069
   4   1  -5 1130.26  402.51   1 0.16117 0.54621 0.52019-0.58838 0.83873-0.59624
  -4  -1   5 1327.43  542.41   1-0.04387-0.66387 0.34558-0.27737-0.93736 0.69450
   4   1  -420039.33 1111.95   1 0.20224 0.50861 0.49721-0.56503 0.84375-0.64969
  -4  -1   419744.48  880.91   1-0.09876-0.61254 0.41896-0.35078-0.90261 0.70833
   4   1  -3 4187.54 1096.28   1 0.24739 0.46703 0.47052-0.53838 0.84702-0.70147
  -4  -1   3 4083.81 1018.65   1-0.15375-0.56059 0.48910-0.42109-0.85856 0.71302
   4   1  -2 5352.83 1984.00   1 0.29579 0.42222 0.43998-0.50787 0.84792-0.75089
  -4  -1   2 5540.82  869.31   1-0.20730-0.51062 0.55488-0.48689-0.80568 0.70866
   4   1  -1 1119.34  623.22   1 0.34693 0.37466 0.40540-0.47334 0.84577-0.79726
   4   1  -1  847.48  592.72   1 0.25584 0.46525-0.65061 0.58257 0.71501-0.66644
   4   1   0 5673.53 1610.45   1 0.40015 0.32502 0.36671-0.43469 0.83991-0.83991
   4   1   0 6849.82  586.56   1 0.30023 0.42441-0.69589 0.62792 0.65237-0.65237
   4   1   1 9934.87 1096.17   1 0.45467 0.27419 0.32438-0.39234 0.82952-0.87803
   4   1   110875.60  740.54   1 0.33975 0.38843-0.73340 0.66548 0.58880-0.63737
   4   1   217742.52  927.45   1 0.50946 0.22299 0.27783-0.34579 0.81443-0.91145
   4   1   216266.24  925.73   1 0.37456 0.35778-0.76370 0.69568 0.52579-0.62290
   4   1   3 3379.44 1370.64   1 0.56357 0.17246 0.22778-0.29573 0.79407-0.93959
   4   1   3 3666.23 1538.18   1 0.40469 0.33123-0.78764 0.71963 0.46458-0.61025
   4   1   499296.24 2517.13   1 0.61657 0.12376 0.17557-0.24357 0.76750-0.96197
   4   1   4102112.8 2275.99   1 0.43078 0.30872-0.80618 0.73819 0.40557-0.59980
   4   1   525584.64 1253.20   1 0.66627 0.07762 0.12006-0.18805 0.73601-0.97911
   4   1   526958.76 1265.93   1 0.45349 0.28998-0.82006 0.75203 0.34905-0.59190
   4   1   6 5822.36 1549.12   1 0.71230 0.03514 0.06285-0.13082 0.69908-0.99080
   4   1   6 4990.65 1507.50   1 0.47294 0.27410-0.83023 0.76222 0.29500-0.58642
   4   1   7 2402.36  713.24   1 0.75403-0.00378 0.00630-0.07416 0.65684-0.99726
   4   1   7 2741.01  486.28   1 0.48975 0.26086-0.83721 0.76921 0.24333-0.58331
   4   1   8 1045.79  491.49   1 0.79058-0.03689-0.05211-0.01572 0.61017-0.99921
   4   1   8 1070.40  542.35   1 0.50427 0.24991-0.84150 0.77351 0.19387-0.58243
   4   1   9 1922.16  476.77   1 0.82160-0.06446-0.11007 0.04224 0.55936-0.99704
   4   1   9  877.34  826.05   1 0.51681 0.24094-0.84348 0.77550 0.14642-0.58355
   4   1  10 3549.68 1072.07   1 0.84682-0.08623-0.16693 0.09912 0.50504-0.99135
   4   1  10 2993.75 1214.62   1 0.52703 0.23468-0.84427 0.77753 0.09708-0.58340
   4   1  1143939.24 2509.68   1 0.53632 0.22891-0.84233 0.77573 0.05312-0.58807
   4   1  12 2511.45 1363.25   1 0.54426 0.22449-0.83884 0.77239 0.01056-0.59415
   4   1  13 6604.81 3457.86   1 0.55099 0.22129-0.83394 0.76763-0.03074-0.60147
   4   1  14  218.92  298.84   1 0.55660 0.21920-0.82774 0.76157-0.07096-0.60987
  -4  -2  15  953.48  664.46   1 0.27880-0.95024-0.07361 0.20998-0.95753 0.23015
   4   2 -14 5881.33  855.09   1 0.00487 0.67028 0.59501-0.73158 0.80373-0.12476
  -4  -2  14 3422.67 1919.11   1 0.26306-0.93804-0.06242 0.19875-0.96277 0.28388
   4   2 -13 4561.04  849.98   1 0.01525 0.66348 0.59062-0.72714 0.80683-0.17636
  -4  -2  13 4377.68 1545.61   1 0.24415-0.92268-0.04903 0.18533-0.96850 0.33811
   4   2 -12  832.57  551.52   1 0.02854 0.65376 0.58488-0.72135 0.81065-0.22867
  -4  -2  12  883.05  354.76   1 0.22186-0.90394-0.03334 0.16961-0.97452 0.39261
  -4  -2  12  935.23  674.67   1 0.21943-0.90199-0.04423 0.18064-0.97462 0.39213
   4   2 -1124260.69 2251.25   1 0.04490 0.64099 0.57763-0.71405 0.81509-0.28161
  -4  -2  1121724.16 1960.04   1 0.19595-0.88158-0.01523 0.15146-0.98050 0.44709
  -4  -2  1121476.97 2018.65   1 0.19692-0.88305-0.00823 0.14460-0.98038 0.44643
   4   2 -1013778.07 3124.02   1 0.06445 0.62502 0.56870-0.70507 0.82004-0.33506
  -4  -2  1017050.31 1808.99   1 0.16624-0.85542 0.00538 0.13081-0.98608 0.50116
  -4  -2  1016452.33 3291.76   1 0.17100-0.86039 0.03221 0.10400-0.98474 0.49890
   4   2  -9 6129.29  815.48   1 0.08732 0.60573 0.55789-0.69420 0.82534-0.38886
  -4  -2   9 5752.53 1289.41   1 0.14046-0.83347 0.07940 0.05678-0.98689 0.54963
   4   2  -8 2941.97 1104.19   1 0.11360 0.58303 0.54496-0.68122 0.83076-0.44277
  -4  -2   8 3103.88  861.30   1 0.10566-0.80229 0.13205 0.00411-0.98559 0.59692
   4   2  -7  775.82  307.60   1 0.14337 0.55685 0.52967-0.66589 0.83603-0.49654
  -4  -2   7  774.93  525.58   1 0.06669-0.76693 0.18967-0.05351-0.97958 0.63949
   4   2  -6 2261.78  443.67   1 0.17661 0.52718 0.51177-0.64794 0.84080-0.54981
  -4  -2   6 2046.73  520.52   1 0.02354-0.72772 0.25172-0.11545-0.96751 0.67608
   4   2  -5  212.24  541.20   1 0.21278 0.49445 0.49113-0.62688 0.84472-0.60214
  -4  -2   5  101.45  147.65   1-0.02234-0.68539 0.31605-0.17982-0.94847 0.70562
   4   2  -4 9902.22  821.45   1 0.25281 0.45801 0.46721-0.60299 0.84726-0.65320
  -4  -2   410732.29 1502.04   1-0.07043-0.64087 0.38143-0.24523-0.92170 0.72742
   4   2  -335536.34 1496.24   1 0.29584 0.41856 0.43995-0.57578 0.84792-0.70237
  -4  -2   335024.69 1336.50   1-0.11939-0.59496 0.44535-0.30938-0.88735 0.74181
   4   2  -238552.49 1564.50   1 0.34149 0.37649 0.40920-0.54507 0.84616-0.74913
  -4  -2   241077.20 1467.54   1-0.16813-0.54980 0.50705-0.37109-0.84536 0.74833
   4   2  -123323.69 1180.09   1 0.38925 0.33231 0.37487-0.51079 0.84142-0.79291
  -4  -2   122176.71  998.36   1-0.21526-0.50624 0.56440-0.42846-0.79693 0.74842
   4   2   0 3796.41 1174.75   1 0.43860 0.28667 0.33733-0.47326 0.83300-0.83300
   4   2   0 3066.62 1275.61   1 0.25349 0.47118-0.64813 0.51218 0.71809-0.71809
   4   2   121437.96 1093.86   1 0.48856 0.24030 0.29604-0.43197 0.82080-0.86931
   4   2   121444.65 1113.04   1 0.29387 0.43435-0.68960 0.55371 0.66188-0.71045
   4   2   217131.26 2837.31   1 0.53847 0.19398 0.25155-0.38747 0.80425-0.90127
   4   2   219085.78 1202.84   1 0.33058 0.40118-0.72496 0.58913 0.60427-0.70141
   4   2   3 4331.79 1206.53   1 0.58749 0.14855 0.20419-0.34010 0.78307-0.92860
   4   2   3 4680.46  675.82   1 0.36365 0.37233-0.75447 0.61841 0.54637-0.69204
   4   2   443782.17 1775.04   1 0.63543 0.10492 0.15517-0.29120 0.75643-0.95091
   4   2   447028.84 1762.89   1 0.39301 0.34654-0.77865 0.64261 0.48911-0.68333
   4   2   5 3183.97  851.16   1 0.68018 0.06372 0.10343-0.23945 0.72574-0.96883
   4   2   5 1860.15 1308.57   1 0.41902 0.32411-0.79811 0.66208 0.43293-0.67572
   4   2   6 8612.31 1784.22   1 0.72166 0.02580 0.05037-0.18638 0.69044-0.98216
   4   2   6 8219.68 1970.31   1 0.44198 0.30474-0.81340 0.67738 0.37820-0.66953
   4   2   713818.84 2725.03   1 0.75949-0.00925-0.00191-0.13394 0.65055-0.99097
   4   2   712461.63 2246.86   1 0.46236 0.28837-0.82494 0.68884 0.32509-0.66508
   4   2   813290.41 2957.91   1 0.79275-0.03907-0.05588-0.07995 0.60700-0.99605
   4   2   812277.43 2938.53   1 0.48010 0.27420-0.83343 0.69734 0.27364-0.66220
   4   2   942014.46 5647.38   1 0.82130-0.06417-0.10945-0.02636 0.55993-0.99761
   4   2   944769.85 3743.98   1 0.49565 0.26222-0.83917 0.70310 0.22384-0.66097
   4   2  10 4402.66 1383.79   1 0.84490-0.08432-0.16213 0.02633 0.50980-0.99611
   4   2  10 4233.41 1754.44   1 0.50925 0.25219-0.84250 0.70644 0.17561-0.66131
   4   2  11 8702.71 1750.90   1 0.86262-0.09782-0.21495 0.07846 0.45795-0.99212
   4   2  11 8689.02 3368.71   1 0.52111 0.24390-0.84370 0.70765 0.12886-0.66312
   4   2  12 1831.73 1385.73   1 0.53075 0.23816-0.84373 0.70907 0.08010-0.66369
   4   2  13 4098.12 2533.89   1 0.53964 0.23279-0.84112 0.70661 0.03599-0.66820
  -4  -3  14 1072.50  834.48   1 0.24769-0.92266-0.05153 0.25579-0.96748 0.28859
  -4  -3  14  843.91  305.72   1 0.23977-0.91519-0.07725 0.28172-0.96775 0.28818
   4   3 -13  974.14 1179.76   1 0.07039 0.60833 0.56593-0.77038 0.82147-0.19099
  -4  -3  13 1412.84  856.03   1 0.22921-0.90773-0.03851 0.24273-0.97262 0.34223
  -4  -3  13  983.76 1167.60   1 0.22480-0.90379-0.05290 0.25734-0.97296 0.34193
   4   3 -12 4663.12 3094.45   1 0.08417 0.59813 0.55940-0.76380 0.82464-0.24266
  -4  -3  12 5282.91 2461.58   1 0.20754-0.88960-0.02332 0.22751-0.97796 0.39605
  -4  -3  12 3304.82 2175.35   1 0.20696-0.88952-0.02422 0.22862-0.97804 0.39556
   4   3 -11 5345.40  847.01   1 0.10091 0.58498 0.55127-0.75562 0.82823-0.29475
  -4  -3  11 4846.72 2159.01   1 0.18248-0.86810-0.00586 0.21002-0.98320 0.44979
  -4  -3  11 2637.93 2263.45   1 0.18644-0.87222 0.00797 0.19626-0.98243 0.44800
   4   3 -10 4690.11 2539.99   1 0.12069 0.56877 0.54138-0.74568 0.83210-0.34712
  -4  -3  10 4197.91 1471.44   1 0.15390-0.84306 0.01390 0.19021-0.98800 0.50308
  -4  -3  10 5279.74 1329.18   1 0.16214-0.85153 0.04599 0.15823-0.98569 0.49985
   4   3  -918137.74 1276.11   1 0.14359 0.54946 0.52955-0.73381 0.83606-0.39958
  -4  -3   920795.29 2961.86   1 0.13434-0.82734 0.08874 0.11546-0.98695 0.54969
   4   3  -821369.77 1327.83   1 0.16965 0.52698 0.51559-0.71980 0.83990-0.45191
  -4  -3   820723.40 3268.20   1 0.10297-0.79960 0.13607 0.06811-0.98533 0.59665
   4   3  -7 1103.95  336.32   1 0.19820 0.50185 0.49952-0.70316 0.84335-0.50374
  -4  -3   7 1689.62  585.08   1 0.06812-0.76836 0.18757 0.01659-0.97988 0.63979
   4   3  -6 8623.36  784.40   1 0.23062 0.47301 0.48064-0.68432 0.84608-0.55498
  -4  -3   6 9262.67 1792.81   1 0.02972-0.73389 0.24292-0.03862-0.96959 0.67816
   4   3  -511168.71  939.61   1 0.26601 0.44119 0.45902-0.66274 0.84769-0.60511
  -4  -3   512354.94 1531.23   1-0.01103-0.69669 0.30038-0.09611-0.95375 0.71090
   4   3  -416162.91 1023.67   1 0.30418 0.40661 0.43447-0.63824 0.84779-0.65373
  -4  -3   415034.10 3066.52   1-0.05388-0.65741 0.35917-0.15494-0.93171 0.73742
   4   3  -3 2079.71  879.75   1 0.34482 0.36955 0.40688-0.61069 0.84593-0.70038
  -4  -3   3 1922.54  550.82   1-0.09797-0.61689 0.41792-0.21373-0.90318 0.75747
   4   3  -211968.10  911.17   1 0.38752 0.33043 0.37615-0.58000 0.84165-0.74462
  -4  -3   212721.03 2559.89   1-0.14229-0.57565 0.47462-0.27071-0.86861 0.77158
   4   3  -139859.21 1599.24   1 0.43198 0.28969 0.34257-0.54647 0.83431-0.78580
  -4  -3   137947.46 1458.85   1-0.18601-0.53550 0.52908-0.32517-0.82793 0.77941
   4   3   0  286.67  416.16   1 0.47723 0.24804 0.30567-0.50957 0.82393-0.82393
   4   3   0  535.53  273.33   1 0.21912 0.50558-0.61094 0.40701 0.76074-0.76074
   4   3   122843.80 1203.46   1 0.52284 0.20602 0.26586-0.46975 0.80994-0.85845
   4   3   123046.83 1245.20   1 0.25873 0.46952-0.65365 0.44978 0.71119-0.75976
   4   3   252597.25 2274.43   1 0.56812 0.16433 0.22337-0.42726 0.79207-0.88909
   4   3   258798.16 2480.93   1 0.29567 0.43612-0.69139 0.48758 0.65920-0.75634
   4   3   322190.47 1793.37   1 0.61308 0.12374 0.17927-0.38336 0.76944-0.91530
   4   3   324094.08 1377.52   1 0.32971 0.40563-0.72415 0.52040 0.60571-0.75142
   4   3   4 8034.04 1913.84   1 0.65563 0.08474 0.13243-0.33650 0.74340-0.93788
   4   3   4 8333.42  792.66   1 0.36081 0.37880-0.75202 0.54793 0.55161-0.74583
   4   3   5 9482.24 2010.16   1 0.69582 0.04810 0.08408-0.28814 0.71330-0.95640
   4   3   510388.09  879.46   1 0.38888 0.35431-0.77538 0.57131 0.49753-0.74031
   4   3   6 7908.30 1475.76   1 0.73308 0.01439 0.03468-0.23873 0.67928-0.97100
   4   3   6 7212.17 1059.86   1 0.41414 0.33262-0.79461 0.59055 0.44391-0.73525
   4   3   7  962.71  436.41   1 0.76724-0.01701-0.01385-0.18998 0.64124-0.98166
   4   3   7  540.13  556.13   1 0.43677 0.31358-0.81010 0.60605 0.39110-0.73100
   4   3   8 2306.81  871.80   1 0.79733-0.04365-0.06393-0.13989 0.60018-0.98922
   4   3   8 2147.56 1360.48   1 0.45714 0.29727-0.82212 0.61793 0.33930-0.72786
   4   3   9 2252.42  575.48   1 0.82335-0.06623-0.11366-0.09013 0.55606-0.99374
   4   3   9 2023.08 1122.07   1 0.47510 0.28288-0.83123 0.62705 0.28866-0.72579
   4   3  10 1166.52  383.72   1 0.84511-0.08454-0.16265-0.04112 0.50928-0.99559
   4   3  10  869.84  597.88   1 0.49102 0.27054-0.83766 0.63350 0.23920-0.72490
   4   3  11 1959.48 1207.77   1 0.86167-0.09691-0.21198 0.00748 0.46111-0.99528
   4   3  11 3307.16 1112.66   1 0.50508 0.26004-0.84168 0.63753 0.19094-0.72520
   4   3  12 7435.95  696.96   1 0.87468-0.10635-0.25835 0.05381 0.41015-0.99289
   4   3  12 5728.04 2740.99   1 0.51746 0.25124-0.84353 0.63939 0.14383-0.72666
   4   3  13 3835.95 1770.07   1 0.52756 0.24503-0.84421 0.64151 0.09471-0.72692
  -4  -4  15 4818.60 2741.52   1 0.23587-0.90772-0.07087 0.34338-0.96919 0.24108
  -4  -4  1414765.33 1294.57   1 0.22391-0.89934-0.05146 0.32394-0.97324 0.29368
   4   4 -13 4074.06 2336.85   1 0.12832 0.55039 0.53748-0.80987 0.83348-0.20300
  -4  -4  13 7697.99  947.56   1 0.21091-0.88941-0.02568 0.29782-0.97718 0.34678
  -4  -4  13 2254.79 2569.43   1 0.20956-0.88856-0.02838 0.30082-0.97738 0.34635
  -4  -4  12  644.42  674.17   1 0.18973-0.87179-0.01090 0.28302-0.98178 0.39988
  -4  -4  12  195.77  169.56   1 0.19304-0.87520-0.00245 0.27473-0.98118 0.39817
   4   4 -11 3783.74 1708.76   1 0.15923 0.52664 0.52123-0.79352 0.83845-0.30497
  -4  -4  11 3581.59 1616.07   1 0.16538-0.85098 0.00597 0.26610-0.98622 0.45281
  -4  -4  11 4103.71 1713.91   1 0.17334-0.85912 0.02854 0.24371-0.98444 0.45002
   4   4 -10 2973.13  703.44   1 0.17897 0.51049 0.51046-0.78271 0.84109-0.35611
  -4  -4  10 2495.08 1233.66   1 0.13773-0.82688 0.02502 0.24702-0.99016 0.50524
  -4  -4  10 3049.57 1067.97   1 0.15073-0.84012 0.06363 0.20860-0.98652 0.50068
   4   4  -9 4463.15 1222.98   1 0.20077 0.49208 0.49806-0.76959 0.84361-0.40697
  -4  -4   9 3479.34 1224.05   1 0.12510-0.81810 0.10279 0.16943-0.98680 0.54954
   4   4  -8 8439.03 3068.23   1 0.22637 0.47006 0.48316-0.75474 0.84579-0.45766
  -4  -4   810739.68 2965.76   1 0.09642-0.79304 0.14585 0.12635-0.98459 0.59592
   4   4  -7 4183.54 2302.82   1 0.25481 0.44521 0.46598-0.73759 0.84734-0.50773
  -4  -4   7 5398.92 1111.89   1 0.06477-0.76500 0.19247 0.07971-0.97916 0.63907
   4   4  -611294.90  998.02   1 0.28597 0.41762 0.44634-0.71800 0.84796-0.55687
  -4  -4   611564.70 2232.95   1 0.03004-0.73420 0.24246 0.02986-0.96969 0.67826
   4   4  -526937.42 1400.46   1 0.31969 0.38749 0.42413-0.69583 0.84732-0.60475
  -4  -4   525568.35 1292.06   1-0.00672-0.70100 0.29437-0.02207-0.95566 0.71281
   4   4  -421406.99 1327.00   1 0.35571 0.35504 0.39921-0.67095 0.84507-0.65100
  -4  -4   421355.13 1133.50   1-0.04540-0.66588 0.34767-0.07541-0.93651 0.74223
   4   4  -354252.63 1950.93   1 0.39374 0.32060 0.37153-0.64331 0.84082-0.69527
  -4  -4   354483.66 1864.65   1-0.08539-0.62946 0.40134-0.12912-0.91193 0.76622
   4   4  -2 6340.45 2044.68   1 0.43360 0.28448 0.34129-0.61317 0.83399-0.73698
  -4  -4   2 5718.65 1162.84   1-0.12594-0.59200 0.45378-0.18190-0.88216 0.78514
   4   4  -153056.65 1874.88   1 0.47432 0.24736 0.30812-0.57999 0.82469-0.77619
  -4  -4   154572.12 1803.30   1-0.16641-0.55511 0.50491-0.23304-0.84697 0.79846
   4   4   0 7303.79 2572.13   1 0.51566 0.20961 0.27231-0.54417 0.81239-0.81239
  -4  -4   0 6793.46  650.30   1-0.20604-0.51905 0.55336-0.28151-0.80705 0.80705
   4   4   1 3178.28 1930.80   1 0.55707 0.17179 0.23403-0.50589 0.79683-0.84534
   4   4   1 2782.83 1851.03   1 0.23259 0.49569-0.62571 0.35386 0.74457-0.79313
   4   4   2  336.18  243.45   1 0.59871 0.13458 0.19423-0.46636 0.77708-0.87432
   4   4   2  181.60  232.07   1 0.26878 0.46304-0.66413 0.39234 0.69762-0.79476
   4   4   3 4407.32 1936.76   1 0.63851 0.09833 0.15176-0.42388 0.75453-0.90039
   4   4   3 3659.07 2361.68   1 0.30276 0.43260-0.69839 0.42666 0.64852-0.79423
   4   4   4 8790.52 2270.76   1 0.67665 0.06374 0.10770-0.37981 0.72841-0.92289
   4   4   411186.27  998.56   1 0.33434 0.40457-0.72844 0.45678 0.59797-0.79225
   4   4   5 6580.10 1600.70   1 0.71262 0.03132 0.06242-0.33452 0.69879-0.94189
   4   4   5 3417.11 2441.08   1 0.36349 0.37976-0.75433 0.48220 0.54668-0.78946
   4   4   614102.65 2855.10   1 0.74630 0.00047 0.01768-0.28953 0.66540-0.95719
   4   4   611619.30 1395.10   1 0.39008 0.35674-0.77634 0.50423 0.49509-0.78643
   4   4   712417.56 1930.18   1 0.77667-0.02644-0.02887-0.24296 0.62928-0.96970
   4   4   712013.62 1607.80   1 0.41428 0.33612-0.79471 0.52262 0.44361-0.78350
   4   4   816112.57 2702.72   1 0.80372-0.05005-0.07548-0.19633 0.59023-0.97928
   4   4   817746.27 1796.11   1 0.43618 0.31780-0.80972 0.53764 0.39253-0.78098
   4   4   9 6906.47 1039.63   1 0.82723-0.07011-0.12179-0.15000 0.54854-0.98622
   4   4   9 6536.27 1070.26   1 0.45613 0.30197-0.82155 0.54928 0.34203-0.77916
   4   4  10 9678.06 2340.31   1 0.84620-0.08504-0.16899-0.10346 0.50540-0.99101
   4   4  10 8545.82 2988.31   1 0.47385 0.28782-0.83066 0.55839 0.29234-0.77804
   4   4  11   55.39  184.98   1 0.86220-0.09748-0.21364-0.05885 0.45934-0.99352
   4   4  11   39.10  238.54   1 0.48970 0.27554-0.83719 0.56495 0.24349-0.77775
   4   4  12  183.90  244.45   1 0.87439-0.10610-0.25714-0.01539 0.41152-0.99426
   4   4  12  147.14  480.72   1 0.50381 0.26500-0.84139 0.56916 0.19551-0.77835
   4   4  1310650.58  943.14   1 0.88276-0.11090-0.29931 0.02672 0.36219-0.99349
   4   5 -13 6732.18  893.55   1 0.18731 0.49119 0.50567-0.84502 0.84217-0.21147
  -4  -5  13 5948.06 1514.25   1 0.19328-0.87182-0.00283 0.34314-0.98113 0.34954
   4   5 -12 3842.22 1336.41   1 0.20145 0.48063 0.49767-0.83706 0.84368-0.26149
  -4  -5  12 3681.61 2007.32   1 0.16875-0.85079 0.00364 0.33639-0.98566 0.40376
  -4  -5  12 5062.05 1220.04   1 0.17712-0.85927 0.02263 0.31766-0.98392 0.40091
   4   5 -11 1436.66 1039.64   1 0.21826 0.46740 0.48794-0.82737 0.84517-0.31150
  -4  -5  11 2550.88 1386.93   1 0.14499-0.83058 0.02003 0.31997-0.98924 0.45583
  -4  -5  11 2500.56  847.84   1 0.15849-0.84426 0.05165 0.28862-0.98600 0.45158
   4   5 -10 2728.29  644.79   1 0.23774 0.45150 0.47638-0.81585 0.84652-0.36136
  -4  -5  10 2221.45  784.86   1 0.13727-0.82666 0.08426 0.25599-0.98694 0.50109
   4   5  -9 3783.00  695.44   1 0.25987 0.43295 0.46285-0.80236 0.84752-0.41087
  -4  -5   9 3546.32  828.51   1 0.11342-0.80642 0.12041 0.21982-0.98622 0.54896
   4   5  -812499.05 1371.59   1 0.28460 0.41180 0.44722-0.78678 0.84796-0.45983
  -4  -5   811115.38 3512.91   1 0.08692-0.78353 0.15994 0.18028-0.98329 0.59461
   4   5  -719069.82 1333.95   1 0.31184 0.38814 0.42939-0.76898 0.84760-0.50799
  -4  -5   722293.80 3469.81   1 0.05784-0.75807 0.20255 0.13765-0.97756 0.63747
   4   5  -635956.58 1619.69   1 0.34144 0.36213 0.40923-0.74887 0.84616-0.55507
  -4  -5   637311.58 1583.49   1 0.02607-0.73023 0.24813 0.09222-0.96837 0.67694
   4   5  -5 1818.71  537.58   1 0.37319 0.33396 0.38667-0.72635 0.84336-0.60078
  -4  -5   5  984.41  531.78   1-0.00747-0.70025 0.29541 0.04490-0.95534 0.71248
   4   5  -4 6557.53  711.55   1 0.40721 0.30370 0.36177-0.70163 0.83865-0.64462
  -4  -5   4 5482.79 1843.50   1-0.04276-0.66852 0.34407-0.00379-0.93796 0.74368
   4   5  -3  922.50  359.91   1 0.44239 0.27210 0.33430-0.67414 0.83221-0.68668
  -4  -5   3  863.11  354.12   1-0.07933-0.63551 0.39331-0.05306-0.91597 0.77026
   4   5  -2 8848.27  815.64   1 0.47879 0.23930 0.30436-0.64420 0.82351-0.72649
  -4  -5   2 8981.35 2067.93   1-0.11663-0.60132 0.44179-0.10194-0.88950 0.79247
   4   5  -120321.83 1260.73   1 0.51598 0.20570 0.27203-0.61186 0.81228-0.76377
  -4  -5   119234.16 1428.78   1-0.15413-0.56739 0.48957-0.14974-0.85823 0.80971
   4   5   049321.85 2334.64   1 0.55350 0.17177 0.23744-0.57727 0.79831-0.79831
  -4  -5   048220.41 2545.51   1-0.19123-0.53386 0.53546-0.19564-0.82262 0.82262
   4   5   152674.49 1986.46   1 0.59087 0.13799 0.20076-0.54059 0.78141-0.82992
   4   5   2  251.44  259.08   1 0.24879 0.48307-0.64314 0.30338 0.72420-0.82134
   4   5   312727.00 2542.87   1 0.66402 0.07284 0.12269-0.46285 0.73760-0.88346
   4   5   313462.09 1890.50   1 0.28207 0.45333-0.67774 0.33804 0.67904-0.82474
   4   5   436701.14 1503.40   1 0.69807 0.04235 0.08124-0.42139 0.71144-0.90591
   4   5   438425.98 1976.88   1 0.31345 0.42549-0.70876 0.36913 0.63197-0.82625
   4   5   5 9833.69 2268.82   1 0.73012 0.01384 0.03880-0.37894 0.68224-0.92534
   4   5   5 8867.26  914.44   1 0.34279 0.39969-0.73616 0.39659 0.58356-0.82641
   4   5   6 6204.31 1196.06   1 0.76021-0.01344-0.00300-0.33683 0.64970-0.94149
   4   5   6 3527.56 2588.37   1 0.37006 0.37682-0.75993 0.41977 0.53437-0.82570
   4   5   7 1039.90  393.25   1 0.78727-0.03705-0.04645-0.29336 0.61489-0.95530
   4   5   7  906.75  620.82   1 0.39514 0.35531-0.78032 0.44018 0.48472-0.82461
   4   5   8 2823.41  739.97   1 0.81142-0.05776-0.08993-0.24986 0.57753-0.96658
   4   5   8  909.02 1235.13   1 0.41813 0.33590-0.79748 0.45735 0.43495-0.82340
   4   5   9  190.12  176.19   1 0.83248-0.07537-0.13315-0.20662 0.53785-0.97553
   4   5   9  141.68  387.13   1 0.43911 0.31850-0.81160 0.47148 0.38534-0.82234
   4   5  1010895.97 1091.72   1 0.84944-0.08831-0.17730-0.16316 0.49704-0.98266
   4   5  1011164.00 1149.12   1 0.45837 0.30342-0.82279 0.48243 0.33600-0.82170
   4   5  11 6340.94  763.44   1 0.86393-0.09924-0.21912-0.12138 0.45348-0.98765
   4   5  11 4676.99 3052.65   1 0.47559 0.28977-0.83145 0.49110 0.28722-0.82149
  -4  -6  13 1933.56 1304.98   1 0.17533-0.85386 0.02544 0.38288-0.98418 0.35258
   4   6 -1213381.88 1268.58   1 0.26294 0.41911 0.46093-0.86830 0.84761-0.26542
  -4  -6  1210212.41 3360.63   1 0.15985-0.84200 0.04954 0.35876-0.98589 0.40288
   4   6 -11 7393.91  893.00   1 0.27931 0.40632 0.45061-0.85802 0.84793-0.31425
  -4  -6  11 7735.18 2108.73   1 0.14214-0.82791 0.07682 0.33146-0.98686 0.45243
   4   6 -10  291.57  212.26   1 0.29814 0.39107 0.43844-0.84589 0.84789-0.36273
   4   6  -9  273.97  293.22   1 0.31938 0.37342 0.42434-0.83182 0.84734-0.41069
  -4  -6   9  194.28  318.50   1 0.09977-0.79277 0.14085 0.26740-0.98499 0.54773
   4   6  -8  752.15  515.94   1 0.34292 0.35345 0.40820-0.81573 0.84606-0.45793
  -4  -6   8  989.87  527.10   1 0.07509-0.77170 0.17737 0.23086-0.98127 0.59260
   4   6  -7  779.03  357.40   1 0.36866 0.33129 0.38995-0.79752 0.84384-0.50423
  -4  -6   7 1605.19  951.69   1 0.04781-0.74839 0.21695 0.19146-0.97501 0.63501
   4   6  -6 2143.72 1743.35   1 0.39642 0.30712 0.36952-0.77713 0.84044-0.54935
  -4  -6   6 4022.41 1181.33   1 0.01881-0.72296 0.25844 0.14993-0.96584 0.67441
   4   6  -5 1593.43 1151.06   1 0.42640 0.28091 0.34696-0.75478 0.83537-0.59282
  -4  -6   5 1561.40  963.17   1-0.01206-0.69565 0.30181 0.10653-0.95329 0.71043
   4   6  -415223.50 1758.76   1 0.45745 0.25346 0.32210-0.72992 0.82887-0.63483
  -4  -6   416197.74 1211.51   1-0.04453-0.66675 0.34648 0.06182-0.93699 0.74271
   4   6  -325054.14 1933.06   1 0.48974 0.22477 0.29503-0.70284 0.82046-0.67493
  -4  -6   325679.78 1416.16   1-0.07822-0.63663 0.39182 0.01644-0.91670 0.77099
   4   6  -2 1327.00  706.50   1 0.52291 0.19518 0.26579-0.67360 0.80991-0.71289
  -4  -6   2 1319.76  676.17   1-0.11269-0.60526 0.43669-0.02888-0.89252 0.79549
   4   6  -135725.85 1538.81   1 0.55661 0.16508 0.23447-0.64228 0.79702-0.74851
  -4  -6   136807.19 1629.29   1-0.14753-0.57399 0.48126-0.07347-0.86406 0.81555
   4   6   026869.08 1502.94   1 0.59042 0.13486 0.20122-0.60902 0.78163-0.78163
  -4  -6   023748.58 1515.35   1-0.18226-0.54285 0.52448-0.11670-0.83168 0.83168
   4   6   143807.07 1864.23   1 0.62479 0.10500 0.16677-0.57499 0.76280-0.81142
  -4  -6  -144983.84 1770.42   1-0.21641-0.51226 0.56577-0.15800-0.79565 0.84416
   4   6   212438.55  855.36   1 0.65759 0.07575 0.13018-0.53839 0.74207-0.83931
   4   6   213501.31 1077.68   1 0.23463 0.49725-0.62793 0.22019 0.74205-0.83919
   4   6   3 1838.70 1004.68   1 0.68928 0.04760 0.09225-0.50045 0.71862-0.86448
   4   6   3 1247.44  779.58   1 0.26685 0.46859-0.66212 0.25445 0.70027-0.84597
   4   6   4 3115.82  929.68   1 0.71951 0.02093 0.05326-0.46145 0.69246-0.88694
   4   6   4 4485.38  680.18   1 0.29759 0.44139-0.69329 0.28567 0.65634-0.85062
   4   6   5  635.56  713.70   1 0.74833-0.00502 0.01471-0.42256 0.66319-0.90634
   4   6   5  886.65  378.83   1 0.32666 0.41586-0.72130 0.31375 0.61074-0.85359
   4   6   6 4534.53 2108.54   1 0.77466-0.02789-0.02562-0.38221 0.63189-0.92368
   4   6   6 7582.84  918.19   1 0.35403 0.39290-0.74610 0.33789 0.56391-0.85524
   4   6   7  670.28  332.84   1 0.79862-0.04841-0.06623-0.34158 0.59821-0.93863
   4   6   7  506.13  471.85   1 0.37946 0.37105-0.76776 0.35957 0.51627-0.85617
   4   6   850191.48 2668.16   1 0.82002-0.06636-0.10685-0.30094 0.56230-0.95135
   4   6   846951.52 2872.18   1 0.40304 0.35105-0.78639 0.37822 0.46811-0.85657
   4   6   926384.29 1865.29   1 0.83869-0.08159-0.14725-0.26052 0.52436-0.96204
   4   6   927045.99 2002.08   1 0.42478 0.33289-0.80212 0.39396 0.41971-0.85672
   4   6  10 4427.70 2870.04   1 0.85365-0.09256-0.18860-0.21987 0.48553-0.97115
   4   6  10 5980.77 3647.32   1 0.44471 0.31653-0.81508 0.40693 0.37129-0.85685
  -4  -7  12 2409.51 1158.39   1 0.14139-0.82353 0.07797 0.39834-0.98687 0.40386
   4   7 -11 4096.72 3197.63   1 0.34072 0.34488 0.40973-0.88511 0.84621-0.31254
  -4  -7  11 7607.63 2769.18   1 0.12450-0.81026 0.10369 0.37261-0.98678 0.45235
   4   7 -10 4728.43  832.35   1 0.35860 0.33058 0.39716-0.87259 0.84481-0.35965
  -4  -7  10 3210.17 1484.40   1 0.10554-0.79491 0.13224 0.34404-0.98558 0.49974
   4   7  -9 5672.74 2484.33   1 0.37863 0.31413 0.38270-0.85817 0.84274-0.40610
  -4  -7   9 7485.09 2011.77   1 0.08448-0.77747 0.16354 0.31272-0.98291 0.54565
   4   7  -814589.00 1236.49   1 0.40132 0.29523 0.36624-0.84205 0.83955-0.45148
  -4  -7   812648.26 2762.51   1 0.06135-0.75796 0.19745 0.27880-0.97839 0.58971
   4   7  -724146.16 2223.01   1 0.42523 0.27490 0.34787-0.82367 0.83558-0.49602
  -4  -7   719394.94 3968.39   1 0.03590-0.73648 0.23409 0.24235-0.97155 0.63155
  -4  -7   6 9467.98 2983.23   1 0.00895-0.71310 0.27239 0.20401-0.96214 0.67072
   4   7  -5 1389.61  657.61   1 0.47799 0.22933 0.30503-0.78082 0.82372-0.58118
  -4  -7   5 1899.17  593.20   1-0.01967-0.68803 0.31237 0.16400-0.94975 0.70690
   4   7  -413638.54 1547.95   1 0.50636 0.20456 0.28057-0.75636 0.81543-0.62139
  -4  -7   411229.88 2326.56   1-0.04974-0.66153 0.35357 0.12276-0.93408 0.73980
   4   7  -3  573.58  573.94   1 0.53568 0.17883 0.25413-0.72991 0.80530-0.65977
  -4  -7   3 1011.51  605.13   1-0.08096-0.63388 0.39546 0.08083-0.91490 0.76919
   4   7  -212654.20 1486.20   1 0.56564 0.15246 0.22578-0.70156 0.79317-0.69615
  -4  -7   212145.23  994.28   1-0.11297-0.60499 0.43705 0.03872-0.89231 0.79528
   4   7  -135261.60 2991.87   1 0.59685 0.12586 0.19615-0.67243 0.77803-0.72942
  -4  -7   133214.32 3564.17   1-0.14544-0.57609 0.47862-0.00286-0.86589 0.81737
   4   7   0 8940.22  806.72   1 0.62705 0.09920 0.16433-0.64060 0.76147-0.76147
  -4  -7   0 8245.21 2199.57   1-0.17797-0.54714 0.51921-0.04346-0.83590 0.83590
   4   7   1 3166.42  788.88   1 0.65687 0.07293 0.13100-0.60726 0.74256-0.79118
  -4  -7  -1 1889.84 1518.10   1-0.21017-0.51851 0.55832-0.08259-0.80255 0.85107
   4   7   2 2336.17  723.90   1 0.68597 0.04739 0.09635-0.57260 0.72125-0.81849
   4   7   2 1791.71 1595.88   1 0.22540 0.50652-0.61785 0.14214 0.75329-0.85042
   4   7   311942.04 1332.43   1 0.71400 0.02290 0.06060-0.53684 0.69754-0.84340
   4   7   3 9704.44 2404.17   1 0.25637 0.47910-0.65116 0.17551 0.71432-0.86003
   4   7   418305.86 2533.36   1 0.74067-0.00021 0.02396-0.50018 0.67147-0.86594
   4   7   419423.01 1956.09   1 0.28619 0.45282-0.68191 0.20632 0.67312-0.86739
   4   7   5 4192.92 1695.22   1 0.76615-0.02284-0.01215-0.46368 0.64258-0.88573
   4   7   5 3643.62 2662.94   1 0.31467 0.42788-0.70993 0.23440 0.63005-0.87290
   4   7   611992.50 1133.26   1 0.78930-0.04254-0.04991-0.42590 0.61201-0.90379
   4   7   611332.35 1188.42   1 0.34167 0.40443-0.73514 0.25967 0.58550-0.87692
   4   7   7 3095.42 1521.85   1 0.81035-0.06015-0.08789-0.38790 0.57934-0.91976
   4   7   7 1451.83 1862.58   1 0.36717 0.38340-0.75748 0.28124 0.53982-0.87971
   4   7   8 2806.81  943.68   1 0.82914-0.07549-0.12588-0.34990 0.54471-0.93376
   4   7   8 2079.02 2247.92   1 0.39094 0.36321-0.77701 0.30079 0.49336-0.88181
  -4  -8  1011289.40 2848.56   1 0.08768-0.77705 0.15880 0.38549-0.98340 0.49756
   4   8  -9 2937.84 2476.91   1 0.43770 0.25525 0.33804-0.88182 0.83318-0.39659
  -4  -8   9 5579.99 2563.50   1 0.06777-0.76076 0.18808 0.35619-0.97981 0.54255
   4   8  -8 2910.49  897.67   1 0.45801 0.23854 0.32165-0.86542 0.82874-0.44067
  -4  -8   8 3652.94 1124.84   1 0.04564-0.74265 0.22008 0.32442-0.97441 0.58584
   4   8  -711327.03 1150.88   1 0.47994 0.22020 0.30338-0.84715 0.82320-0.48363
  -4  -8   7 9552.58 2324.41   1 0.02213-0.72271 0.25373 0.29073-0.96702 0.62702
   4   8  -615045.59 1284.92   1 0.50333 0.20040 0.28323-0.82699 0.81638-0.52532
  -4  -8   610928.59 3490.13   1-0.00304-0.70110 0.28923 0.25520-0.95725 0.66582
   4   8  -5 6238.56  776.38   1 0.52795 0.17938 0.26122-0.80498 0.80813-0.56558
  -4  -8   5 3704.21 1842.41   1-0.02973-0.67797 0.32623 0.21816-0.94482 0.70196
   4   8  -4 6762.21  871.44   1 0.55356 0.15736 0.23738-0.78113 0.79829-0.60425
  -4  -8   4 6243.29 2765.93   1-0.05773-0.65354 0.36437 0.17999-0.92946 0.73517
   4   8  -312493.96 1507.99   1 0.57990 0.13461 0.21178-0.75553 0.78670-0.64118
  -4  -8   311463.37  984.69   1-0.08679-0.62804 0.40320 0.14112-0.91098 0.76527
   4   8  -214166.31 2350.50   1 0.60769 0.11149 0.18493-0.72926 0.77237-0.67513
  -4  -8   214629.46 1703.42   1-0.11664-0.60133 0.44180 0.10193-0.88949 0.79247
   4   8  -1 1635.75 1009.85   1 0.63460 0.08813 0.15608-0.70040 0.75694-0.70832
  -4  -8   1 1347.30 1204.64   1-0.14699-0.57455 0.48058 0.06314-0.86454 0.81603
   4   8   0  487.33  267.59   1 0.66137 0.06490 0.12579-0.67010 0.73946-0.73946
  -4  -8   0  286.52  328.23   1-0.17751-0.54761 0.51865 0.02506-0.83635 0.83635
   4   8   122888.58 2118.42   1 0.68771 0.04212 0.09421-0.63850 0.71987-0.76849
  -4  -8  -120231.89 1895.19   1-0.20787-0.52082 0.55556-0.01186-0.80506 0.85358
   4   8   2  392.56  559.40   1 0.71332 0.02006 0.06150-0.60579 0.69816-0.79540
   4   8   2  483.44  581.69   1 0.22033 0.51163-0.61227 0.06858 0.75932-0.85646
   4   8   3 2451.47 1096.77   1 0.73793-0.00100 0.02786-0.57214 0.67433-0.82019
   4   8   3 2069.22 1819.07   1 0.24997 0.48553-0.64439 0.10076 0.72268-0.86839
   4   8   4 1865.68  787.12   1 0.76176-0.02191-0.00538-0.53847 0.64786-0.84239
   4   8   4 2838.49  729.26   1 0.27872 0.46032-0.67434 0.13077 0.68378-0.87806
   4   8   5 2088.55 1077.81   1 0.78364-0.04034-0.04034-0.50348 0.61993-0.86309
   4   8   5 2485.55  678.91   1 0.30640 0.43618-0.70194 0.15844 0.64295-0.88579
   4   8   6 3465.57 2348.17   1 0.80383-0.05708-0.07568-0.46813 0.59005-0.88184
   4   8   6 5210.04 1329.88   1 0.33285 0.41328-0.72707 0.18362 0.60048-0.89189
   4   8   713945.74 1391.12   1 0.35807 0.39255-0.74964 0.20535 0.55661-0.89650
   4   9  -7 4891.07  722.42   1 0.53288 0.16727 0.25671-0.86844 0.80634-0.46677
  -4  -9   7 3570.59 1625.23   1 0.00679-0.70736 0.27543 0.33707-0.96129 0.62130
   4   9  -612379.64 1249.85   1 0.55389 0.14985 0.23707-0.84879 0.79815-0.50709
  -4  -9   614233.69 1265.41   1-0.01682-0.68730 0.30842 0.30403-0.95110 0.65967
   4   9  -510486.72 1058.88   1 0.57592 0.13141 0.21572-0.82744 0.78855-0.54601
  -4  -9   5 7316.47 2515.71   1-0.04182-0.66588 0.34278 0.26963-0.93848 0.69562
   4   9  -4 2514.81 2320.11   1 0.59987 0.11223 0.19304-0.80543 0.77649-0.58201
  -4  -9   4 3121.62 1804.04   1-0.06800-0.64326 0.37818 0.23420-0.92322 0.72894
   4   9  -3  344.96  504.36   1 0.62320 0.09244 0.16849-0.78086 0.76372-0.61786
  -4  -9   3  744.90  460.27   1-0.09517-0.61966 0.41425 0.19810-0.90517 0.75946
   4   9  -2 1700.30  846.81   1 0.64685 0.07235 0.14244-0.75480 0.74923-0.65199
  -4  -9   2 1473.86  899.57   1-0.12310-0.59487 0.45013 0.16157-0.88443 0.78741
   4   9  -1 1863.95  971.83   1 0.67055 0.05220 0.11500-0.72736 0.73292-0.68430
  -4  -9   1 1085.53  806.29   1-0.15155-0.57000 0.48632 0.12536-0.86053 0.81202
   4   9   0 2774.57 1234.68   1 0.69405 0.03225 0.08631-0.69866 0.71476-0.71476
  -4  -9   0 2602.62 1658.65   1-0.18022-0.54490 0.52199 0.08968-0.83369 0.83369
   4   9   1 2631.52 1110.72   1 0.71709 0.01276 0.05650-0.66884 0.69471-0.74333
  -4  -9  -1  879.19 1572.66   1-0.20886-0.51983 0.55675 0.05490-0.80398 0.85250
   4   9   222972.61 1603.35   1 0.73943-0.00603 0.02572-0.63805 0.67276-0.77000
   4   9   221332.62 1708.22   1 0.21879 0.51319-0.61058-0.00108 0.76113-0.85827
   4   9   325594.28 1815.99   1 0.76134-0.02494-0.00474-0.60711 0.64836-0.79425
   4   9   325903.43 1967.10   1 0.24709 0.48844-0.64133 0.02972 0.72638-0.87209
   4   9   413910.44 1382.99   1 0.27472 0.46436-0.67024 0.05870 0.68941-0.88369
   5  -5  -8 1455.93  423.53   1 0.00521 0.87280 0.59487-0.25558 0.80383-0.41585
   5  -5  -7  493.21  707.38   1 0.03456 0.84704 0.58224-0.24290 0.81231-0.47282
   5  -5  -6  235.89  354.83   1 0.06823 0.81694 0.56694-0.22755 0.82096-0.52997
   5  -5  -5  423.66  258.77   1 0.10651 0.78224 0.54850-0.20906 0.82937-0.58688
   5  -5  -4 4542.14  696.22   1 0.14962 0.74272 0.52637-0.18688 0.83701-0.64302
   5  -4  -810704.22 1063.18   1 0.02767 0.85033 0.58526-0.31391 0.81040-0.42242
   5  -4  -7 9391.34 1417.50   1 0.05671 0.82487 0.57227-0.30087 0.81813-0.47864
   5  -4  -613769.33 1169.76   1 0.08983 0.79534 0.55668-0.28522 0.82589-0.53490
   5  -4  -5 3459.06  611.59   1 0.12720 0.76154 0.53806-0.26655 0.83328-0.59079
   5  -4  -4 6537.02 1046.54   1 0.16899 0.72334 0.51595-0.24440 0.83981-0.64582
   5  -4  -3  980.82  716.90   1 0.21507 0.68080 0.48980-0.21777 0.84492-0.69937
   5  -4  -2 7789.86  815.67   1 0.26580 0.63365 0.45915-0.18716 0.84769-0.75066
   5  -3  -9 1444.79 1245.95   1 0.02910 0.84531 0.58464-0.38127 0.81080-0.37432
   5  -3  -8 2092.65 1904.60   1 0.05419 0.82380 0.57342-0.37001 0.81749-0.42951
   5  -3  -711112.82 1048.17   1 0.08294 0.79863 0.55999-0.35652 0.82437-0.48488
   5  -3  -6 1652.10  754.07   1 0.11551 0.76965 0.54400-0.34048 0.83112-0.54014
   5  -3  -5  555.38  288.48   1 0.15202 0.73672 0.52509-0.32153 0.83738-0.59489
   5  -3  -411586.38 1019.07   1 0.19227 0.70000 0.50288-0.29878 0.84273-0.64866
   5  -3  -3 2630.54  455.12   1 0.23684 0.65901 0.47692-0.27286 0.84646-0.70092
   5  -3  -2  308.07  298.22   1 0.28527 0.61416 0.44680-0.24278 0.84796-0.75093
   5  -3  -142654.38 2322.27   1 0.33729 0.56572 0.41211-0.20814 0.84643-0.79791
   5  -3   031924.26 1840.78   1 0.39245 0.51414 0.37249-0.16856 0.84100-0.84100
   5  -2  -8 3128.45  563.79   1 0.08444 0.79355 0.55927-0.42379 0.82470-0.43672
   5  -2  -7 1218.34  693.25   1 0.11287 0.76869 0.54532-0.40979 0.83062-0.49113
   5  -2  -611466.14 1056.27   1 0.14487 0.74028 0.52888-0.39330 0.83627-0.54528
   5  -2  -510442.46 1197.82   1 0.18048 0.70824 0.50962-0.37400 0.84128-0.59879
   5  -2  -418183.40 1331.57   1 0.21943 0.67281 0.48725-0.35114 0.84527-0.65120
   5  -2  -312731.17 1076.23   1 0.26228 0.63354 0.46134-0.32527 0.84759-0.70204
   5  -2  -2 5709.75  642.05   1 0.30849 0.59091 0.43162-0.29558 0.84769-0.75066
   5  -2  -1 6509.63 1067.83   1 0.35774 0.54524 0.39777-0.26178 0.84489-0.79637
   5  -2   0 7184.69  771.37   1 0.40949 0.49707 0.36003-0.22410 0.83829-0.83829
   5  -2   118262.75 1261.77   1 0.46323 0.44693 0.31735-0.18141 0.82749-0.87600
   5  -2   2 2905.82 2262.25   1 0.51812 0.39562 0.27011-0.13416 0.81156-0.90858
   5  -1  -9  389.84  287.32   1 0.09328 0.78112 0.55500-0.48751 0.82663-0.39015
   5  -1  -8 1884.49 1082.40   1 0.11808 0.75990 0.54270-0.47516 0.83161-0.44363
   5  -1  -7 7119.51  793.38   1 0.14612 0.73544 0.52822-0.46062 0.83647-0.49698
   5  -1  -6  387.04  402.82   1 0.17747 0.70767 0.51129-0.44365 0.84091-0.54992
   5  -1  -5 2600.58 1581.74   1 0.21175 0.67688 0.49174-0.42355 0.84463-0.60205
   5  -1  -4 3586.63 1620.52   1 0.24973 0.64248 0.46909-0.40095 0.84713-0.65306
   5  -1  -3 1970.92  550.21   1 0.29084 0.60494 0.44320-0.37510 0.84796-0.70241
   5  -1  -2 3596.53 1000.86   1 0.33485 0.56452 0.41379-0.34573 0.84658-0.74955
   5  -1  -111615.45  866.57   1 0.38141 0.52154 0.38067-0.31265 0.84241-0.79390
   5  -1   0 4634.47 1012.66   1 0.43004 0.47653 0.34411-0.27614 0.83469-0.83469
   5  -1   135887.00 2954.15   1 0.48014 0.43002 0.30321-0.23524 0.82314-0.87165
   5  -1   220354.09 1998.53   1 0.53102 0.38273 0.25841-0.19043 0.80702-0.90404
   5  -1   3 5022.50  936.97   1 0.58184 0.33550 0.20984-0.14186 0.78579-0.93132
   5   0  -9  910.52  496.29   1 0.13019 0.74420 0.53652-0.53696 0.83381-0.39733
   5   0  -810946.83 1826.20   1 0.15473 0.72325 0.52365-0.52404 0.83779-0.44981
   5   0  -7 6750.94  812.08   1 0.18229 0.69926 0.50862-0.50897 0.84150-0.50201
   5   0  -6 3565.21 2002.90   1 0.21242 0.67260 0.49135-0.49110 0.84469-0.55359
   5   0  -5  411.44  327.73   1 0.24609 0.64250 0.47132-0.47111 0.84696-0.60438
   5   0  -4 1440.42  493.21   1 0.28267 0.60950 0.44846-0.44830 0.84795-0.65389
   5   0  -3 1713.01  413.95   1 0.32199 0.57377 0.42257-0.42245 0.84723-0.70168
   5   0  -2 2160.17  491.07   1 0.36378 0.53556 0.39346-0.39338 0.84433-0.74730
   5   0  -1  572.77  261.48   1 0.40775 0.49523 0.36136-0.36137 0.83857-0.79006
   5   0   0 8801.40  912.75   1 0.45329 0.45328 0.32550-0.32550 0.82983-0.82983
   5   0   1  623.13  491.07   1 0.49994 0.41022 0.28619-0.28619 0.81743-0.86594
   5   0   220300.34 1349.05   1 0.54707 0.36669 0.24352-0.24351 0.80091-0.89793
   5   0   3 7381.23 1296.81   1 0.59450 0.32380 0.19855-0.19852 0.77922-0.92508
   5   0   4 2325.17 1251.54   1 0.64037 0.28148 0.14970-0.14966 0.75336-0.94784
   5   0   5 1024.18  413.34   1 0.68441 0.24098 0.09826-0.09821 0.72247-0.96557
   5   1  -9  479.78  347.49   1 0.16985 0.70454 0.51548-0.58386 0.83993-0.40344
   5   1  -8 2301.18  584.40   1 0.19337 0.68445 0.50226-0.56990 0.84285-0.45472
   5   1  -7 4282.54 2957.00   1 0.22039 0.66101 0.48669-0.55438 0.84534-0.50573
   5   1  -6  241.42  401.80   1 0.25019 0.63479 0.46881-0.53654 0.84715-0.55605
   5   1  -5 3242.56  613.99   1 0.28270 0.60587 0.44845-0.51622 0.84795-0.60537
   5   1  -4 5925.19  708.71   1 0.31777 0.57438 0.42542-0.49323 0.84740-0.65334
   5   1  -3 1297.46 1057.27   1 0.35521 0.54052 0.39957-0.46742 0.84511-0.69956
   5   1  -2 2741.32 1686.93   1 0.39474 0.50457 0.37078-0.43867 0.84068-0.74365
   5   1  -110525.60  849.58   1 0.43612 0.46686 0.33930-0.40727 0.83350-0.78499
   5   1   0 3425.47 2117.15   1 0.47866 0.42791 0.30446-0.37243 0.82354-0.82354
   5   1   133137.40 2803.12   1 0.52201 0.38816 0.26661-0.33457 0.81023-0.85874
   5   1   220465.39 1377.03   1 0.56557 0.34819 0.22585-0.29380 0.79320-0.89021
   5   1   3 5248.70 1030.83   1 0.60936 0.30895 0.18318-0.25119 0.77147-0.91733
   5   1   4 3084.58  986.45   1 0.65149 0.27038 0.13717-0.20517 0.74618-0.94066
   5   1   5  616.89  457.80   1 0.69190 0.23352 0.08900-0.15699 0.71652-0.95961
   5   1   6  952.45  321.70   1 0.72993 0.19903 0.03906-0.10704 0.68243-0.97415
   5   2  -8 3850.31  630.71   1 0.23484 0.64296 0.47812-0.61374 0.84634-0.45822
   5   2  -7 2076.19  488.71   1 0.26111 0.62027 0.46208-0.59774 0.84756-0.50794
   5   2  -610826.22 2116.20   1 0.28990 0.59506 0.44381-0.57952 0.84796-0.55686
   5   2  -511223.92 1098.21   1 0.32110 0.56744 0.42317-0.55892 0.84727-0.60469
   5   2  -419321.58 1943.51   1 0.35455 0.53758 0.40004-0.53583 0.84517-0.65110
   5   2  -310072.96 1750.46   1 0.39003 0.50567 0.37430-0.51012 0.84132-0.69577
   5   2  -2 5961.43  728.23   1 0.42744 0.47196 0.34615-0.48209 0.83518-0.73816
   5   2  -1 6921.69  732.23   1 0.46604 0.43695 0.31503-0.45097 0.82680-0.77829
   5   2   0 5463.41 2875.84   1 0.50565 0.40093 0.28120-0.41713 0.81565-0.81565
   5   2   117513.87 2005.39   1 0.54579 0.36438 0.24472-0.38064 0.80141-0.84992
   5   2   2 5047.55 1378.14   1 0.58596 0.32780 0.20572-0.34164 0.78381-0.88083
   5   2   3 5452.02 1324.98   1 0.62631 0.29203 0.16513-0.30118 0.76191-0.90777
   5   2   418638.08 3521.31   1 0.66491 0.25697 0.12165-0.25769 0.73697-0.93145
   5   2   5 4789.08 1621.98   1 0.70190 0.22354 0.07635-0.21237 0.70820-0.95130
   5   2   6 4885.57 1637.34   1 0.73672 0.19226 0.02957-0.16558 0.67557-0.96729
   5   2   7 6508.23 2721.21   1 0.76901 0.16274-0.01664-0.11920 0.63904-0.97946
   5   3  -710905.16 1109.45   1 0.30345 0.57790 0.43496-0.63860 0.84781-0.50819
   5   3  -6 3456.87  604.71   1 0.33107 0.55385 0.41638-0.62007 0.84679-0.55570
   5   3  -5  499.04  322.53   1 0.36083 0.52768 0.39557-0.59929 0.84461-0.60203
   5   3  -413213.77 1197.79   1 0.39255 0.49954 0.37242-0.57618 0.84098-0.64692
   5   3  -3 2044.84 1941.46   1 0.42623 0.46958 0.34709-0.55101 0.83540-0.68987
   5   3  -2  320.74  339.08   1 0.46108 0.43832 0.31912-0.52303 0.82801-0.73099
   5   3  -143010.26 2380.36   1 0.49706 0.40594 0.28871-0.49261 0.81830-0.76980
   5   3   030462.32 2867.73   1 0.53377 0.37281 0.25588-0.45978 0.80601-0.80601
   5   3   1   84.51  344.35   1 0.57082 0.33936 0.22074-0.42463 0.79087-0.83938
   5   3   2 6484.21 1279.21   1 0.60847 0.30634 0.18412-0.38821 0.77195-0.86919
   5   3   4 1414.94  771.72   1 0.68008 0.24182 0.10355-0.30762 0.72581-0.92029
   5   3   5 3402.72 1446.11   1 0.71383 0.21162 0.06082-0.26488 0.69769-0.94079
   5   3   6 1019.40  556.11   1 0.74577 0.18253 0.01844-0.22230 0.66597-0.95776
   5   3   7 1536.59  645.00   1 0.77518 0.15657-0.02647-0.17737 0.63121-0.97163
   5   3   8 1293.65  618.23   1 0.80183 0.13337-0.07201-0.13180 0.59323-0.98228
   5   4  -614335.11 1271.63   1 0.37329 0.51161 0.38660-0.65826 0.84335-0.55225
   5   4  -5 4660.47  730.63   1 0.40182 0.48680 0.36586-0.63775 0.83948-0.59693
   5   4  -4 7256.02 1257.84   1 0.43165 0.46057 0.34283-0.61472 0.83438-0.64034
   5   4  -3  835.57  924.26   1 0.46294 0.43288 0.31760-0.58948 0.82756-0.68204
   5   4  -2 9698.27 1029.76   1 0.49541 0.40400 0.29014-0.56201 0.81880-0.72178
   5   4  -1 2489.03 2304.67   1 0.52876 0.37424 0.26048-0.53235 0.80784-0.75933
   5   4   0 2727.40 1452.49   1 0.56264 0.34395 0.22869-0.50055 0.79447-0.79447
   5   4   1 1629.85  836.87   1 0.59746 0.31382 0.19552-0.46766 0.77772-0.82634
   5   4   2 3815.05 1003.91   1 0.63125 0.28357 0.15975-0.43189 0.75897-0.85621
   5   4   3 2033.85  649.24   1 0.66441 0.25396 0.12224-0.39436 0.73733-0.88319
   5   4   4 9879.17 3029.09   1 0.69653 0.22540 0.08318-0.35529 0.71272-0.90719
   5   4   5 2626.82 1169.19   1 0.72721 0.19827 0.04281-0.31491 0.68510-0.92820
   5   4   6 7149.44 2212.25   1 0.75630 0.17199 0.00289-0.27475 0.65424-0.94603
   5   5  -4 2930.58 2449.10   1 0.47086 0.42136 0.31102-0.65087 0.82559-0.63155
   5   5  -316727.43 1330.37   1 0.49997 0.39585 0.28617-0.62602 0.81742-0.67189
   5   5  -210259.40 1058.33   1 0.53003 0.36938 0.25932-0.59916 0.80738-0.71036
   5   5  -1 2454.91 1998.01   1 0.56077 0.34223 0.23049-0.57032 0.79527-0.74676
   5   5   0  608.80  533.55   1 0.59271 0.31504 0.20037-0.54056 0.78012-0.78012
   5   5   0  486.56  601.56   1 0.26789 0.63803-0.66321 0.32332 0.69884-0.69884
   5   5   116157.29 1487.28   1 0.62381 0.28748 0.16783-0.50801 0.76337-0.81199
   5   5   2 4535.11 1164.49   1 0.65460 0.26024 0.13361-0.47378 0.74410-0.84134
   5   5   2 4215.40  699.83   1 0.32324 0.58977-0.71808 0.37832 0.61633-0.71346
   5   5   3  745.91  350.69   1 0.68473 0.23367 0.09788-0.43804 0.72222-0.86808
   5   5   3 1073.25  457.71   1 0.34919 0.56824-0.74181 0.40161 0.57252-0.71819
   5   5   4  466.98  381.01   1 0.37342 0.54759-0.76275 0.42257 0.52797-0.72220
   5   5   5  733.62 1206.46   1 0.39612 0.52847-0.78108 0.44091 0.48269-0.72547
  -5  -6   5  947.74 1112.18   1-0.12295-0.76555 0.44993-0.04208-0.88455 0.64199
  -5  -6   4 4334.89 2577.96   1-0.15104-0.74103 0.48568-0.07784-0.86098 0.66693
  -5  -6   322110.04 2062.39   1-0.17959-0.71605 0.52122-0.11339-0.83431 0.68877
  -5  -6   2 1540.72 2413.24   1-0.20831-0.69091 0.55609-0.14828-0.80459 0.70756
   5   6  -1  590.42  646.84   1 0.22503 0.67738-0.61745 0.20952 0.75373-0.70516
   5   6   016265.40 1490.69   1 0.25316 0.65280-0.64777 0.23991 0.71853-0.71853
   5   6   1 1615.10  491.26   1 0.28062 0.62888-0.67627 0.26847 0.68110-0.72967
   5   6   2 1724.84  618.03   1 0.30719 0.60585-0.70271 0.29497 0.64173-0.73887
   5   6   3 2324.09  641.36   1 0.33271 0.58388-0.72693 0.31926 0.60072-0.74643
   5   6   4  614.05  517.53   1 0.35724 0.56382-0.74891 0.34068 0.55812-0.75235
  -5  -7   415514.61 1345.69   1-0.14878-0.74330 0.48284-0.00704-0.86297 0.66892
  -5  -7   3 1001.42 1309.41   1-0.17557-0.72008 0.51626-0.04047-0.83824 0.69270
  -5  -7   2  618.64  683.82   1-0.20263-0.69660 0.54926-0.07349-0.81071 0.71368
   5   7   137949.42 2453.79   1 0.26975 0.63978-0.66513 0.18935 0.69629-0.74486
;
_shelx_hkl_checksum              92705
_shelx_res_file
;
    357.res created by SHELXL-2014/7
TITL crom91 in p21
CELL  0.71073   3.9310  10.4590  14.6570   90.000   94.201   90.000
ZERR     2.00   0.0020   0.0060   0.0080    0.000    0.014    0.000
LATT  -1
SYMM  - X, 1/2 + Y, - Z
SFAC  C    H    N    O    S
UNIT  28   20   4    6    2
LIST 4 ! automatically inserted. Change 6 to 4 for CHECKCIF!!
temp -173
size 0.26 0.13 0.09
MERG   2
FMAP   2
PLAN   20
eqiv $1 2-x, 0.5+y, 1-z
htab o62  o67
htab c64 o5_$1
MPLA 9 s1 c9 n8 c7 c6 c5 n4 c3 c2 O5
MPLA 6 C61 > C66 O62 O67
MPLA 10 s1 c9 n8 c7 c6 c5 n4 c3 c2 O5
ACTA 50
BOND $h
Conf
htab
L.S.   4
WGHT    0.029600
FVAR      13.11192
MOLE    1
S1    5    0.152531    0.385108    0.046409    11.00000    0.01750    0.01655 =
         0.01426   -0.00122   -0.00033   -0.00115
O62   4    0.998350    1.049957    0.348423    11.00000    0.02741    0.01651 =
         0.02032   -0.00002    0.00260   -0.00599
AFIX 147
H3    2    0.981426    1.030078    0.292748    11.00000   -1.50000
AFIX   0
O5    4    0.874512    0.550199    0.298525    11.00000    0.02129    0.01789 =
         0.01478   -0.00092   -0.00488    0.00346
O67   4    0.814909    0.916538    0.207139    11.00000    0.02491    0.01608 =
         0.01818    0.00252    0.00256   -0.00145
N4    3    0.497153    0.491388    0.179563    11.00000    0.01485    0.01434 =
         0.01205    0.00072    0.00086    0.00157
N8    3    0.236615    0.638831    0.072492    11.00000    0.01729    0.01798 =
         0.01237   -0.00027   -0.00013    0.00065
C2    1    0.343795    0.288455    0.133505    11.00000    0.01544    0.01641 =
         0.01495    0.00095    0.00322   -0.00017
C3    1    0.516966    0.359515    0.197173    11.00000    0.01645    0.01587 =
         0.01438    0.00323    0.00249    0.00290
AFIX  43
H3A   2    0.641182    0.324138    0.249211    11.00000   -1.20000
AFIX   0
C5    1    0.669503    0.585607    0.236988    11.00000    0.01375    0.01731 =
         0.01306   -0.00226    0.00256   -0.00029
C6    1    0.574183    0.713166    0.208510    11.00000    0.01571    0.01186 =
         0.01142    0.00005    0.00326    0.00037
C7    1    0.374644    0.731524    0.128586    11.00000    0.01782    0.01469 =
         0.01442    0.00103    0.00266    0.00164
AFIX  43
H7    2    0.328762    0.817529    0.110836    11.00000   -1.20000
AFIX   0
C9    1    0.304661    0.522506    0.102075    11.00000    0.01238    0.01792 =
         0.01232   -0.00231   -0.00001    0.00084
C21   1    0.301088    0.147182    0.131119    11.00000    0.02201    0.01635 =
         0.02040   -0.00168    0.00113   -0.00186
AFIX 137
H21A  2    0.417681    0.109660    0.186146    11.00000   -1.50000
H21B  2    0.399681    0.112769    0.076735    11.00000   -1.50000
H21C  2    0.057761    0.126026    0.128905    11.00000   -1.50000
AFIX   0
C61   1    0.711597    0.845530    0.355765    11.00000    0.01375    0.01383 =
         0.01502    0.00023    0.00082    0.00201
C62   1    0.862099    0.956158    0.397727    11.00000    0.01440    0.01336 =
         0.01929   -0.00014    0.00092    0.00086
C63   1    0.875861    0.970022    0.492295    11.00000    0.01676    0.01448 =
         0.02152   -0.00476   -0.00184    0.00033
AFIX  43
H63   2    0.982881    1.042864    0.520470    11.00000   -1.20000
AFIX   0
C64   1    0.734001    0.877924    0.545122    11.00000    0.01886    0.02114 =
         0.01444   -0.00218   -0.00065    0.00381
AFIX  43
H64   2    0.746416    0.887792    0.609712    11.00000   -1.20000
AFIX   0
C65   1    0.572531    0.770491    0.505538    11.00000    0.01880    0.01423 =
         0.01914    0.00159    0.00154    0.00173
AFIX  43
H65   2    0.472123    0.708655    0.542714    11.00000   -1.20000
AFIX   0
C66   1    0.560235    0.755033    0.412036    11.00000    0.01683    0.01174 =
         0.01657   -0.00118    0.00059    0.00123
AFIX  43
H66   2    0.448337    0.682448    0.384888    11.00000   -1.20000
AFIX   0
C67   1    0.711177    0.829657    0.256807    11.00000    0.01482    0.01418 =
         0.01602    0.00303    0.00110    0.00288
HKLF 4
REM  crom91 in p21
REM R1 =  0.0313 for    2808 Fo > 4sig(Fo)  and  0.0394 for all    3175 data
REM    183 parameters refined using      1 restraints
END
WGHT      0.0322      0.0000
REM Instructions for potential hydrogen bonds
HTAB O62 O67
EQIV $2 -x, y+1/2, -z
HTAB C7 S1_$2
EQIV $3 x, y-1, z
HTAB C21 O67_$3
REM Highest difference peak  0.349,  deepest hole -0.335,  1-sigma level  0.059
Q1    1   0.4373  0.8802  0.1417  11.00000  0.05    0.35
Q2    1   0.2202  0.8648  0.1106  11.00000  0.05    0.25
Q3    1   0.4789  0.8825  0.0367  11.00000  0.05    0.24
Q4    1   0.0579  0.3779  0.1863  11.00000  0.05    0.24
Q5    1   0.4029  0.5008  0.1357  11.00000  0.05    0.23
Q6    1   0.7730  0.9011  0.3750  11.00000  0.05    0.22
Q7    1   0.4370  0.3896  0.0676  11.00000  0.05    0.22
Q8    1   0.0828  0.2950  0.0988  11.00000  0.05    0.22
Q9    1   0.5838  0.6578  0.2267  11.00000  0.05    0.22
Q10   1   0.6254  0.7754  0.2290  11.00000  0.05    0.22
Q11   1   0.6465  0.1988  0.2359  11.00000  0.05    0.21
Q12   1  -0.1607  0.3924  0.0481  11.00000  0.05    0.21
Q13   1   0.4195  0.3210  0.1604  11.00000  0.05    0.21
Q14   1   0.6753  0.1934  0.3024  11.00000  0.05    0.21
Q15   1   0.3022  0.3422  0.1056  11.00000  0.05    0.21
Q16   1   0.2185  0.4692 -0.0108  11.00000  0.05    0.20
Q17   1   0.8975  0.9601  0.4455  11.00000  0.05    0.20
Q18   1   0.9827  0.8854  0.3497  11.00000  0.05    0.20
Q19   1   0.6861  0.8936  0.1375  11.00000  0.05    0.20
Q20   1   0.0555  0.8974  0.0748  11.00000  0.05    0.20
;
_shelx_res_checksum              3687
loop_
_space_group_symop_operation_xyz
'x, y, z'
'-x, y+1/2, -z'
loop_
_atom_site_type_symbol
_atom_site_label
_atom_site_fract_x
_atom_site_fract_y
_atom_site_fract_z
_atom_site_U_iso_or_equiv
_atom_site_adp_type
_atom_site_calc_flag
_atom_site_occupancy
S S1 0.15253(13) 0.38511(5) 0.04641(4) 0.01618(13) Uani d 1
O O62 0.9984(4) 1.04996(14) 0.34842(12) 0.0214(4) Uani d 1
H H3 0.9814 1.0301 0.2927 0.032 Uiso calc 1
O O5 0.8745(4) 0.55020(15) 0.29853(11) 0.0183(3) Uani d 1
O O67 0.8149(4) 0.91654(14) 0.20714(11) 0.0197(4) Uani d 1
N N4 0.4972(4) 0.49139(17) 0.17956(13) 0.0138(4) Uani d 1
N N8 0.2366(5) 0.63883(18) 0.07249(13) 0.0159(4) Uani d 1
C C2 0.3438(5) 0.2885(2) 0.13351(16) 0.0155(4) Uani d 1
C C3 0.5170(5) 0.3595(2) 0.19717(15) 0.0155(5) Uani d 1
H H3A 0.6412 0.3241 0.2492 0.019 Uiso calc 1
C C5 0.6695(5) 0.5856(2) 0.23699(16) 0.0146(4) Uani d 1
C C6 0.5742(5) 0.7132(2) 0.20851(15) 0.0129(4) Uani d 1
C C7 0.3746(5) 0.7315(2) 0.12859(16) 0.0156(4) Uani d 1
H H7 0.3288 0.8175 0.1108 0.019 Uiso calc 1
C C9 0.3047(5) 0.5225(2) 0.10207(15) 0.0143(4) Uani d 1
C C21 0.3011(6) 0.1472(2) 0.13112(17) 0.0196(5) Uani d 1
H H21A 0.4177 0.1097 0.1861 0.029 Uiso calc 1
H H21B 0.3997 0.1128 0.0767 0.029 Uiso calc 1
H H21C 0.0578 0.1260 0.1289 0.029 Uiso calc 1
C C61 0.7116(5) 0.8455(2) 0.35577(15) 0.0142(4) Uani d 1
C C62 0.8621(5) 0.9562(2) 0.39773(16) 0.0157(5) Uani d 1
C C63 0.8759(5) 0.9700(2) 0.49229(17) 0.0177(5) Uani d 1
H H63 0.9829 1.0429 0.5205 0.021 Uiso calc 1
C C64 0.7340(5) 0.8779(2) 0.54512(15) 0.0182(4) Uani d 1
H H64 0.7464 0.8878 0.6097 0.022 Uiso calc 1
C C65 0.5725(5) 0.7705(2) 0.50554(16) 0.0174(5) Uani d 1
H H65 0.4721 0.7087 0.5427 0.021 Uiso calc 1
C C66 0.5602(5) 0.7550(2) 0.41204(15) 0.0151(4) Uani d 1
H H66 0.4483 0.6824 0.3849 0.018 Uiso calc 1
C C67 0.7112(5) 0.8297(2) 0.25681(15) 0.0150(4) Uani d 1
loop_
_atom_site_aniso_label
_atom_site_aniso_U_11
_atom_site_aniso_U_22
_atom_site_aniso_U_33
_atom_site_aniso_U_12
_atom_site_aniso_U_13
_atom_site_aniso_U_23
S1 0.0175(2) 0.0166(3) 0.0143(2) -0.0011(2) -0.00033(18) -0.0012(2)
O62 0.0274(8) 0.0165(8) 0.0203(9) -0.0060(7) 0.0026(7) 0.0000(7)
O5 0.0213(8) 0.0179(8) 0.0148(8) 0.0035(7) -0.0049(7) -0.0009(7)
O67 0.0249(8) 0.0161(9) 0.0182(8) -0.0015(6) 0.0026(6) 0.0025(6)
N4 0.0149(8) 0.0143(10) 0.0121(9) 0.0016(7) 0.0009(7) 0.0007(7)
N8 0.0173(9) 0.0180(10) 0.0124(9) 0.0006(8) -0.0001(7) -0.0003(8)
C2 0.0154(10) 0.0164(11) 0.0150(11) -0.0002(9) 0.0032(8) 0.0009(9)
C3 0.0165(9) 0.0159(12) 0.0144(11) 0.0029(8) 0.0025(8) 0.0032(8)
C5 0.0138(9) 0.0173(11) 0.0131(11) -0.0003(9) 0.0026(8) -0.0023(9)
C6 0.0157(9) 0.0119(10) 0.0114(11) 0.0004(8) 0.0033(8) 0.0001(8)
C7 0.0178(10) 0.0147(11) 0.0144(11) 0.0016(9) 0.0027(8) 0.0010(8)
C9 0.0124(9) 0.0179(11) 0.0123(11) 0.0008(9) 0.0000(8) -0.0023(9)
C21 0.0220(11) 0.0163(11) 0.0204(13) -0.0019(10) 0.0011(9) -0.0017(10)
C61 0.0138(9) 0.0138(11) 0.0150(11) 0.0020(8) 0.0008(8) 0.0002(8)
C62 0.0144(9) 0.0134(11) 0.0193(12) 0.0009(8) 0.0009(8) -0.0001(8)
C63 0.0168(10) 0.0145(11) 0.0215(12) 0.0003(9) -0.0018(9) -0.0048(9)
C64 0.0189(9) 0.0211(11) 0.0144(10) 0.0038(12) -0.0006(8) -0.0022(11)
C65 0.0188(10) 0.0142(11) 0.0191(11) 0.0017(9) 0.0015(9) 0.0016(9)
C66 0.0168(10) 0.0117(10) 0.0166(11) 0.0012(8) 0.0006(8) -0.0012(8)
C67 0.0148(10) 0.0142(10) 0.0160(11) 0.0029(8) 0.0011(9) 0.0030(9)
loop_
_atom_type_symbol
_atom_type_description
_atom_type_scat_dispersion_real
_atom_type_scat_dispersion_imag
_atom_type_scat_source
C C 0.0033 0.0016 'International Tables Vol C Tables 4.2.6.8 and 6.1.1.4'
H H 0.0000 0.0000 'International Tables Vol C Tables 4.2.6.8 and 6.1.1.4'
N N 0.0061 0.0033 'International Tables Vol C Tables 4.2.6.8 and 6.1.1.4'
O O 0.0106 0.0060 'International Tables Vol C Tables 4.2.6.8 and 6.1.1.4'
S S 0.1246 0.1234 'International Tables Vol C Tables 4.2.6.8 and 6.1.1.4'
loop_
_geom_angle_atom_site_label_1
_geom_angle_atom_site_label_2
_geom_angle_atom_site_label_3
_geom_angle
C9 S1 C2 91.17(12)
C62 O62 H3 109.5
C9 N4 C3 114.16(19)
C9 N4 C5 122.48(18)
C3 N4 C5 123.4(2)
C9 N8 C7 113.5(2)
C3 C2 C21 128.2(2)
C3 C2 S1 110.87(17)
C21 C2 S1 120.92(18)
C2 C3 N4 113.5(2)
C2 C3 H3A 123.3
N4 C3 H3A 123.3
O5 C5 N4 118.9(2)
O5 C5 C6 129.7(2)
N4 C5 C6 111.41(19)
C7 C6 C5 119.8(2)
C7 C6 C67 117.0(2)
C5 C6 C67 122.88(19)
N8 C7 C6 126.4(2)
N8 C7 H7 116.8
C6 C7 H7 116.8
N8 C9 N4 125.9(2)
N8 C9 S1 123.84(17)
N4 C9 S1 110.26(16)
C2 C21 H21A 109.5
C2 C21 H21B 109.5
H21A C21 H21B 109.5
C2 C21 H21C 109.5
H21A C21 H21C 109.5
H21B C21 H21C 109.5
C66 C61 C62 118.2(2)
C66 C61 C67 122.2(2)
C62 C61 C67 119.57(19)
O62 C62 C63 118.0(2)
O62 C62 C61 121.9(2)
C63 C62 C61 120.10(19)
C64 C63 C62 119.9(2)
C64 C63 H63 120.0
C62 C63 H63 120.0
C63 C64 C65 121.3(2)
C63 C64 H64 119.4
C65 C64 H64 119.4
C66 C65 C64 119.3(2)
C66 C65 H65 120.3
C64 C65 H65 120.3
C65 C66 C61 121.1(2)
C65 C66 H66 119.5
C61 C66 H66 119.5
O67 C67 C61 121.3(2)
O67 C67 C6 116.06(19)
C61 C67 C6 122.63(18)
loop_
_geom_bond_atom_site_label_1
_geom_bond_atom_site_label_2
_geom_bond_distance
S1 C9 1.737(2)
S1 C2 1.754(2)
O62 C62 1.352(3)
O62 H3 0.8400
O5 C5 1.222(3)
O67 C67 1.251(3)
N4 C9 1.357(3)
N4 C3 1.404(3)
N4 C5 1.434(3)
N8 C9 1.313(3)
N8 C7 1.358(3)
C2 C3 1.339(3)
C2 C21 1.487(3)
C3 H3A 0.9500
C5 C6 1.439(3)
C6 C7 1.375(3)
C6 C67 1.490(3)
C7 H7 0.9500
C21 H21A 0.9800
C21 H21B 0.9800
C21 H21C 0.9800
C61 C66 1.415(3)
C61 C62 1.419(3)
C61 C67 1.460(3)
C62 C63 1.391(3)
C63 C64 1.379(3)
C63 H63 0.9500
C64 C65 1.396(3)
C64 H64 0.9500
C65 C66 1.377(3)
C65 H65 0.9500
C66 H66 0.9500
loop_
_geom_hbond_atom_site_label_D
_geom_hbond_atom_site_label_H
_geom_hbond_atom_site_label_A
_geom_hbond_site_symmetry_A
_geom_hbond_distance_DH
_geom_hbond_distance_HA
_geom_hbond_distance_DA
_geom_hbond_angle_DHA
O62 H3 O67 . 0.84 1.81 2.557(2) 146
C64 H64 O5 2_756 0.95 2.57 3.217(3) 125
loop_
_geom_torsion_atom_site_label_1
_geom_torsion_atom_site_label_2
_geom_torsion_atom_site_label_3
_geom_torsion_atom_site_label_4
_geom_torsion
C9 S1 C2 C3 -1.90(17)
C9 S1 C2 C21 177.56(18)
C21 C2 C3 N4 -178.26(19)
S1 C2 C3 N4 1.1(2)
C9 N4 C3 C2 0.5(3)
C5 N4 C3 C2 -178.30(19)
C9 N4 C5 O5 -170.18(19)
C3 N4 C5 O5 8.6(3)
C9 N4 C5 C6 7.7(3)
C3 N4 C5 C6 -173.54(18)
O5 C5 C6 C7 170.2(2)
N4 C5 C6 C7 -7.4(3)
O5 C5 C6 C67 -3.2(4)
N4 C5 C6 C67 179.16(18)
C9 N8 C7 C6 1.3(3)
C5 C6 C7 N8 3.4(3)
C67 C6 C7 N8 177.25(19)
C7 N8 C9 N4 -1.1(3)
C7 N8 C9 S1 178.13(16)
C3 N4 C9 N8 177.37(19)
C5 N4 C9 N8 -3.8(3)
C3 N4 C9 S1 -2.0(2)
C5 N4 C9 S1 176.89(15)
C2 S1 C9 N8 -177.19(19)
C2 S1 C9 N4 2.17(15)
C66 C61 C62 O62 -176.97(19)
C67 C61 C62 O62 1.8(3)
C66 C61 C62 C63 3.7(3)
C67 C61 C62 C63 -177.5(2)
O62 C62 C63 C64 178.71(19)
C61 C62 C63 C64 -1.9(3)
C62 C63 C64 C65 -0.6(3)
C63 C64 C65 C66 1.2(3)
C64 C65 C66 C61 0.7(3)
C62 C61 C66 C65 -3.1(3)
C67 C61 C66 C65 178.16(19)
C66 C61 C67 O67 172.6(2)
C62 C61 C67 O67 -6.1(3)
C66 C61 C67 C6 -4.5(3)
C62 C61 C67 C6 176.78(18)
C7 C6 C67 O67 -40.7(3)
C5 C6 C67 O67 133.0(2)
C7 C6 C67 C61 136.6(2)
C5 C6 C67 C61 -49.8(3)

_cod_database_fobs_code 2240841
