#------------------------------------------------------------------------------
#$Date: 2019-10-28 09:23:29 +0200 (Mon, 28 Oct 2019) $
#$Revision: 219800 $
#$URL: file:///home/coder/svn-repositories/cod/cif/2/24/02/2240212.cif $
#------------------------------------------------------------------------------
#
# This file is available in the Crystallography Open Database (COD),
# http://www.crystallography.net/. The original data for this entry
# were provided by IUCr Journals, http://journals.iucr.org/.
#
# The file may be used within the scientific community so long as
# proper attribution is given to the journal article from which the
# data were obtained.
#
data_2240212
loop_
_publ_author_name
'Hennings, Erik'
'Schmidt, Horst'
'Voigt, Wolfgang'
_publ_section_title
;
 Crystal structures of ZnCl~2~&#x00B7;2.5H~2~O, ZnCl~2~&#x00B7;3H~2~O and
 ZnCl~2~&#x00B7;4.5H~2~O
;
_journal_issue                   12
_journal_name_full               'Acta Crystallographica Section E'
_journal_page_first              515
_journal_page_last               518
_journal_paper_doi               10.1107/S1600536814024738
_journal_volume                  70
_journal_year                    2014
_chemical_formula_iupac          '[Zn (H2 O)6] [Zn Cl4]'
_chemical_formula_moiety         'H12 O6 Zn 2+, Cl4 Zn 2-'
_chemical_formula_sum            'Cl4 H12 O6 Zn2'
_chemical_formula_weight         380.68
_chemical_name_common            'Zinc chloride trihydrate'
_chemical_name_systematic
;
Dexaaquazinc tetrachloridozinc
;
_space_group_crystal_system      triclinic
_space_group_IT_number           2
_space_group_name_Hall           '-P 1'
_space_group_name_H-M_alt        'P -1'
_symmetry_space_group_name_Hall  '-P 1'
_symmetry_space_group_name_H-M   'P -1'
_atom_sites_solution_hydrogens   difmap
_audit_creation_method           SHELXL-2012
_cell_angle_alpha                90.910(6)
_cell_angle_beta                 99.146(6)
_cell_angle_gamma                95.574(6)
_cell_formula_units_Z            2
_cell_length_a                   6.4339(5)
_cell_length_b                   6.5202(5)
_cell_length_c                   14.2769(11)
_cell_measurement_reflns_used    16445
_cell_measurement_temperature    150
_cell_measurement_theta_max      29.7
_cell_measurement_theta_min      2.89
_cell_volume                     588.21(8)
_computing_cell_refinement
;
X-AREA (Stoe & Cie, 2009)
;
_computing_data_collection
;
X-AREA (Stoe & Cie, 2009)
;
_computing_data_reduction
;
X-RED (Stoe & Cie, 2009)
;
_computing_molecular_graphics
;
DIAMOND (Brandenburg, 2006)
;
_computing_publication_material
;
publCIF (Westrip, 2010)
;
_computing_structure_refinement
;
SHELXL2012 (Sheldrick, 2008)
;
_computing_structure_solution
;
SHELXS97 (Sheldrick, 2008)
;
_diffrn_ambient_temperature      150
_diffrn_detector_area_resol_mean 6.67
_diffrn_measured_fraction_theta_full 0.991
_diffrn_measured_fraction_theta_max 0.993
_diffrn_measurement_device_type  'Stoe IPDS 2T'
_diffrn_measurement_method       'rotation method'
_diffrn_radiation_type           MoK\a
_diffrn_radiation_wavelength     0.71073
_diffrn_reflns_av_R_equivalents  0.0909
_diffrn_reflns_limit_h_max       8
_diffrn_reflns_limit_h_min       -8
_diffrn_reflns_limit_k_max       8
_diffrn_reflns_limit_k_min       -8
_diffrn_reflns_limit_l_max       19
_diffrn_reflns_limit_l_min       0
_diffrn_reflns_number            13092
_diffrn_reflns_theta_full        25.242
_diffrn_reflns_theta_max         29.516
_diffrn_reflns_theta_min         2.892
_exptl_absorpt_coefficient_mu    4.976
_exptl_absorpt_correction_T_max  0.4411
_exptl_absorpt_correction_T_min  0.0925
_exptl_absorpt_correction_type   integration
_exptl_absorpt_process_details
;
(Coppens, 1970)
;
_exptl_crystal_colour            colourless
_exptl_crystal_density_diffrn    2.149
_exptl_crystal_density_method    'not measured'
_exptl_crystal_description       prism
_exptl_crystal_F_000             376
_exptl_crystal_size_max          0.60
_exptl_crystal_size_mid          0.42
_exptl_crystal_size_min          0.16
_refine_diff_density_max         0.947
_refine_diff_density_min         -0.953
_refine_ls_extinction_coef       0.027(3)
_refine_ls_extinction_expression Fc^*^=kFc[1+0.001xFc^2^\l^3^/sin(2\q)]^-1/4^
_refine_ls_extinction_method     SHELXL
_refine_ls_goodness_of_fit_ref   1.020
_refine_ls_hydrogen_treatment    refall
_refine_ls_matrix_type           full
_refine_ls_number_parameters     161
_refine_ls_number_reflns         3239
_refine_ls_number_restraints     18
_refine_ls_restrained_S_all      1.018
_refine_ls_R_factor_all          0.0292
_refine_ls_R_factor_gt           0.0285
_refine_ls_shift/su_max          0.001
_refine_ls_shift/su_mean         0.000
_refine_ls_structure_factor_coef Fsqd
_refine_ls_weighting_details
;
 w=1/[\s^2^(Fo^2^)+(0.0816P)^2^]
 where P=(Fo^2^+2Fc^2^)/3
;
_refine_ls_weighting_scheme      calc
_refine_ls_wR_factor_gt          0.0879
_refine_ls_wR_factor_ref         0.0887
_reflns_number_gt                3120
_reflns_number_total             3239
_reflns_threshold_expression     I>2\s(I)
_cod_data_source_file            wm5081sup1.cif
_cod_data_source_block           zncl2_3H2O_150K
_cod_depositor_comments
;

2019-10-28
Formula fixed to values more according to usual
chemical conventions and according to given Z value    miguel
;
_cod_original_formula_sum            'Cl2 H6 O3 Zn'
_cod_database_code               2240212
_cod_database_fobs_code          2240212
#BEGIN Tags that were not found in dictionaries:
_shelx_space_group_comment
;
The symmetry employed for this shelxl refinement is uniquely defined
by the following loop, which should always be used as a source of
symmetry information in preference to the above space-group names.
They are only intended as comments.
;
_shelx_hkl_file
;
   1   0   0   28.35    0.96   0
   3   0   0 3659.32    4.88   0
   4   0   0  101.55    1.04   0
   5   0   0 1000.53    2.23   0
   6   0   0    5.46    0.64   0
   7   0   0    2.46    0.65   0
   8   0   0  364.35    1.52   0
  -8   1   0   36.65    0.88   0
  -7   1   0  933.41    2.20   0
  -6   1   0   91.32    0.86   0
  -5   1   0   63.63    0.88   0
  -4   1   0  932.69    2.97   0
  -3   1   0    2.69    0.64   0
  -2   1   0   38.98    1.19   0
   0   1   0   19.95    0.83   0
   2   1   0  485.50    2.52   0
   3   1   0 3731.08    4.75   0
   4   1   0  159.09    1.21   0
   5   1   0   16.79    0.81   0
   6   1   0  885.54    2.11   0
   7   1   0   19.80    0.84   0
   8   1   0   51.37    0.85   0
  -8   2   0  253.11    1.38   0
  -7   2   0    1.17    0.75   0
  -6   2   0  228.01    1.66   0
  -5   2   0  764.26    2.58   0
  -4   2   0  163.92    1.39   0
  -3   2   0 2957.80    5.03   0
  -2   2   0  672.30    2.83   0
  -1   2   0 1295.40    4.57   0
   1   2   0 1562.83    4.12   0
   3   2   0  405.94    2.01   0
   4   2   0  168.12    1.32   0
   5   2   0 1401.36    3.17   0
   6   2   0   45.43    0.86   0
   7   2   0  315.66    1.40   0
   8   2   0  139.75    1.13   0
  -8   3   0  125.47    1.05   0
  -7   3   0  672.78    2.59   0
  -6   3   0    2.16    0.72   0
  -5   3   0 1393.20    3.14   0
  -4   3   0  982.63    2.68   0
  -3   3   0    8.33    0.92   0
  -1   3   0  386.86    2.23   0
   0   3   0  718.25    2.19   0
   1   3   0 2107.05    4.14   0
   2   3   0  725.20    2.40   0
   3   3   0 2275.13    4.04   0
   4   3   0  562.16    2.03   0
   5   3   0    8.16    0.81   0
   6   3   0  587.59    2.24   0
   7   3   0  192.56    1.24   0
  -8   4   0   12.23    0.70   0
  -7   4   0   76.21    1.23   0
  -6   4   0   32.55    0.94   0
  -5   4   0   90.24    1.08   0
  -4   4   0  129.70    1.21   0
  -3   4   0   62.73    1.01   0
  -2   4   0   95.59    1.16   0
  -1   4   0 1653.90    2.96   0
   0   4   0  322.78    1.43   0
   1   4   0 1489.96    3.65   0
   2   4   0 3310.02    4.30   0
   3   4   0  218.94    1.38   0
   4   4   0 1348.72    3.05   0
   5   4   0  368.79    1.71   0
   6   4   0  151.91    1.37   0
   7   4   0  262.38    1.43   0
  -7   5   0  202.08    1.48   0
  -6   5   0  289.21    1.65   0
  -5   5   0 1030.04    2.73   0
  -4   5   0  289.60    1.64   0
  -3   5   0   79.91    1.15   0
  -2   5   0 1250.41    3.29   0
  -1   5   0  182.48    1.16   0
   0   5   0  493.35    1.60   0
   1   5   0  124.15    1.35   0
   2   5   0   27.76    0.97   0
   3   5   0  744.75    2.26   0
   4   5   0   15.05    0.88   0
   5   5   0  264.21    1.50   0
   6   5   0   97.33    1.16   0
  -7   6   0  274.86    1.78   0
  -6   6   0   12.98    0.97   0
  -5   6   0  255.71    1.68   0
  -4   6   0  210.27    1.54   0
  -3   6   0    5.87    0.82   0
  -2   6   0  524.10    1.61   0
  -1   6   0  252.83    1.21   0
   0   6   0   21.75    0.84   0
   1   6   0 1717.62    2.82   0
   2   6   0    5.89    0.81   0
   3   6   0  333.12    1.81   0
   4   6   0  765.06    2.30   0
   5   6   0   43.19    1.02   0
  -6   7   0  339.78    2.02   0
  -5   7   0    9.23    0.90   0
  -4   7   0  385.54    2.06   0
  -3   7   0  120.57    1.08   0
  -2   7   0  400.73    1.50   0
  -1   7   0  175.77    1.13   0
   0   7   0  404.03    1.43   0
   1   7   0  258.92    1.26   0
   2   7   0  317.67    1.42   0
   3   7   0   34.13    1.18   0
   4   7   0  177.69    1.53   0
  -4   8   0    2.08    0.73   0
  -3   8   0    4.10    0.97   0
  -2   8   0   63.57    0.89   0
  -1   8   0    1.51    0.76   0
   0   8   0   22.68    0.80   0
   1   8   0  467.39    1.68   0
   2   8   0    0.85    0.75   0
   3   8   0  508.69    1.93   0
  -1   9   0  242.53    1.26   0
   1  -9   1    1.59    0.70   0
  -3  -8   1   94.85    1.18   0
  -2  -8   1   90.60    1.03   0
  -1  -8   1  235.63    1.34   0
   0  -8   1  612.14    1.77   0
   1  -8   1  200.16    1.11   0
   2  -8   1   49.11    0.93   0
   3  -8   1   67.19    1.02   0
   4  -8   1   82.26    1.11   0
  -4  -7   1   15.16    0.98   0
  -3  -7   1    5.91    0.96   0
  -2  -7   1  270.01    1.28   0
  -1  -7   1   45.46    0.90   0
   0  -7   1  474.93    1.58   0
   1  -7   1   23.39    0.70   0
   2  -7   1   63.63    0.84   0
   3  -7   1    3.48    0.82   0
   4  -7   1  109.17    1.34   0
   5  -7   1   34.85    1.10   0
   6  -7   1   40.14    1.07   0
  -6  -6   1    2.31    0.97   0
  -5  -6   1   77.56    1.13   0
  -4  -6   1  139.97    1.26   0
  -3  -6   1  582.62    2.23   0
  -2  -6   1   45.97    1.04   0
  -1  -6   1    4.44    0.77   0
   0  -6   1 1049.16    2.15   0
   1  -6   1  763.02    1.83   0
   2  -6   1  762.02    1.90   0
   3  -6   1   36.77    1.09   0
   4  -6   1   71.09    1.06   0
   5  -6   1  573.93    2.23   0
   6  -6   1  144.27    1.35   0
   7  -6   1   33.18    1.06   0
  -6  -5   1    6.74    0.94   0
  -5  -5   1   24.40    0.96   0
  -4  -5   1   16.99    0.92   0
  -3  -5   1  196.72    1.31   0
  -2  -5   1   94.27    1.17   0
  -1  -5   1  312.10    1.76   0
   0  -5   1   40.90    0.88   0
   1  -5   1    8.20    0.76   0
   2  -5   1  557.34    2.25   0
   3  -5   1  174.90    1.41   0
   4  -5   1  118.19    1.21   0
   5  -5   1   44.97    0.98   0
   6  -5   1  250.01    1.50   0
   7  -5   1  158.36    1.38   0
  -7  -4   1   33.55    0.89   0
  -6  -4   1   39.09    1.05   0
  -5  -4   1    8.72    0.82   0
  -4  -4   1   55.38    0.93   0
  -3  -4   1  441.01    1.81   0
  -2  -4   1   94.70    1.05   0
  -1  -4   1  835.84    2.59   0
   0  -4   1   78.33    1.29   0
   1  -4   1   19.27    0.93   0
   2  -4   1  972.71    2.81   0
   3  -4   1    2.38    0.74   0
   4  -4   1    9.54    0.74   0
   5  -4   1  378.49    1.78   0
   6  -4   1  137.47    1.26   0
   7  -4   1  147.57    1.34   0
   8  -4   1   41.89    1.17   0
  -8  -3   1  306.33    1.44   0
  -7  -3   1   24.96    0.81   0
  -6  -3   1    6.82    0.86   0
  -5  -3   1  242.27    1.44   0
  -4  -3   1   27.00    0.81   0
  -3  -3   1    1.62    0.65   0
  -2  -3   1 1135.29    2.98   0
  -1  -3   1 1266.52    3.43   0
   0  -3   1  897.14    3.18   0
   1  -3   1 1261.89    3.58   0
   2  -3   1  316.18    1.87   0
   3  -3   1   42.61    1.03   0
   4  -3   1  838.00    2.46   0
   5  -3   1   15.71    0.82   0
   6  -3   1   67.55    0.97   0
   7  -3   1  411.65    2.05   0
   8  -3   1  356.87    1.45   0
  -8  -2   1  246.10    1.36   0
  -7  -2   1   93.68    1.06   0
  -6  -2   1  609.77    1.79   0
  -5  -2   1   44.21    1.02   0
  -4  -2   1   30.39    0.91   0
  -3  -2   1   21.62    0.82   0
  -2  -2   1  423.38    2.02   0
  -1  -2   1  537.81    2.48   0
   0  -2   1  237.91    2.21   0
   1  -2   1 1958.68    4.66   0
   2  -2   1  545.16    2.46   0
   3  -2   1  117.24    1.27   0
   4  -2   1   36.47    0.91   0
   5  -2   1   54.09    1.07   0
   6  -2   1   63.71    1.02   0
   7  -2   1  147.38    1.14   0
   8  -2   1    5.63    0.76   0
  -8  -1   1  274.88    1.36   0
  -7  -1   1   76.04    0.87   0
  -6  -1   1  519.03    1.72   0
  -5  -1   1   20.85    0.69   0
  -4  -1   1  111.20    1.11   0
  -3  -1   1  477.90    2.19   0
  -2  -1   1  936.36    3.27   0
  -1  -1   1  202.07    1.96   0
   0  -1   1  916.42    4.55   0
   1  -1   1 2012.59    5.76   0
   2  -1   1  153.09    1.55   0
   3  -1   1 1159.13    3.35   0
   4  -1   1  322.71    1.87   0
   5  -1   1   38.66    0.96   0
   6  -1   1   27.43    0.73   0
   7  -1   1   99.00    0.98   0
   8  -1   1  159.42    1.14   0
  -8   0   1   77.22    0.96   0
  -7   0   1  224.07    1.18   0
  -6   0   1 1564.15    2.72   0
  -5   0   1  445.68    1.62   0
  -4   0   1  440.00    1.66   0
  -3   0   1  234.89    1.42   0
  -2   0   1 1532.94    3.89   0
  -1   0   1 1410.05    5.69   0
   1   0   1 1067.79    5.50   0
   2   0   1 3581.40    5.75   0
   3   0   1 1819.74    3.49   0
   4   0   1   63.58    0.89   0
   5   0   1   58.02    0.84   0
   6   0   1  359.95    1.46   0
   7   0   1   13.24    0.82   0
   8   0   1   51.93    0.86   0
  -8   1   1    2.02    0.77   0
  -7   1   1   35.38    0.79   0
  -6   1   1  471.64    1.65   0
  -5   1   1  309.75    1.47   0
  -4   1   1 1503.49    3.43   0
  -3   1   1   44.49    0.97   0
  -2   1   1  256.24    2.05   0
  -1   1   1  833.01    4.01   0
   0   1   1  613.49    4.33   0
   1   1   1  266.45    2.29   0
   2   1   1  489.93    2.54   0
   3   1   1  738.57    2.81   0
   4   1   1  151.37    1.31   0
   5   1   1  559.20    1.70   0
   6   1   1   23.39    0.86   0
   7   1   1    6.06    0.85   0
   8   1   1   12.23    0.84   0
  -8   2   1   90.68    1.05   0
  -7   2   1    6.60    0.73   0
  -6   2   1  422.64    1.69   0
  -5   2   1  345.43    1.80   0
  -4   2   1 1348.27    3.33   0
  -3   2   1  100.62    1.18   0
  -2   2   1    2.31    0.80   0
  -1   2   1 2371.31    4.68   0
   0   2   1  729.35    3.67   0
   1   2   1  406.61    2.18   0
   2   2   1   61.62    1.01   0
   3   2   1  348.73    1.77   0
   4   2   1  183.62    1.40   0
   5   2   1  207.81    1.45   0
   6   2   1   89.22    0.90   0
   7   2   1   38.78    0.85   0
   8   2   1  129.38    1.11   0
  -8   3   1  182.39    1.35   0
  -7   3   1  447.01    2.26   0
  -6   3   1    0.82    0.88   0
  -5   3   1   79.35    1.01   0
  -4   3   1 1540.61    3.34   0
  -3   3   1 1134.61    3.09   0
  -2   3   1  736.93    2.62   0
  -1   3   1  771.02    3.12   0
   0   3   1 1135.34    2.76   0
   1   3   1 3973.51    5.15   0
   2   3   1  971.62    2.79   0
   3   3   1  133.69    1.27   0
   4   3   1  103.60    1.07   0
   5   3   1  717.80    2.29   0
   6   3   1  143.71    1.31   0
   7   3   1   98.81    1.00   0
  -8   4   1  159.64    1.31   0
  -7   4   1  139.49    1.40   0
  -6   4   1   67.56    1.05   0
  -5   4   1   86.79    1.09   0
  -4   4   1  388.11    1.76   0
  -3   4   1    3.73    0.74   0
  -2   4   1  734.32    2.65   0
  -1   4   1   45.35    0.76   0
   0   4   1   76.70    0.99   0
   1   4   1  800.03    2.76   0
   2   4   1  927.79    2.68   0
   3   4   1  476.30    1.92   0
   4   4   1  145.38    1.28   0
   5   4   1   16.71    0.87   0
   6   4   1    6.41    0.90   0
   7   4   1  122.00    1.13   0
  -7   5   1  384.52    1.91   0
  -6   5   1  156.66    1.36   0
  -5   5   1   42.21    0.98   0
  -4   5   1  119.84    1.26   0
  -3   5   1  344.50    1.81   0
  -2   5   1  752.42    1.92   0
  -1   5   1   10.96    0.60   0
   0   5   1   13.77    0.70   0
   1   5   1 2218.63    3.93   0
   2   5   1  697.64    2.38   0
   3   5   1  923.57    2.48   0
   4   5   1   51.14    1.04   0
   5   5   1   22.29    0.97   0
   6   5   1   45.70    1.10   0
  -7   6   1   32.18    1.08   0
  -6   6   1  366.42    1.95   0
  -5   6   1  393.51    1.94   0
  -4   6   1   88.03    1.22   0
  -3   6   1    9.15    1.06   0
  -2   6   1  478.35    1.58   0
  -1   6   1  223.59    1.18   0
   0   6   1  247.60    1.18   0
   1   6   1   45.39    0.82   0
   2   6   1  380.22    1.98   0
   3   6   1 1117.97    3.02   0
   4   6   1  518.37    2.14   0
   5   6   1  255.33    1.58   0
  -6   7   1   37.28    1.12   0
  -5   7   1   38.84    1.16   0
  -4   7   1   17.80    0.88   0
  -3   7   1   20.27    0.73   0
  -2   7   1   32.86    0.78   0
  -1   7   1    1.38    0.79   0
   0   7   1  154.64    1.01   0
   1   7   1  105.13    1.03   0
   2   7   1    1.41    0.88   0
   3   7   1  381.52    2.05   0
   4   7   1   84.62    1.33   0
  -4   8   1  168.06    1.35   0
  -3   8   1   35.28    1.01   0
  -2   8   1   57.24    0.88   0
  -1   8   1   97.97    1.06   0
   0   8   1  266.15    1.25   0
   1   8   1    7.24    0.86   0
   2   8   1    1.93    0.97   0
   3   8   1  231.34    1.47   0
  -1   9   1   26.58    0.85   0
  -3  -8   2   19.11    0.97   0
  -2  -8   2  512.40    1.82   0
  -1  -8   2    0.64    0.71   0
   0  -8   2  504.98    1.59   0
   1  -8   2  221.85    1.23   0
   2  -8   2   31.64    0.86   0
   3  -8   2  589.04    2.13   0
   4  -8   2    7.41    0.65   0
  -4  -7   2  238.82    1.63   0
  -3  -7   2  343.37    1.84   0
  -2  -7   2   15.50    0.97   0
  -1  -7   2  775.68    1.95   0
   0  -7   2   80.54    0.97   0
   1  -7   2  268.28    1.22   0
   2  -7   2  297.77    1.24   0
   3  -7   2   55.43    1.15   0
   4  -7   2   68.35    1.14   0
   5  -7   2    7.79    0.77   0
   6  -7   2    5.18    1.07   0
  -6  -6   2   69.04    1.22   0
  -5  -6   2  635.78    2.22   0
  -4  -6   2   25.65    0.98   0
  -3  -6   2   23.25    0.88   0
  -2  -6   2  833.68    2.55   0
  -1  -6   2  365.49    1.94   0
   0  -6   2 1764.75    2.78   0
   1  -6   2    5.55    0.78   0
   2  -6   2  497.52    2.16   0
   3  -6   2 1408.61    3.43   0
   4  -6   2   27.36    0.92   0
   5  -6   2  721.18    2.35   0
   6  -6   2  218.37    1.50   0
  -6  -5   2  195.80    1.46   0
  -5  -5   2  396.81    1.78   0
  -4  -5   2 1854.52    3.41   0
  -3  -5   2  188.42    1.34   0
  -2  -5   2 1137.73    2.86   0
  -1  -5   2 1526.35    3.25   0
   0  -5   2  382.96    1.86   0
   1  -5   2 2774.99    4.71   0
   2  -5   2  247.29    1.75   0
   3  -5   2  307.40    1.65   0
   4  -5   2  218.03    1.50   0
   5  -5   2    5.57    0.78   0
   6  -5   2  329.39    1.69   0
   7  -5   2    2.51    0.91   0
  -7  -4   2   47.42    0.95   0
  -6  -4   2   55.19    1.04   0
  -5  -4   2  456.17    1.82   0
  -4  -4   2   22.49    0.75   0
  -3  -4   2  810.94    2.37   0
  -2  -4   2  902.48    2.47   0
  -1  -4   2    8.80    1.02   0
   0  -4   2 3327.35    4.14   0
   1  -4   2  212.67    1.61   0
   2  -4   2 2534.51    4.40   0
   3  -4   2   53.47    1.06   0
   4  -4   2  309.87    1.81   0
   5  -4   2  717.59    2.25   0
   6  -4   2   66.15    0.97   0
   7  -4   2  178.36    1.50   0
   8  -4   2  204.45    1.73   0
  -8  -3   2   31.06    0.94   0
  -7  -3   2  961.90    2.20   0
  -6  -3   2    2.10    0.81   0
  -5  -3   2 1080.73    2.75   0
  -4  -3   2 1428.61    3.09   0
  -3  -3   2    6.47    0.73   0
  -1  -3   2  324.93    1.73   0
   0  -3   2    3.02    0.83   0
   2  -3   2 1187.48    3.31   0
   4  -3   2  342.54    1.68   0
   5  -3   2   45.26    0.87   0
   6  -3   2  749.09    2.40   0
   7  -3   2   68.67    1.23   0
   8  -3   2   46.03    0.88   0
  -8  -2   2  116.92    1.07   0
  -7  -2   2    6.73    0.67   0
  -6  -2   2  980.34    2.16   0
  -5  -2   2    6.92    0.85   0
  -4  -2   2  530.32    2.03   0
  -3  -2   2  801.15    2.40   0
  -2  -2   2   34.04    0.87   0
  -1  -2   2   27.99    0.77   0
   0  -2   2  186.50    1.67   0
   1  -2   2  445.18    2.59   0
   2  -2   2 1789.35    4.01   0
   3  -2   2  388.59    1.90   0
   4  -2   2 4659.69    5.46   0
   5  -2   2  218.74    1.45   0
   6  -2   2  423.77    2.03   0
   7  -2   2  941.95    2.29   0
   8  -2   2   18.91    0.88   0
  -8  -1   2    3.40    0.74   0
  -7  -1   2  442.97    1.53   0
  -6  -1   2    3.99    0.83   0
  -5  -1   2 1270.99    2.49   0
  -4  -1   2 1134.42    2.53   0
  -3  -1   2 1960.83    3.51   0
  -1  -1   2  457.26    2.77   0
   0  -1   2 3740.58   14.22   0
   2  -1   2 1310.71    3.83   0
   4  -1   2    8.46    0.95   0
   5  -1   2  555.03    2.24   0
   6  -1   2  498.64    1.74   0
   7  -1   2    2.37    0.72   0
   8  -1   2  223.61    1.33   0
  -8   0   2    0.12    0.80   0
  -7   0   2  468.74    1.60   0
  -6   0   2  241.66    1.32   0
  -5   0   2  179.14    1.15   0
  -4   0   2 1681.16    3.10   0
  -3   0   2   23.83    0.71   0
  -2   0   2   32.85    1.14   0
  -1   0   2 3186.31   18.15   0
   0   0   2   14.64    2.26   0
   1   0   2 3428.09    9.07   0
   2   0   2  747.10    3.37   0
   3   0   2   11.70    0.96   0
   4   0   2 4185.74    4.83   0
   5   0   2  280.54    1.34   0
   6   0   2  820.36    2.05   0
   7   0   2  408.85    1.61   0
   8   0   2   33.76    0.82   0
  -8   1   2   87.39    0.99   0
  -7   1   2   17.65    0.74   0
  -6   1   2  368.35    1.48   0
  -5   1   2   27.48    0.81   0
  -4   1   2  952.61    2.94   0
  -3   1   2  866.65    3.08   0
  -2   1   2  359.97    2.22   0
  -1   1   2 2117.39    6.34   0
   0   1   2 4965.44   17.44   0
   1   1   2  368.71    2.64   0
   3   1   2 3281.26    5.23   0
   4   1   2  469.85    2.05   0
   5   1   2 1556.03    3.09   0
   6   1   2  162.74    1.07   0
   7   1   2  218.40    1.24   0
   8   1   2   83.48    0.97   0
  -8   2   2   21.39    0.89   0
  -7   2   2  741.41    2.28   0
  -6   2   2    4.03    0.73   0
  -5   2   2  684.48    2.41   0
  -4   2   2 1783.91    3.73   0
  -3   2   2  397.28    1.98   0
  -2   2   2  990.85    3.22   0
   0   2   2  329.93    2.43   0
   1   2   2 1201.35    3.71   0
   2   2   2  184.17    1.49   0
   3   2   2  150.25    1.36   0
   4   2   2  195.31    1.31   0
   5   2   2   36.79    1.04   0
   6   2   2  717.07    1.94   0
   7   2   2   72.27    0.93   0
   8   2   2   12.03    0.84   0
  -8   3   2    2.64    0.73   0
  -7   3   2   47.13    1.23   0
  -6   3   2  450.50    1.92   0
  -5   3   2  431.81    1.86   0
  -4   3   2 1803.79    3.63   0
  -3   3   2  175.52    1.48   0
  -2   3   2 1403.08    3.58   0
   0   3   2 1987.31    3.57   0
   1   3   2  984.05    3.08   0
   3   3   2   24.01    0.83   0
   4   3   2 1141.22    2.81   0
   5   3   2  309.91    1.60   0
   6   3   2   57.21    1.06   0
   7   3   2  353.73    1.48   0
  -8   4   2  361.23    1.58   0
  -7   4   2  164.00    1.45   0
  -6   4   2   66.54    1.03   0
  -5   4   2 1153.26    2.87   0
  -4   4   2   17.92    0.78   0
  -3   4   2 1210.07    3.16   0
  -2   4   2  166.09    1.54   0
  -1   4   2 1424.66    2.82   0
   0   4   2  268.08    1.40   0
   1   4   2  717.53    2.57   0
   2   4   2  364.31    1.72   0
   3   4   2  260.26    1.46   0
   4   4   2   12.30    0.86   0
   5   4   2  279.55    1.54   0
   6   4   2    2.89    0.85   0
   7   4   2   25.21    0.87   0
  -7   5   2   59.38    1.14   0
  -6   5   2  292.07    1.69   0
  -5   5   2   43.81    1.00   0
  -4   5   2 1300.22    3.16   0
  -3   5   2   40.03    0.97   0
  -2   5   2  921.81    2.13   0
  -1   5   2  615.91    1.82   0
   0   5   2   19.15    0.67   0
   1   5   2  797.75    2.76   0
   2   5   2  866.74    2.66   0
   3   5   2    4.17    0.94   0
   4   5   2 1331.46    3.13   0
   5   5   2  112.29    1.20   0
   6   5   2  258.80    1.70   0
  -7   6   2   17.06    0.99   0
  -6   6   2  622.96    2.36   0
  -5   6   2  330.69    1.82   0
  -4   6   2    2.05    1.01   0
  -3   6   2 2610.83    3.52   0
  -2   6   2    1.93    0.59   0
  -1   6   2 1436.62    2.52   0
   0   6   2  364.34    1.43   0
   1   6   2   34.03    0.86   0
   2   6   2  527.15    2.29   0
   3   6   2   48.77    1.08   0
   4   6   2    4.56    0.83   0
   5   6   2  178.32    1.51   0
  -6   7   2    2.04    1.02   0
  -5   7   2   32.04    1.15   0
  -4   7   2   21.20    0.98   0
  -3   7   2    6.88    0.85   0
  -2   7   2  482.54    1.55   0
  -1   7   2    8.76    0.81   0
   0   7   2  556.94    1.68   0
   1   7   2  373.24    1.49   0
   2   7   2   99.79    1.07   0
   3   7   2  358.98    2.11   0
   4   7   2  150.24    1.59   0
  -4   8   2  117.02    1.30   0
  -3   8   2  562.53    1.73   0
  -2   8   2   74.03    1.07   0
  -1   8   2  599.69    1.76   0
   0   8   2   47.23    0.94   0
   1   8   2   53.48    0.96   0
   2   8   2  415.46    1.69   0
   3   8   2    0.83    0.75   0
  -3  -8   3   12.72    0.80   0
  -2  -8   3   59.29    0.97   0
  -1  -8   3    3.72    0.83   0
   0  -8   3  103.63    1.08   0
   1  -8   3   28.75    0.88   0
   2  -8   3   24.95    1.19   0
   3  -8   3   20.21    0.78   0
   4  -8   3   56.38    0.88   0
  -4  -7   3   53.16    1.17   0
  -3  -7   3    3.30    0.88   0
  -2  -7   3  100.12    1.34   0
  -1  -7   3   47.07    0.86   0
   0  -7   3  306.51    1.29   0
   1  -7   3    4.13    0.63   0
   2  -7   3    3.00    0.80   0
   3  -7   3  150.91    1.42   0
   4  -7   3   21.05    0.93   0
   5  -7   3    2.62    0.88   0
  -6  -6   3  111.44    1.32   0
  -5  -6   3   57.03    1.07   0
  -4  -6   3   11.45    0.86   0
  -3  -6   3  222.06    1.51   0
  -2  -6   3   39.62    0.97   0
  -1  -6   3   13.98    0.87   0
   0  -6   3  595.26    2.21   0
   1  -6   3  133.82    1.27   0
   2  -6   3  553.44    2.31   0
   3  -6   3   44.43    0.94   0
   4  -6   3    4.95    0.76   0
   5  -6   3  110.67    1.19   0
   6  -6   3  120.14    1.21   0
  -6  -5   3  166.41    1.37   0
  -5  -5   3  236.72    1.45   0
  -4  -5   3  566.90    2.00   0
  -3  -5   3  127.87    1.10   0
  -2  -5   3    3.88    0.80   0
  -1  -5   3  221.62    1.63   0
   0  -5   3    2.20    0.74   0
   1  -5   3    3.35    0.85   0
   2  -5   3  736.65    2.60   0
   3  -5   3   24.22    1.13   0
   4  -5   3  260.08    1.70   0
   5  -5   3    2.98    0.78   0
   6  -5   3    8.81    0.79   0
   7  -5   3    1.75    0.80   0
  -7  -4   3  169.99    1.20   0
  -6  -4   3   95.10    1.18   0
  -5  -4   3  605.35    2.08   0
  -4  -4   3  112.69    1.09   0
  -3  -4   3   20.30    0.81   0
  -2  -4   3   37.85    0.87   0
  -1  -4   3  155.88    1.39   0
   0  -4   3  495.06    2.19   0
   1  -4   3    2.62    0.90   0
   2  -4   3  177.70    1.56   0
   3  -4   3  152.47    1.29   0
   4  -4   3  140.95    1.23   0
   5  -4   3    0.70    0.65   0
   6  -4   3    0.99    0.72   0
   7  -4   3   29.59    1.02   0
  -8  -3   3  248.29    1.39   0
  -7  -3   3    0.21    0.81   0
  -6  -3   3   28.72    0.97   0
  -5  -3   3  750.53    2.32   0
  -4  -3   3 1074.44    2.63   0
  -3  -3   3 1537.77    3.19   0
  -2  -3   3  142.67    1.35   0
  -1  -3   3  517.54    2.08   0
   0  -3   3 1802.28    3.81   0
   1  -3   3 1842.71    3.87   0
   2  -3   3  519.77    2.16   0
   3  -3   3   39.56    1.10   0
   4  -3   3 1774.52    3.46   0
   5  -3   3   35.67    1.03   0
   6  -3   3  135.90    1.30   0
   7  -3   3    8.17    0.91   0
   8  -3   3   20.37    0.86   0
  -8  -2   3  312.83    1.43   0
  -7  -2   3   51.84    0.89   0
  -6  -2   3  354.99    1.46   0
  -5  -2   3  267.55    1.54   0
  -4  -2   3  256.17    1.48   0
  -3  -2   3 1160.58    2.89   0
  -2  -2   3  542.54    2.19   0
  -1  -2   3   62.70    1.14   0
   0  -2   3  245.30    2.11   0
   1  -2   3  543.30    2.55   0
   2  -2   3  593.26    2.55   0
   3  -2   3 1014.86    3.05   0
   4  -2   3   15.24    0.97   0
   5  -2   3   54.87    1.12   0
   6  -2   3  385.29    1.91   0
   7  -2   3   29.76    0.75   0
   8  -2   3   14.86    0.76   0
  -8  -1   3  512.08    1.76   0
  -7  -1   3  113.05    0.98   0
  -6  -1   3  284.95    1.35   0
  -5  -1   3   83.58    0.89   0
  -4  -1   3  222.12    1.55   0
  -3  -1   3 1103.13    3.08   0
  -2  -1   3 1424.84    3.69   0
  -1  -1   3  140.23    1.76   0
   0  -1   3  625.56    3.99   0
   1  -1   3 4583.47    8.36   0
   2  -1   3  546.40    2.50   0
   3  -1   3  608.31    2.45   0
   4  -1   3  492.22    2.19   0
   5  -1   3    3.65    0.88   0
   6  -1   3  158.34    1.34   0
   7  -1   3    0.47    0.79   0
   8  -1   3    7.92    0.84   0
  -8   0   3  157.41    1.25   0
  -7   0   3  366.59    1.47   0
  -6   0   3 1897.29    3.00   0
  -5   0   3  329.62    1.45   0
  -4   0   3  342.15    1.57   0
  -3   0   3 2922.34    4.42   0
  -2   0   3 1011.99    3.49   0
  -1   0   3 2726.18    8.37   0
   0   0   3  185.59    3.72   0
   1   0   3 1106.18    5.04   0
   2   0   3 1438.61    4.46   0
   3   0   3 4467.31    6.01   0
   4   0   3 1052.78    2.97   0
   5   0   3  214.86    1.60   0
   6   0   3  346.48    1.48   0
   7   0   3  160.02    1.20   0
   8   0   3  230.95    1.32   0
  -8   1   3   65.86    0.96   0
  -7   1   3   59.83    0.87   0
  -6   1   3  631.15    1.82   0
  -5   1   3  276.10    1.39   0
  -4   1   3  555.34    2.44   0
  -3   1   3  168.08    1.45   0
  -2   1   3   58.13    1.23   0
  -1   1   3 1257.86    5.05   0
   0   1   3  379.39    3.46   0
   1   1   3  211.74    2.11   0
   2   1   3 1709.56    4.43   0
   3   1   3 1650.59    3.99   0
   4   1   3  557.06    2.27   0
   5   1   3  769.66    2.42   0
   6   1   3    8.55    0.65   0
   7   1   3  101.26    0.96   0
   8   1   3  120.67    1.18   0
  -8   2   3   11.08    0.71   0
  -7   2   3   61.43    0.81   0
  -6   2   3 1208.65    3.23   0
  -5   2   3  597.00    2.23   0
  -4   2   3 2571.81    4.47   0
  -3   2   3  343.16    1.87   0
  -2   2   3   11.21    0.71   0
  -1   2   3 2813.13    5.87   0
   0   2   3  277.06    2.32   0
   1   2   3  122.97    1.41   0
   2   2   3  191.01    1.59   0
   3   2   3 2330.73    4.42   0
   4   2   3  905.12    2.69   0
   5   2   3 1048.33    2.77   0
   6   2   3   27.96    1.02   0
   7   2   3    6.23    0.83   0
   8   2   3  139.57    1.09   0
  -8   3   3   38.36    0.78   0
  -7   3   3   48.52    1.20   0
  -6   3   3   94.58    1.16   0
  -5   3   3  269.62    1.59   0
  -4   3   3 1431.21    3.27   0
  -3   3   3 1189.75    3.26   0
  -2   3   3  967.47    2.99   0
  -1   3   3  169.79    1.58   0
   0   3   3  311.03    2.02   0
   1   3   3 2479.97    4.54   0
   2   3   3   47.56    1.16   0
   3   3   3  154.63    1.29   0
   4   3   3  887.84    2.59   0
   5   3   3 1588.93    3.43   0
   6   3   3  235.42    1.56   0
   7   3   3  301.62    1.43   0
  -8   4   3    8.64    0.81   0
  -7   4   3    1.28    0.92   0
  -6   4   3   41.14    0.94   0
  -5   4   3   11.90    0.89   0
  -4   4   3  518.65    2.06   0
  -3   4   3   44.79    1.01   0
  -2   4   3  520.27    2.33   0
  -1   4   3   80.65    0.87   0
   0   4   3    2.01    0.68   0
   1   4   3   58.56    1.12   0
   2   4   3   22.44    0.92   0
   3   4   3    2.66    0.76   0
   4   4   3  102.58    1.21   0
   5   4   3  203.30    1.46   0
   6   4   3  301.72    1.65   0
   7   4   3  134.20    1.16   0
  -7   5   3   35.44    1.09   0
  -6   5   3   43.83    1.00   0
  -5   5   3    1.19    0.82   0
  -4   5   3  350.35    1.82   0
  -3   5   3  287.82    1.71   0
  -2   5   3  812.39    2.07   0
  -1   5   3   12.64    0.71   0
   0   5   3    0.64    0.81   0
   1   5   3 1075.65    3.19   0
   2   5   3  233.11    1.49   0
   3   5   3  234.84    1.52   0
   4   5   3  105.08    1.23   0
   5   5   3  321.33    1.73   0
   6   5   3  193.92    1.55   0
  -7   6   3   10.57    1.03   0
  -6   6   3   21.31    1.05   0
  -5   6   3  119.95    1.35   0
  -4   6   3   83.21    1.23   0
  -3   6   3   37.50    0.73   0
  -2   6   3  218.09    1.24   0
  -1   6   3   40.65    0.81   0
   0   6   3  427.27    1.55   0
   1   6   3   35.07    0.81   0
   2   6   3    2.31    0.98   0
   3   6   3  299.78    1.72   0
   4   6   3   75.56    1.21   0
   5   6   3   26.32    1.02   0
  -6   7   3    2.66    0.94   0
  -5   7   3    8.70    0.98   0
  -4   7   3    1.82    0.77   0
  -3   7   3   23.29    0.83   0
  -2   7   3    3.06    0.70   0
  -1   7   3   24.97    0.89   0
   0   7   3    5.17    0.63   0
   1   7   3   54.31    1.01   0
   2   7   3    3.11    0.78   0
   3   7   3   93.58    1.47   0
   4   7   3    2.95    0.97   0
  -4   8   3  152.73    1.32   0
  -3   8   3  137.63    1.13   0
  -2   8   3    6.86    0.76   0
  -1   8   3    3.46    0.97   0
   0   8   3  163.02    1.12   0
   1   8   3    2.46    0.90   0
   2   8   3   12.15    0.95   0
  -3  -8   4  273.80    1.55   0
  -2  -8   4    2.22    0.89   0
  -1  -8   4  415.35    1.70   0
   0  -8   4  100.49    1.11   0
   1  -8   4    2.64    0.85   0
   2  -8   4  519.71    1.64   0
   3  -8   4  185.08    1.26   0
   4  -8   4  209.51    1.69   0
  -4  -7   4   16.60    1.00   0
  -3  -7   4   14.96    0.94   0
  -2  -7   4  350.28    1.82   0
  -1  -7   4   75.59    1.20   0
   0  -7   4  250.03    1.38   0
   1  -7   4 1308.41    2.71   0
   2  -7   4   13.51    0.91   0
   3  -7   4 1272.44    3.11   0
   4  -7   4   26.90    1.02   0
   5  -7   4  179.29    1.45   0
  -6  -6   4  754.10    2.71   0
  -5  -6   4   10.73    0.89   0
  -4  -6   4  946.94    2.56   0
  -3  -6   4  137.52    1.26   0
  -2  -6   4    2.72    0.90   0
  -1  -6   4 1507.74    3.33   0
   0  -6   4   11.37    1.01   0
   1  -6   4  405.57    2.00   0
   2  -6   4 1243.10    3.00   0
   3  -6   4  296.11    1.79   0
   4  -6   4 1498.16    3.19   0
   5  -6   4   74.90    1.01   0
   6  -6   4   61.08    1.02   0
  -6  -5   4    7.17    0.84   0
  -5  -5   4  223.10    1.39   0
  -4  -5   4   13.39    0.85   0
  -3  -5   4  473.90    1.87   0
  -2  -5   4  143.66    1.23   0
  -1  -5   4  162.25    1.36   0
   0  -5   4 1225.08    3.14   0
   1  -5   4  103.19    1.36   0
   2  -5   4  590.27    2.19   0
   3  -5   4  851.78    2.47   0
   4  -5   4   12.03    0.94   0
   5  -5   4 1307.76    3.14   0
   6  -5   4    1.12    0.72   0
   7  -5   4  226.64    1.59   0
  -7  -4   4  158.89    1.25   0
  -6  -4   4  417.06    1.90   0
  -5  -4   4   76.79    1.11   0
  -4  -4   4 1351.31    2.92   0
  -3  -4   4  306.04    1.61   0
  -2  -4   4 1200.13    2.89   0
  -1  -4   4 3550.20    4.80   0
   0  -4   4  301.85    1.66   0
   1  -4   4 3944.40    5.19   0
   2  -4   4  819.13    2.50   0
   3  -4   4   22.92    1.02   0
   4  -4   4 1215.44    2.82   0
   5  -4   4  335.59    1.67   0
   6  -4   4  143.56    1.22   0
   7  -4   4    0.67    0.84   0
  -8  -3   4  145.11    1.16   0
  -7  -3   4   14.11    0.76   0
  -6  -3   4  735.25    2.47   0
  -5  -3   4    2.46    0.76   0
  -4  -3   4    4.50    0.77   0
  -3  -3   4  752.49    2.29   0
  -2  -3   4  293.73    1.70   0
  -1  -3   4  356.98    1.89   0
   0  -3   4 1229.29    3.33   0
   1  -3   4    3.76    0.81   0
   2  -3   4 4800.67    6.29   0
   3  -3   4  106.02    1.12   0
   4  -3   4  650.23    2.20   0
   5  -3   4 1730.00    3.66   0
   6  -3   4   48.86    1.05   0
   7  -3   4  696.24    2.45   0
   8  -3   4   37.88    0.80   0
  -8  -2   4   95.18    1.01   0
  -7  -2   4  207.90    1.25   0
  -6  -2   4  313.71    1.44   0
  -5  -2   4 1896.20    3.89   0
  -4  -2   4  485.21    1.92   0
  -3  -2   4 3374.46    4.57   0
  -2  -2   4 1405.37    3.46   0
  -1  -2   4 1005.69    3.35   0
   0  -2   4  967.85    3.74   0
   1  -2   4 1548.43    4.08   0
   2  -2   4   54.10    1.24   0
   3  -2   4 1709.20    3.88   0
   4  -2   4  171.68    1.32   0
   5  -2   4  282.54    1.68   0
   6  -2   4  315.51    1.96   0
   7  -2   4    1.23    0.94   0
   8  -2   4  100.66    1.08   0
  -8  -1   4   32.37    0.77   0
  -7  -1   4   46.07    0.87   0
  -6  -1   4 1077.91    2.26   0
  -5  -1   4   34.15    0.74   0
  -4  -1   4 1712.63    3.40   0
  -3  -1   4  624.62    2.35   0
  -2  -1   4  344.95    2.03   0
  -1  -1   4  599.06    3.21   0
   0  -1   4 1152.74    5.05   0
   1  -1   4  175.13    1.99   0
   2  -1   4 2046.65    4.61   0
   3  -1   4  155.15    1.58   0
   4  -1   4 1285.95    3.25   0
   5  -1   4  171.76    1.37   0
   6  -1   4   29.00    0.89   0
   7  -1   4  581.92    1.88   0
   8  -1   4   25.87    0.78   0
  -8   0   4  282.15    1.45   0
  -7   0   4    2.05    0.66   0
  -6   0   4  293.64    1.31   0
  -5   0   4 1350.14    2.67   0
  -4   0   4  120.41    1.21   0
  -3   0   4 6440.31    6.79   0
  -2   0   4  339.02    2.17   0
  -1   0   4 3028.65    8.93   0
   0   0   4 4166.25   12.11   0
   1   0   4  971.74    4.47   0
   2   0   4 3331.15    6.40   0
   3   0   4 4773.99    6.72   0
   4   0   4   44.24    1.07   0
   5   0   4 2367.74    4.08   0
   6   0   4    9.88    0.88   0
   7   0   4   61.96    0.89   0
   8   0   4   74.14    0.96   0
  -8   1   4   98.92    1.12   0
  -7   1   4  837.76    2.13   0
  -6   1   4  230.25    1.30   0
  -5   1   4  581.95    2.34   0
  -4   1   4 2091.31    4.17   0
  -3   1   4  144.89    1.44   0
  -2   1   4 1083.85    3.86   0
  -1   1   4 2632.31    7.34   0
   0   1   4  246.08    2.95   0
   1   1   4  664.33    3.34   0
   2   1   4  406.03    2.37   0
   3   1   4  717.27    2.78   0
   4   1   4  762.71    2.58   0
   5   1   4  178.57    1.51   0
   6   1   4  696.43    2.12   0
   7   1   4   41.49    0.75   0
   8   1   4  128.84    1.06   0
  -8   2   4  127.84    1.13   0
  -7   2   4   71.58    0.94   0
  -6   2   4  563.28    2.26   0
  -5   2   4  342.09    1.82   0
  -4   2   4  244.03    1.55   0
  -3   2   4 4807.86    6.66   0
  -2   2   4   50.54    1.08   0
   0   2   4  383.15    2.57   0
   1   2   4  260.75    1.93   0
   2   2   4 2633.24    4.83   0
   3   2   4  853.06    2.74   0
   4   2   4  319.56    1.85   0
   5   2   4 1451.55    3.35   0
   6   2   4   28.53    0.94   0
   7   2   4  326.01    1.50   0
  -8   3   4  339.09    1.55   0
  -7   3   4  386.39    1.99   0
  -6   3   4   78.33    1.08   0
  -5   3   4 2347.40    4.11   0
  -4   3   4   13.17    0.79   0
  -3   3   4   99.86    1.24   0
  -2   3   4 3557.58    4.93   0
  -1   3   4  335.80    2.03   0
   0   3   4 3960.37    6.05   0
   1   3   4    9.57    0.87   0
   2   3   4  333.36    1.87   0
   3   3   4 1177.10    3.00   0
   4   3   4   86.84    1.09   0
   5   3   4  346.14    1.73   0
   6   3   4  134.45    1.33   0
   7   3   4   43.16    0.86   0
  -8   4   4    6.53    1.01   0
  -7   4   4    3.29    0.86   0
  -6   4   4  242.61    1.53   0
  -5   4   4   15.62    0.91   0
  -4   4   4  605.34    2.27   0
  -3   4   4   13.46    0.88   0
  -2   4   4  186.13    1.35   0
  -1   4   4 1481.22    2.90   0
   0   4   4   15.50    0.94   0
   1   4   4 2298.81    4.19   0
   2   4   4  789.00    2.47   0
   3   4   4  609.49    2.16   0
   4   4   4 1300.22    3.08   0
   5   4   4  292.98    1.63   0
   6   4   4  413.23    1.94   0
  -7   5   4   88.28    1.26   0
  -6   5   4   21.41    1.00   0
  -5   5   4 2383.54    4.24   0
  -4   5   4   48.84    1.13   0
  -3   5   4 2079.49    4.16   0
  -2   5   4 1027.69    2.34   0
  -1   5   4   10.77    0.69   0
   0   5   4 1687.56    2.96   0
   1   5   4  105.01    1.48   0
   2   5   4  200.23    1.44   0
   3   5   4  199.92    1.51   0
   4   5   4   93.45    1.16   0
   5   5   4  538.71    2.19   0
   6   5   4   11.03    0.94   0
  -7   6   4   59.87    1.28   0
  -6   6   4    1.60    0.98   0
  -5   6   4    1.93    0.95   0
  -4   6   4  686.85    2.66   0
  -3   6   4  110.50    1.11   0
  -2   6   4 2136.98    3.15   0
  -1   6   4   78.07    0.96   0
   0   6   4  157.12    1.16   0
   1   6   4 1881.81    3.05   0
   2   6   4   57.70    1.14   0
   3   6   4  527.53    2.26   0
   4   6   4  335.28    1.87   0
   5   6   4    0.81    0.92   0
  -6   7   4   78.07    1.35   0
  -5   7   4  288.66    1.99   0
  -4   7   4    2.51    0.84   0
  -3   7   4 1063.60    2.38   0
  -2   7   4   23.46    0.70   0
  -1   7   4  500.10    1.66   0
   0   7   4  409.74    1.53   0
   1   7   4  107.85    1.15   0
   2   7   4  262.62    1.43   0
   3   7   4   23.69    1.23   0
   4   7   4   37.85    1.18   0
  -4   8   4  157.15    1.39   0
  -3   8   4   70.33    0.92   0
  -2   8   4  727.79    1.97   0
  -1   8   4  160.63    1.18   0
   0   8   4  223.02    1.32   0
   1   8   4  170.30    1.31   0
   2   8   4   61.53    0.96   0
  -3  -8   5  403.49    1.82   0
  -2  -8   5   42.51    1.01   0
  -1  -8   5  146.57    1.20   0
   0  -8   5   98.70    1.08   0
   1  -8   5    1.45    0.66   0
   2  -8   5   20.72    0.76   0
   3  -8   5    3.53    0.84   0
  -4  -7   5   84.01    1.25   0
  -3  -7   5  182.10    1.47   0
  -2  -7   5    2.67    1.00   0
  -1  -7   5   13.08    1.00   0
   0  -7   5    8.54    0.90   0
   1  -7   5   23.54    1.10   0
   2  -7   5   14.28    0.98   0
   3  -7   5   28.10    1.02   0
   4  -7   5    6.33    0.86   0
   5  -7   5   17.73    0.90   0
  -5  -6   5   17.81    0.96   0
  -4  -6   5   10.98    0.96   0
  -3  -6   5  786.17    2.17   0
  -2  -6   5  459.28    1.90   0
  -1  -6   5 1059.10    2.84   0
   0  -6   5   87.54    1.31   0
   1  -6   5  150.32    1.44   0
   2  -6   5  630.16    2.22   0
   3  -6   5  127.51    1.28   0
   4  -6   5    2.82    1.32   0
   5  -6   5   47.42    0.89   0
   6  -6   5   55.19    0.98   0
  -6  -5   5  154.52    1.38   0
  -5  -5   5  313.07    1.59   0
  -4  -5   5   40.85    1.03   0
  -3  -5   5  107.82    1.23   0
  -2  -5   5  137.81    1.22   0
  -1  -5   5  527.42    1.96   0
   0  -5   5  132.60    1.41   0
   1  -5   5  291.40    1.63   0
   2  -5   5  152.32    1.30   0
   3  -5   5   63.22    1.14   0
   4  -5   5  787.24    2.40   0
   5  -5   5   34.98    1.15   0
   6  -5   5    5.64    0.81   0
   7  -5   5   16.31    0.93   0
  -7  -4   5  249.80    1.52   0
  -6  -4   5  300.34    1.73   0
  -5  -4   5  366.22    1.75   0
  -4  -4   5  124.89    1.08   0
  -3  -4   5    1.23    0.73   0
  -2  -4   5  274.26    1.57   0
  -1  -4   5 1396.75    3.37   0
   0  -4   5  212.37    1.48   0
   1  -4   5   59.02    1.18   0
   2  -4   5 1186.18    2.93   0
   3  -4   5  321.60    1.58   0
   4  -4   5  509.93    1.95   0
   5  -4   5    1.99    0.93   0
   6  -4   5    1.68    1.24   0
   7  -4   5   13.43    0.93   0
  -8  -3   5  298.90    1.55   0
  -7  -3   5   73.78    1.03   0
  -6  -3   5   49.25    1.06   0
  -5  -3   5 1841.83    3.49   0
  -4  -3   5 1659.25    3.14   0
  -3  -3   5  457.14    1.86   0
  -2  -3   5   17.53    0.98   0
  -1  -3   5 1559.24    3.76   0
   0  -3   5  499.29    2.40   0
   1  -3   5 1575.08    3.73   0
   2  -3   5    1.34    0.99   0
   3  -3   5   63.54    1.03   0
   4  -3   5 1844.89    3.79   0
   5  -3   5 1038.05    2.97   0
   6  -3   5  507.07    2.49   0
   7  -3   5    1.64    0.86   0
  -8  -2   5    7.68    0.77   0
  -7  -2   5   28.73    0.83   0
  -6  -2   5   50.27    0.84   0
  -5  -2   5  359.70    1.71   0
  -4  -2   5  215.54    1.42   0
  -3  -2   5 1776.20    3.51   0
  -2  -2   5  594.93    2.31   0
  -1  -2   5  278.43    1.91   0
   0  -2   5  186.63    1.93   0
   1  -2   5 2220.15    4.76   0
   2  -2   5    6.33    0.95   0
   3  -2   5   16.35    1.10   0
   4  -2   5  931.50    2.79   0
   5  -2   5  239.66    1.66   0
   6  -2   5  546.78    2.22   0
   7  -2   5   68.62    1.08   0
   8  -2   5   84.01    1.16   0
  -8  -1   5  185.81    1.19   0
  -7  -1   5   10.03    0.83   0
  -6  -1   5   98.12    0.95   0
  -5  -1   5  955.65    2.68   0
  -4  -1   5 1708.18    3.56   0
  -3  -1   5 2698.40    4.39   0
  -2  -1   5 1195.09    3.57   0
  -1  -1   5  344.74    2.55   0
   0  -1   5  666.54    3.61   0
   1  -1   5  315.16    2.29   0
   2  -1   5  379.31    2.26   0
   3  -1   5    6.23    1.18   0
   4  -1   5  479.85    2.10   0
   5  -1   5  519.78    2.16   0
   6  -1   5 1647.98    3.87   0
   7  -1   5   88.73    0.99   0
   8  -1   5   37.06    0.98   0
  -8   0   5    1.51    0.72   0
  -7   0   5    8.38    0.71   0
  -6   0   5  175.31    1.22   0
  -5   0   5   22.98    0.97   0
  -4   0   5   47.37    1.13   0
  -3   0   5 1821.34    3.87   0
  -2   0   5 1203.48    4.19   0
  -1   0   5 6296.44   11.77   0
   0   0   5 1215.08    5.93   0
   1   0   5 1111.39    4.49   0
   2   0   5  771.17    3.16   0
   3   0   5 2713.02    5.09   0
   4   0   5   93.35    1.26   0
   5   0   5   36.40    0.97   0
   6   0   5 1025.35    2.94   0
   7   0   5  342.73    1.50   0
   8   0   5  336.82    1.55   0
  -8   1   5    1.00    0.93   0
  -7   1   5  123.93    1.19   0
  -6   1   5  118.17    1.02   0
  -5   1   5   51.67    0.98   0
  -4   1   5   55.52    1.15   0
  -3   1   5  928.10    2.95   0
  -2   1   5  517.09    2.76   0
  -1   1   5  634.45    3.74   0
   0   1   5   85.30    2.05   0
   1   1   5   24.94    1.36   0
   2   1   5    9.70    1.06   0
   3   1   5   61.54    1.39   0
   4   1   5   18.49    1.05   0
   5   1   5  107.35    1.29   0
   6   1   5  242.19    1.53   0
   7   1   5   76.24    1.05   0
  -8   2   5   20.04    0.75   0
  -7   2   5    0.86    0.69   0
  -6   2   5  166.78    1.45   0
  -5   2   5   70.51    1.20   0
  -4   2   5  199.26    1.51   0
  -3   2   5   72.30    1.13   0
  -2   2   5   30.73    0.98   0
  -1   2   5 1889.85    5.15   0
   0   2   5 1279.31    4.30   0
   1   2   5  168.57    1.61   0
   2   2   5  225.19    1.72   0
   3   2   5 1710.73    3.74   0
   4   2   5  395.24    1.93   0
   5   2   5   76.36    1.21   0
   6   2   5  199.95    1.41   0
   7   2   5  124.40    1.08   0
  -8   3   5   30.69    0.96   0
  -7   3   5  253.56    1.77   0
  -6   3   5   40.28    1.09   0
  -5   3   5   84.82    1.16   0
  -4   3   5  960.74    2.77   0
  -3   3   5  119.14    1.23   0
  -2   3   5  714.29    2.75   0
  -1   3   5  113.92    1.49   0
   0   3   5   27.52    1.12   0
   1   3   5  353.17    2.02   0
   2   3   5   58.68    1.11   0
   3   3   5   42.02    1.05   0
   4   3   5   89.61    1.26   0
   5   3   5  383.98    1.87   0
   6   3   5   90.88    1.22   0
   7   3   5   70.60    1.02   0
  -8   4   5    3.08    1.10   0
  -7   4   5    0.84    0.94   0
  -6   4   5    3.17    0.91   0
  -5   4   5    1.78    0.80   0
  -4   4   5    4.82    0.80   0
  -3   4   5    7.00    0.78   0
  -2   4   5  258.27    1.68   0
  -1   4   5    4.62    0.87   0
   0   4   5  363.11    1.96   0
   1   4   5  188.90    1.51   0
   2   4   5   38.66    0.97   0
   3   4   5   15.33    0.84   0
   4   4   5   86.56    1.11   0
   5   4   5  151.78    1.40   0
   6   4   5    7.66    0.91   0
  -7   5   5   48.07    1.15   0
  -6   5   5   70.49    1.19   0
  -5   5   5  265.23    1.72   0
  -4   5   5  194.45    1.49   0
  -3   5   5  103.75    1.30   0
  -2   5   5 1323.97    4.11   0
  -1   5   5  113.37    0.93   0
   0   5   5  102.90    1.27   0
   1   5   5   36.76    1.07   0
   2   5   5   10.01    0.81   0
   3   5   5   31.00    0.98   0
   4   5   5   15.56    0.92   0
   5   5   5   59.71    1.18   0
   6   5   5  149.81    1.50   0
  -7   6   5   60.74    1.29   0
  -6   6   5   18.87    1.05   0
  -5   6   5   70.06    1.27   0
  -4   6   5  188.42    1.68   0
  -3   6   5   87.70    1.00   0
  -2   6   5   84.56    1.06   0
  -1   6   5  179.06    1.24   0
   0   6   5 1406.41    2.66   0
   1   6   5  199.44    1.26   0
   2   6   5  200.47    1.62   0
   3   6   5   44.77    1.16   0
   4   6   5   19.21    1.01   0
   5   6   5    0.78    0.93   0
  -6   7   5    2.11    1.07   0
  -5   7   5   20.68    1.25   0
  -4   7   5    6.64    0.95   0
  -3   7   5   32.91    0.96   0
  -2   7   5   69.06    0.94   0
  -1   7   5   35.47    0.99   0
   0   7   5  154.82    1.17   0
   1   7   5   34.08    1.01   0
   2   7   5  142.98    1.17   0
   3   7   5    5.54    1.15   0
  -4   8   5  192.37    1.53   0
  -3   8   5  148.01    1.29   0
  -2   8   5   28.75    0.79   0
  -1   8   5    5.72    0.84   0
   0   8   5  424.93    1.65   0
   1   8   5  203.66    1.31   0
   2   8   5  381.45    1.86   0
  -2  -8   6  358.26    1.79   0
  -1  -8   6   57.69    1.18   0
   0  -8   6  232.05    1.50   0
   1  -8   6  319.87    1.46   0
   2  -8   6   11.65    1.00   0
   3  -8   6  226.99    1.75   0
  -4  -7   6   69.61    1.03   0
  -3  -7   6  467.94    2.10   0
  -2  -7   6   18.08    0.98   0
  -1  -7   6  220.68    1.63   0
   0  -7   6  337.10    2.02   0
   1  -7   6    1.48    0.90   0
   2  -7   6  509.76    2.05   0
   3  -7   6    1.32    1.08   0
   4  -7   6   68.83    1.04   0
   5  -7   6  154.90    1.36   0
  -5  -6   6  274.29    1.66   0
  -4  -6   6   46.60    1.09   0
  -3  -6   6  261.95    1.43   0
  -2  -6   6  155.98    1.30   0
  -1  -6   6    5.61    0.89   0
   0  -6   6  706.11    2.39   0
   1  -6   6   92.18    1.23   0
   2  -6   6   12.91    1.04   0
   3  -6   6 1447.81    3.10   0
   4  -6   6    3.64    0.99   0
   5  -6   6  614.97    2.37   0
   6  -6   6  271.57    1.63   0
  -6  -5   6   99.93    1.26   0
  -5  -5   6  227.79    1.48   0
  -4  -5   6  877.87    2.45   0
  -3  -5   6  141.09    1.23   0
  -2  -5   6 1691.44    3.42   0
  -1  -5   6  397.62    1.74   0
   0  -5   6  971.71    2.64   0
   1  -5   6  318.69    1.58   0
   2  -5   6  189.06    1.48   0
   3  -5   6   33.09    0.99   0
   4  -5   6  180.83    1.40   0
   5  -5   6    6.21    0.99   0
   6  -5   6  133.62    1.57   0
  -7  -4   6    2.18    0.76   0
  -6  -4   6   10.15    0.84   0
  -5  -4   6   91.55    1.10   0
  -4  -4   6  251.05    1.50   0
  -3  -4   6  660.62    2.17   0
  -2  -4   6   18.96    0.89   0
  -1  -4   6  893.54    2.76   0
   0  -4   6 1129.26    3.21   0
   1  -4   6  670.97    2.36   0
   2  -4   6  674.16    2.30   0
   3  -4   6 1553.79    3.27   0
   4  -4   6    1.43    0.91   0
   5  -4   6  951.36    2.65   0
   6  -4   6   63.55    1.20   0
   7  -4   6   76.75    1.19   0
  -7  -3   6  456.83    1.73   0
  -6  -3   6    0.58    0.84   0
  -5  -3   6 1049.95    2.61   0
  -4  -3   6  514.84    1.85   0
  -3  -3   6    5.38    0.79   0
  -2  -3   6 4892.58    6.07   0
  -1  -3   6   60.36    1.24   0
   0  -3   6 4092.86    6.08   0
   1  -3   6 1147.04    3.21   0
   2  -3   6  477.21    2.11   0
   3  -3   6 1465.58    3.24   0
   4  -3   6  236.69    1.62   0
   5  -3   6   11.83    1.02   0
   6  -3   6  609.34    2.39   0
   7  -3   6   42.17    1.07   0
  -8  -2   6    2.89    0.79   0
  -7  -2   6  138.61    1.07   0
  -6  -2   6  301.41    1.90   0
  -5  -2   6    1.96    0.76   0
  -4  -2   6  507.85    1.86   0
  -3  -2   6  348.92    1.80   0
  -2  -2   6   24.64    0.99   0
  -1  -2   6 3011.79    5.69   0
   0  -2   6  165.82    1.75   0
   1  -2   6 2238.27    4.72   0
   2  -2   6   12.87    1.05   0
   3  -2   6  244.07    1.78   0
   4  -2   6  211.65    1.60   0
   5  -2   6  206.23    1.61   0
   6  -2   6  207.63    1.63   0
   7  -2   6  305.60    1.87   0
  -8  -1   6  222.55    1.26   0
  -7  -1   6   80.08    0.97   0
  -6  -1   6    1.62    0.73   0
  -5  -1   6 1549.12    3.24   0
  -4  -1   6   16.18    0.84   0
  -3  -1   6 1615.55    3.50   0
  -2  -1   6 2370.69    4.97   0
  -1  -1   6  490.25    2.91   0
   0  -1   6 9999.99   13.75   0
   1  -1   6 1001.72    3.81   0
   2  -1   6 1973.18    4.53   0
   3  -1   6 1147.01    3.23   0
   4  -1   6   10.37    0.91   0
   5  -1   6  147.24    1.33   0
   6  -1   6  127.64    1.36   0
   7  -1   6   14.29    0.93   0
  -8   0   6   17.85    0.94   0
  -7   0   6 1072.54    2.32   0
  -6   0   6  136.78    1.08   0
  -5   0   6   13.45    0.84   0
  -4   0   6 2346.29    4.30   0
  -3   0   6 1055.95    3.09   0
  -2   0   6 1060.47    3.89   0
  -1   0   6  908.29    4.53   0
   0   0   6  367.05    3.23   0
   1   0   6 6602.98   10.51   0
   2   0   6  212.01    1.84   0
   3   0   6 1180.85    3.41   0
   4   0   6  770.95    2.64   0
   5   0   6   52.19    1.26   0
   6   0   6  753.59    2.43   0
   7   0   6   23.48    1.17   0
  -8   1   6  184.86    1.20   0
  -7   1   6   21.32    0.88   0
  -6   1   6  400.88    2.08   0
  -5   1   6  845.50    2.63   0
  -4   1   6  128.84    1.32   0
  -3   1   6 3538.60    5.92   0
  -2   1   6   15.57    1.29   0
  -1   1   6 2150.00    6.20   0
   0   1   6 1814.78    5.87   0
   1   1   6  107.95    1.74   0
   2   1   6 3772.02    6.34   0
   3   1   6  222.08    1.74   0
   4   1   6  970.14    2.88   0
   5   1   6  668.61    2.36   0
   6   1   6   37.62    1.07   0
   7   1   6  350.99    1.55   0
  -8   2   6    8.50    0.95   0
  -7   2   6 1132.84    2.48   0
  -6   2   6   27.95    1.09   0
  -5   2   6  451.70    1.97   0
  -4   2   6 3026.78    4.95   0
  -3   2   6  495.52    2.36   0
  -2   2   6 5970.28    8.06   0
  -1   2   6   25.20    1.31   0
   0   2   6  137.57    1.89   0
   1   2   6 1875.74    4.59   0
   2   2   6  695.84    2.74   0
   3   2   6 1022.64    2.97   0
   4   2   6   19.11    0.99   0
   5   2   6   37.64    1.06   0
   6   2   6  600.77    2.19   0
   7   2   6   36.08    0.95   0
  -8   3   6    2.21    0.80   0
  -7   3   6   17.12    1.04   0
  -6   3   6  329.45    1.80   0
  -5   3   6    2.62    1.01   0
  -4   3   6  245.01    1.60   0
  -3   3   6  745.98    2.60   0
  -2   3   6  392.90    2.20   0
  -1   3   6 5556.81    7.30   0
   0   3   6   29.54    1.20   0
   1   3   6 2671.93    5.01   0
   2   3   6 2947.56    4.91   0
   3   3   6   46.91    1.09   0
   4   3   6 2390.96    4.21   0
   5   3   6  114.23    1.16   0
   6   3   6   47.19    1.05   0
   7   3   6  504.79    1.92   0
  -8   4   6  294.60    2.04   0
  -7   4   6  320.51    1.86   0
  -6   4   6  339.43    1.84   0
  -5   4   6  751.81    2.49   0
  -4   4   6  554.12    2.20   0
  -3   4   6    5.41    0.76   0
  -2   4   6 1232.57    3.35   0
  -1   4   6  469.04    2.27   0
   0   4   6  825.24    2.88   0
   1   4   6    5.93    1.04   0
   2   4   6  232.48    1.65   0
   3   4   6  519.10    2.13   0
   4   4   6   19.88    0.92   0
   5   4   6  181.66    1.43   0
   6   4   6   77.04    1.30   0
  -7   5   6  100.98    1.36   0
  -6   5   6  129.03    1.41   0
  -5   5   6    4.92    1.02   0
  -4   5   6  612.14    2.39   0
  -3   5   6  158.00    1.69   0
  -2   5   6    4.09    0.82   0
  -1   5   6 1826.69    3.60   0
   0   5   6  528.11    2.28   0
   1   5   6 1900.65    3.83   0
   2   5   6  118.70    1.23   0
   3   5   6   79.81    1.19   0
   4   5   6 1357.65    3.30   0
   5   5   6   15.70    0.88   0
  -6   6   6  485.97    2.25   0
  -5   6   6   58.47    1.22   0
  -4   6   6  215.87    1.70   0
  -3   6   6  591.76    2.54   0
  -2   6   6  273.73    1.48   0
  -1   6   6  207.37    1.21   0
   0   6   6  955.28    2.33   0
   1   6   6    3.29    1.01   0
   2   6   6  898.42    2.87   0
   3   6   6    2.86    0.97   0
   4   6   6   63.64    1.33   0
  -5   7   6   19.06    1.21   0
  -4   7   6   22.58    1.04   0
  -3   7   6   23.90    0.83   0
  -2   7   6   17.45    0.97   0
  -1   7   6  151.47    1.15   0
   0   7   6    3.18    0.95   0
   1   7   6  657.77    1.93   0
   2   7   6   42.71    1.11   0
   3   7   6  320.89    2.05   0
  -4   8   6  308.29    1.76   0
  -3   8   6  382.02    1.64   0
  -2   8   6   13.46    1.01   0
  -1   8   6  365.63    1.60   0
   0   8   6   84.95    1.12   0
   1   8   6    2.08    0.97   0
  -2  -8   7    2.46    1.09   0
  -1  -8   7    5.92    1.03   0
   0  -8   7  121.19    1.34   0
   1  -8   7   62.50    1.11   0
   2  -8   7   98.58    1.30   0
   3  -8   7   26.56    0.88   0
  -4  -7   7  114.07    1.30   0
  -3  -7   7  392.37    1.90   0
  -2  -7   7    5.68    0.93   0
  -1  -7   7    4.78    0.94   0
   0  -7   7  327.83    1.82   0
   1  -7   7  129.99    1.29   0
   2  -7   7   95.15    1.28   0
   3  -7   7   48.63    1.22   0
   4  -7   7   57.37    1.27   0
  -5  -6   7   12.46    0.98   0
  -4  -6   7  322.35    1.69   0
  -3  -6   7  934.61    2.74   0
  -2  -6   7  681.19    2.14   0
  -1  -6   7  322.87    1.64   0
   0  -6   7   57.77    1.19   0
   1  -6   7   86.91    1.28   0
   2  -6   7  868.34    2.47   0
   3  -6   7  110.33    1.31   0
   4  -6   7   32.44    1.09   0
   5  -6   7  169.66    1.47   0
  -6  -5   7   23.35    1.10   0
  -5  -5   7    7.41    0.80   0
  -4  -5   7    9.15    0.92   0
  -3  -5   7  390.57    1.80   0
  -2  -5   7  111.39    1.29   0
  -1  -5   7 1451.03    3.34   0
   0  -5   7   27.55    0.98   0
   1  -5   7   72.06    1.12   0
   2  -5   7  338.92    1.75   0
   3  -5   7   77.33    1.20   0
   4  -5   7   58.04    1.05   0
   5  -5   7   14.70    1.00   0
   6  -5   7   56.56    1.25   0
  -7  -4   7   54.22    1.03   0
  -6  -4   7   43.05    1.06   0
  -5  -4   7  114.63    1.15   0
  -4  -4   7   81.94    1.11   0
  -3  -4   7  601.87    2.08   0
  -2  -4   7 1614.95    3.40   0
  -1  -4   7 1152.14    3.13   0
   0  -4   7   63.64    1.27   0
   1  -4   7   54.51    1.14   0
   2  -4   7  694.77    2.32   0
   3  -4   7   67.03    1.14   0
   4  -4   7  382.13    1.79   0
   5  -4   7    9.47    0.89   0
   6  -4   7  144.99    1.47   0
   7  -4   7  216.50    1.67   0
  -7  -3   7    5.55    0.91   0
  -6  -3   7   30.93    0.98   0
  -5  -3   7   66.43    1.04   0
  -4  -3   7  112.03    1.18   0
  -3  -3   7   31.16    0.95   0
  -2  -3   7   18.99    1.06   0
  -1  -3   7 1709.62    3.99   0
   0  -3   7 1579.60    3.79   0
   1  -3   7 1610.03    3.74   0
   2  -3   7   39.13    1.05   0
   3  -3   7  312.56    1.71   0
   4  -3   7  776.08    2.63   0
   5  -3   7  116.72    1.48   0
   6  -3   7  103.69    1.48   0
   7  -3   7  198.94    1.91   0
  -8  -2   7   79.27    1.00   0
  -7  -2   7    6.61    0.74   0
  -6  -2   7  217.43    1.49   0
  -5  -2   7   71.68    1.09   0
  -4  -2   7    4.04    0.82   0
  -3  -2   7  104.94    1.20   0
  -2  -2   7  332.53    2.08   0
  -1  -2   7  180.41    1.77   0
   0  -2   7   94.46    1.67   0
   1  -2   7  267.75    1.92   0
   2  -2   7  109.31    1.37   0
   3  -2   7  363.37    2.01   0
   4  -2   7  305.63    1.81   0
   5  -2   7    3.47    0.98   0
   6  -2   7  150.86    1.50   0
   7  -2   7    1.88    1.10   0
  -8  -1   7   82.39    1.02   0
  -7  -1   7   21.46    0.82   0
  -6  -1   7   96.38    1.27   0
  -5  -1   7  127.48    1.29   0
  -4  -1   7    3.37    0.73   0
  -3  -1   7  533.57    2.33   0
  -2  -1   7  205.36    1.80   0
  -1  -1   7   47.14    1.52   0
   0  -1   7  293.06    2.55   0
   1  -1   7 1805.94    4.81   0
   2  -1   7  420.54    2.42   0
   3  -1   7   43.46    1.28   0
   4  -1   7  917.04    2.81   0
   5  -1   7  268.72    1.69   0
   6  -1   7  452.94    2.04   0
   7  -1   7   20.66    1.19   0
  -8   0   7    5.47    0.75   0
  -7   0   7  114.65    1.11   0
  -6   0   7  593.44    2.22   0
  -5   0   7  161.23    1.35   0
  -4   0   7  250.22    1.52   0
  -3   0   7  376.57    2.27   0
  -2   0   7  738.30    3.23   0
  -1   0   7  691.38    3.69   0
   0   0   7  251.80    2.79   0
   1   0   7    5.18    1.32   0
   2   0   7   10.70    1.36   0
   3   0   7  455.41    2.25   0
   4   0   7   32.67    1.14   0
   5   0   7   33.96    1.23   0
   6   0   7  286.59    1.73   0
   7   0   7  160.44    1.44   0
  -8   1   7   98.45    1.07   0
  -7   1   7   39.93    1.04   0
  -6   1   7    2.41    0.94   0
  -5   1   7  111.73    1.28   0
  -4   1   7  174.90    1.46   0
  -3   1   7   91.33    1.43   0
  -2   1   7  219.87    2.04   0
  -1   1   7  494.70    3.08   0
   0   1   7  824.01    3.95   0
   1   1   7  205.59    2.06   0
   2   1   7   54.86    1.52   0
   3   1   7   46.20    1.29   0
   4   1   7   80.03    1.29   0
   5   1   7   17.69    0.97   0
   6   1   7  239.24    1.68   0
   7   1   7    6.97    0.97   0
  -8   2   7  191.28    1.30   0
  -7   2   7  486.78    2.22   0
  -6   2   7   15.49    0.93   0
  -5   2   7   81.85    1.14   0
  -4   2   7  755.08    2.62   0
  -3   2   7   32.33    1.05   0
  -2   2   7  230.80    2.00   0
  -1   2   7 2403.09    5.70   0
   0   2   7  345.96    2.47   0
   1   2   7 1273.06    3.99   0
   2   2   7    7.63    1.11   0
   3   2   7    9.05    1.02   0
   4   2   7    4.36    1.07   0
   5   2   7  153.82    1.47   0
   6   2   7   96.34    1.16   0
   7   2   7   18.41    0.92   0
  -8   3   7  383.56    1.74   0
  -7   3   7  445.26    2.03   0
  -6   3   7  310.80    1.80   0
  -5   3   7  292.03    1.69   0
  -4   3   7  186.74    1.48   0
  -3   3   7   17.39    0.91   0
  -2   3   7 1580.09    4.02   0
  -1   3   7   10.27    1.14   0
   0   3   7  175.58    1.65   0
   1   3   7 1437.98    3.74   0
   2   3   7 1813.72    3.93   0
   3   3   7  267.02    1.73   0
   4   3   7   82.66    1.23   0
   5   3   7   29.89    1.19   0
   6   3   7    0.85    0.80   0
  -8   4   7   37.79    1.25   0
  -7   4   7  323.55    1.93   0
  -6   4   7  142.38    1.36   0
  -5   4   7  275.93    1.84   0
  -4   4   7   52.99    1.04   0
  -3   4   7   25.96    0.98   0
  -2   4   7  279.42    1.87   0
  -1   4   7  122.91    1.35   0
   0   4   7    1.94    1.10   0
   1   4   7  381.82    2.04   0
   2   4   7   38.35    1.15   0
   3   4   7  307.58    1.77   0
   4   4   7  175.96    1.53   0
   5   4   7   22.22    0.96   0
   6   4   7   19.67    1.09   0
  -7   5   7  242.44    1.82   0
  -6   5   7  602.24    2.40   0
  -5   5   7  323.50    1.89   0
  -4   5   7    6.50    1.02   0
  -3   5   7   31.81    0.99   0
  -2   5   7  749.99    2.70   0
  -1   5   7  380.89    2.03   0
   0   5   7  224.12    1.66   0
   1   5   7  203.04    1.64   0
   2   5   7  623.62    2.37   0
   3   5   7  830.12    2.64   0
   4   5   7  115.68    1.36   0
   5   5   7    6.86    1.01   0
  -6   6   7   52.82    1.35   0
  -5   6   7  422.25    2.13   0
  -4   6   7  195.08    1.66   0
  -3   6   7  136.25    1.52   0
  -2   6   7  165.27    1.24   0
  -1   6   7  133.93    1.05   0
   0   6   7  543.10    1.83   0
   1   6   7   14.25    1.00   0
   2   6   7   86.14    1.35   0
   3   6   7  188.96    1.59   0
   4   6   7  159.07    1.72   0
  -5   7   7   39.68    1.39   0
  -4   7   7   49.46    1.04   0
  -3   7   7    2.05    0.81   0
  -2   7   7   86.24    1.16   0
  -1   7   7   34.91    0.90   0
   0   7   7  445.27    1.70   0
   1   7   7   24.69    0.96   0
   2   7   7   31.11    1.25   0
   3   7   7   94.30    1.60   0
  -3   8   7  246.41    1.52   0
  -2   8   7    0.91    0.81   0
  -1   8   7   75.30    1.08   0
   0   8   7  482.45    1.79   0
   1   8   7  261.20    1.58   0
  -2  -8   8   41.65    0.90   0
  -1  -8   8  263.38    1.80   0
   0  -8   8    7.43    1.06   0
   1  -8   8  243.04    1.89   0
   2  -8   8   13.17    1.06   0
  -4  -7   8   43.99    1.11   0
  -3  -7   8   14.65    0.95   0
  -2  -7   8  347.20    1.93   0
  -1  -7   8   12.92    0.99   0
   0  -7   8  435.19    1.98   0
   1  -7   8  147.76    1.41   0
   2  -7   8  149.28    1.39   0
   3  -7   8  338.88    1.84   0
   4  -7   8  451.46    2.18   0
  -5  -6   8   40.10    1.13   0
  -4  -6   8 1358.51    3.26   0
  -3  -6   8  140.31    1.30   0
  -2  -6   8  180.78    1.42   0
  -1  -6   8  964.25    2.59   0
   0  -6   8  197.24    1.43   0
   1  -6   8  780.48    2.25   0
   2  -6   8   63.65    1.19   0
   3  -6   8   80.81    1.29   0
   4  -6   8  223.96    1.64   0
   5  -6   8    1.29    1.08   0
  -6  -5   8   96.36    1.34   0
  -5  -5   8   31.88    0.95   0
  -4  -5   8   34.07    1.00   0
  -3  -5   8  624.98    2.23   0
  -2  -5   8   16.01    0.98   0
  -1  -5   8  324.30    1.90   0
   0  -5   8  716.87    2.40   0
   1  -5   8   52.97    1.11   0
   2  -5   8 1085.44    2.79   0
   3  -5   8   13.83    1.06   0
   4  -5   8  443.53    1.95   0
   5  -5   8  183.32    1.51   0
   6  -5   8  185.22    1.58   0
  -7  -4   8  686.84    2.15   0
  -6  -4   8   16.91    0.92   0
  -5  -4   8  218.88    1.38   0
  -4  -4   8 1680.57    3.33   0
  -3  -4   8    4.15    0.86   0
  -2  -4   8 1728.65    3.60   0
  -1  -4   8  829.05    2.74   0
   0  -4   8   40.65    1.21   0
   1  -4   8 2167.14    3.98   0
   2  -4   8    0.62    1.11   0
   3  -4   8 1089.30    2.90   0
   4  -4   8  173.26    1.42   0
   5  -4   8   33.79    1.11   0
   6  -4   8  234.80    1.61   0
  -7  -3   8   46.75    1.22   0
  -6  -3   8  782.09    2.35   0
  -5  -3   8   30.07    0.96   0
  -4  -3   8  116.32    1.20   0
  -3  -3   8  834.83    2.51   0
  -2  -3   8  915.99    2.79   0
  -1  -3   8 2184.83    4.41   0
   0  -3   8  189.37    1.64   0
   1  -3   8   14.19    1.07   0
   2  -3   8 2572.91    4.49   0
   3  -3   8  178.07    1.54   0
   4  -3   8 1878.60    4.02   0
   5  -3   8  411.69    2.11   0
   6  -3   8  160.84    1.58   0
   7  -3   8  727.35    3.25   0
  -8  -2   8   52.04    0.93   0
  -7  -2   8  155.56    1.20   0
  -6  -2   8   23.53    0.98   0
  -5  -2   8  951.73    2.67   0
  -4  -2   8  654.83    2.27   0
  -3  -2   8  505.56    2.14   0
  -2  -2   8 4562.50    6.51   0
  -1  -2   8  138.77    1.66   0
   0  -2   8 2824.81    5.85   0
   1  -2   8  339.20    2.16   0
   2  -2   8  356.67    2.08   0
   3  -2   8 1011.18    2.96   0
   4  -2   8    6.02    1.14   0
   5  -2   8  689.00    2.49   0
   6  -2   8   83.76    1.33   0
   7  -2   8    6.10    1.07   0
  -8  -1   8    1.17    0.81   0
  -7  -1   8   24.65    0.84   0
  -6  -1   8  485.22    1.99   0
  -5  -1   8  190.41    1.39   0
  -4  -1   8  343.33    1.74   0
  -3  -1   8  482.13    2.28   0
  -2  -1   8  176.66    1.83   0
  -1  -1   8 6014.84    8.78   0
   0  -1   8  595.80    3.17   0
   1  -1   8 2639.01    5.61   0
   2  -1   8  818.76    3.05   0
   3  -1   8  141.96    1.52   0
   4  -1   8 1728.07    3.73   0
   5  -1   8    3.21    1.03   0
   6  -1   8  113.46    1.37   0
   7  -1   8  476.69    2.50   0
  -8   0   8  342.15    1.50   0
  -7   0   8   37.13    0.99   0
  -6   0   8  371.15    1.90   0
  -5   0   8  287.00    1.70   0
  -4   0   8    0.24    0.88   0
  -3   0   8 1705.77    4.24   0
  -2   0   8 1206.07    3.99   0
  -1   0   8  109.32    1.74   0
   0   0   8 7738.29   10.34   0
   1   0   8   18.98    1.49   0
   2   0   8 4981.86    7.16   0
   3   0   8  443.61    2.32   0
   4   0   8  140.78    1.45   0
   5   0   8 1697.83    3.66   0
   6   0   8   29.36    1.25   0
   7   0   8  170.90    1.78   0
  -8   1   8   15.65    0.76   0
  -7   1   8  519.89    1.88   0
  -6   1   8  114.84    1.30   0
  -5   1   8  284.41    1.72   0
  -4   1   8  600.78    2.45   0
  -3   1   8  621.57    2.66   0
  -2   1   8  305.77    2.25   0
  -1   1   8 1816.78    5.20   0
   0   1   8  238.65    2.44   0
   1   1   8 2123.62    5.22   0
   2   1   8  440.49    2.42   0
   3   1   8  250.77    1.77   0
   4   1   8  140.98    1.42   0
   5   1   8    0.64    1.02   0
   6   1   8  326.52    1.77   0
   7   1   8   89.93    1.27   0
  -8   2   8  137.61    1.13   0
  -7   2   8  144.45    1.44   0
  -6   2   8  457.54    2.00   0
  -5   2   8    1.66    0.99   0
  -4   2   8  179.01    1.46   0
  -3   2   8 2251.28    4.65   0
  -2   2   8  595.73    2.83   0
  -1   2   8 2342.39    5.53   0
   0   2   8 5452.94    8.19   0
   1   2   8   29.94    1.35   0
   2   2   8 4573.50    6.42   0
   3   2   8   28.01    1.29   0
   4   2   8  434.11    2.02   0
   5   2   8  542.37    2.20   0
   6   2   8   27.58    1.10   0
  -8   3   8  377.57    1.76   0
  -7   3   8  238.63    1.64   0
  -6   3   8   27.24    1.15   0
  -5   3   8  965.96    2.86   0
  -4   3   8    2.05    0.86   0
  -3   3   8  587.20    2.43   0
  -2   3   8  449.60    2.37   0
  -1   3   8  163.16    1.69   0
   0   3   8 1026.26    3.42   0
   1   3   8  586.66    2.52   0
   2   3   8   15.46    1.08   0
   3   3   8 1198.85    3.17   0
   4   3   8  167.99    1.46   0
   5   3   8  145.09    1.52   0
   6   3   8   56.24    1.18   0
  -7   4   8   56.04    1.25   0
  -6   4   8  135.97    1.49   0
  -5   4   8   52.02    1.07   0
  -4   4   8  239.25    1.66   0
  -3   4   8  116.12    1.30   0
  -2   4   8  128.63    1.48   0
  -1   4   8  400.14    2.18   0
   0   4   8  383.81    2.08   0
   1   4   8  156.22    1.43   0
   2   4   8 1163.98    3.20   0
   3   4   8   87.77    1.21   0
   4   4   8  676.37    2.44   0
   5   4   8  186.75    1.51   0
   6   4   8   80.67    1.67   0
  -7   5   8    0.12    1.14   0
  -6   5   8  406.28    2.11   0
  -5   5   8  713.34    2.64   0
  -4   5   8   22.83    0.98   0
  -3   5   8 1050.39    3.06   0
  -2   5   8  270.23    1.86   0
  -1   5   8   86.10    1.20   0
   0   5   8  880.75    2.96   0
   1   5   8    9.10    0.93   0
   2   5   8  105.54    1.35   0
   3   5   8  155.76    1.53   0
   4   5   8   99.47    1.35   0
   5   5   8  171.35    1.60   0
  -6   6   8   96.60    1.45   0
  -5   6   8  281.40    1.92   0
  -4   6   8   11.28    1.01   0
  -3   6   8    4.74    1.23   0
  -2   6   8  377.75    2.09   0
  -1   6   8    6.88    0.81   0
   0   6   8  347.83    1.81   0
   1   6   8  505.76    2.35   0
   2   6   8   56.07    1.09   0
   3   6   8  545.64    2.58   0
   4   6   8   88.47    1.48   0
  -5   7   8   18.67    1.27   0
  -4   7   8  189.84    1.39   0
  -3   7   8  137.82    1.37   0
  -2   7   8   59.13    0.98   0
  -1   7   8   87.90    1.07   0
   0   7   8  226.32    1.40   0
   1   7   8   57.58    1.19   0
   2   7   8  263.33    1.89   0
  -3   8   8  105.04    1.18   0
  -2   8   8  113.89    1.19   0
  -1   8   8   51.83    0.97   0
   0   8   8  226.36    1.55   0
  -1  -8   9   40.43    1.23   0
   0  -8   9  164.48    1.52   0
   1  -8   9   49.40    1.16   0
  -3  -7   9   50.67    1.17   0
  -2  -7   9  201.28    1.54   0
  -1  -7   9   60.37    1.29   0
   0  -7   9  713.30    2.44   0
   1  -7   9   94.98    1.36   0
   2  -7   9   73.66    1.09   0
   3  -7   9   20.14    1.22   0
   4  -7   9   90.39    1.36   0
  -5  -6   9   10.55    1.01   0
  -4  -6   9   20.32    1.11   0
  -3  -6   9  115.71    1.28   0
  -2  -6   9   50.33    1.23   0
  -1  -6   9   93.12    1.32   0
   0  -6   9  132.64    1.34   0
   1  -6   9  161.90    1.48   0
   2  -6   9  739.40    2.42   0
   3  -6   9   63.16    1.28   0
   4  -6   9   14.48    1.07   0
   5  -6   9  115.27    1.45   0
  -6  -5   9    1.17    0.89   0
  -5  -5   9   39.38    1.13   0
  -4  -5   9    5.63    0.97   0
  -3  -5   9   18.26    1.09   0
  -2  -5   9   23.10    0.96   0
  -1  -5   9   54.42    1.05   0
   0  -5   9  104.99    1.28   0
   1  -5   9    1.14    0.91   0
   2  -5   9   55.02    1.25   0
   3  -5   9   16.33    1.03   0
   4  -5   9    7.41    1.04   0
   5  -5   9    7.68    1.14   0
  -7  -4   9   12.23    0.97   0
  -6  -4   9    6.94    0.96   0
  -5  -4   9   50.89    1.11   0
  -4  -4   9   28.73    1.02   0
  -3  -4   9   30.14    1.07   0
  -2  -4   9   83.72    1.23   0
  -1  -4   9  455.24    2.06   0
   0  -4   9   60.55    1.14   0
   1  -4   9   25.12    1.07   0
   2  -4   9  582.53    2.25   0
   3  -4   9   46.33    1.17   0
   4  -4   9  267.57    1.69   0
   5  -4   9  137.90    1.44   0
   6  -4   9   69.97    1.35   0
  -7  -3   9  175.56    1.76   0
  -6  -3   9  317.39    1.76   0
  -5  -3   9  109.26    1.22   0
  -4  -3   9   71.42    1.21   0
  -3  -3   9  484.92    2.08   0
  -2  -3   9    2.05    1.08   0
  -1  -3   9  141.00    1.51   0
   0  -3   9  172.48    1.69   0
   1  -3   9  973.95    3.25   0
   2  -3   9   33.54    1.27   0
   3  -3   9  201.53    1.68   0
   4  -3   9  173.22    1.69   0
   5  -3   9   28.68    1.25   0
   6  -3   9   48.06    1.27   0
  -8  -2   9  267.51    1.53   0
  -7  -2   9   35.63    1.14   0
  -6  -2   9  358.69    1.80   0
  -5  -2   9   59.89    1.09   0
  -4  -2   9   53.52    1.05   0
  -3  -2   9   12.22    1.03   0
  -2  -2   9  203.10    1.74   0
  -1  -2   9   13.50    1.13   0
   0  -2   9    3.39    1.32   0
   1  -2   9  560.88    2.67   0
   2  -2   9  106.47    1.64   0
   3  -2   9  216.97    1.76   0
   4  -2   9    3.66    1.06   0
   5  -2   9   83.82    1.33   0
   6  -2   9    1.89    1.17   0
   7  -2   9   53.95    1.42   0
  -8  -1   9  266.01    1.48   0
  -7  -1   9  232.83    1.44   0
  -6  -1   9 1172.48    2.89   0
  -5  -1   9   60.72    1.04   0
  -4  -1   9   63.79    1.20   0
  -3  -1   9 1113.36    3.31   0
  -2  -1   9   89.99    1.63   0
  -1  -1   9   14.79    1.65   0
   0  -1   9  165.94    2.28   0
   1  -1   9 1203.41    3.78   0
   2  -1   9  252.89    2.10   0
   3  -1   9  857.17    2.93   0
   4  -1   9    6.36    1.11   0
   5  -1   9   12.32    1.02   0
   6  -1   9   84.67    1.40   0
   7  -1   9    1.95    1.03   0
  -8   0   9   16.05    0.89   0
  -7   0   9   80.23    1.01   0
  -6   0   9  853.88    2.61   0
  -5   0   9  731.78    2.51   0
  -4   0   9 1017.48    3.12   0
  -3   0   9  276.49    2.00   0
  -2   0   9  112.42    1.80   0
  -1   0   9 1102.23    3.99   0
   0   0   9  532.78    3.12   0
   1   0   9  161.16    1.93   0
   2   0   9  785.33    3.09   0
   3   0   9 1203.75    3.42   0
   4   0   9  484.36    2.28   0
   5   0   9  639.61    2.48   0
   6   0   9   31.79    1.16   0
   7   0   9   44.82    1.19   0
  -8   1   9    7.77    0.97   0
  -7   1   9    0.40    0.94   0
  -6   1   9  619.60    2.32   0
  -5   1   9  260.54    1.66   0
  -4   1   9 1430.80    3.60   0
  -3   1   9   57.38    1.34   0
  -2   1   9   48.35    1.48   0
  -1   1   9  525.32    2.95   0
   0   1   9   34.73    1.65   0
   1   1   9   24.66    1.46   0
   2   1   9   37.49    1.48   0
   3   1   9  375.46    2.09   0
   4   1   9   41.51    1.36   0
   5   1   9  423.36    2.04   0
   6   1   9   43.39    1.24   0
  -8   2   9  155.73    1.35   0
  -7   2   9   14.92    1.03   0
  -6   2   9  337.01    1.87   0
  -5   2   9  432.20    2.07   0
  -4   2   9 1527.88    3.66   0
  -3   2   9  338.18    2.10   0
  -2   2   9  202.79    1.88   0
  -1   2   9  671.70    3.09   0
   0   2   9 1102.47    3.68   0
   1   2   9 1361.96    3.92   0
   2   2   9   48.13    1.46   0
   3   2   9  351.20    2.06   0
   4   2   9  540.30    2.31   0
   5   2   9  722.59    2.55   0
   6   2   9   14.11    1.14   0
  -8   3   9   24.54    1.25   0
  -7   3   9  301.07    1.91   0
  -6   3   9   41.60    0.99   0
  -5   3   9   14.00    0.99   0
  -4   3   9  728.02    2.62   0
  -3   3   9  521.77    2.34   0
  -2   3   9  886.47    3.19   0
  -1   3   9   32.11    1.27   0
   0   3   9  104.25    1.59   0
   1   3   9  704.87    2.75   0
   2   3   9  531.59    2.35   0
   3   3   9  293.07    1.84   0
   4   3   9    7.03    1.02   0
   5   3   9  148.37    1.54   0
   6   3   9  249.52    1.73   0
  -7   4   9   71.70    1.38   0
  -6   4   9   10.77    1.10   0
  -5   4   9    1.51    0.91   0
  -4   4   9  230.42    1.64   0
  -3   4   9   21.50    0.97   0
  -2   4   9  218.35    1.70   0
  -1   4   9    6.15    0.93   0
   0   4   9   30.57    1.23   0
   1   4   9  747.14    2.66   0
   2   4   9  321.68    1.87   0
   3   4   9  233.66    1.69   0
   4   4   9    4.09    0.95   0
   5   4   9   78.01    1.38   0
  -7   5   9  178.61    1.73   0
  -6   5   9  348.68    2.10   0
  -5   5   9  328.76    2.13   0
  -4   5   9    1.79    0.91   0
  -3   5   9  111.42    1.32   0
  -2   5   9  886.01    2.86   0
  -1   5   9   32.45    1.19   0
   0   5   9   69.37    1.19   0
   1   5   9  780.20    2.73   0
   2   5   9  358.31    1.97   0
   3   5   9  693.32    2.63   0
   4   5   9  184.29    1.56   0
  -6   6   9   52.81    1.38   0
  -5   6   9  101.43    1.45   0
  -4   6   9   37.04    1.36   0
  -3   6   9  146.40    1.39   0
  -2   6   9    2.47    1.01   0
  -1   6   9    2.45    0.87   0
   0   6   9  114.79    1.48   0
   1   6   9    0.93    0.96   0
   2   6   9   32.38    1.00   0
   3   6   9  289.02    1.87   0
  -5   7   9  100.54    1.62   0
  -4   7   9   66.16    1.24   0
  -3   7   9   21.87    0.95   0
  -2   7   9   80.69    1.12   0
  -1   7   9    7.15    1.00   0
   0   7   9   65.93    1.17   0
   1   7   9  164.37    1.33   0
   2   7   9   56.55    1.14   0
  -3  -7  10  280.94    1.84   0
  -2  -7  10   33.50    1.02   0
  -1  -7  10  583.82    2.03   0
   0  -7  10   12.23    0.93   0
   1  -7  10  110.86    1.29   0
   2  -7  10  324.85    1.80   0
   3  -7  10    1.42    1.09   0
  -5  -6  10  272.90    1.95   0
  -4  -6  10   47.83    1.18   0
  -3  -6  10  403.74    1.97   0
  -2  -6  10  105.77    1.38   0
  -1  -6  10   37.28    1.28   0
   0  -6  10 1663.86    3.50   0
   1  -6  10  109.22    1.40   0
   2  -6  10  478.36    2.09   0
   3  -6  10  492.21    2.21   0
   4  -6  10   18.46    1.10   0
  -6  -5  10  110.63    1.32   0
  -5  -5  10  142.76    1.35   0
  -4  -5  10  816.17    2.51   0
  -3  -5  10  219.28    1.57   0
  -2  -5  10  336.26    1.76   0
  -1  -5  10 1251.16    3.09   0
   0  -5  10   26.52    1.06   0
   1  -5  10 1174.93    2.99   0
   2  -5  10    3.15    1.09   0
   3  -5  10  312.41    1.89   0
   4  -5  10   57.65    1.27   0
   5  -5  10   26.67    1.17   0
  -6  -4  10  147.23    1.38   0
  -5  -4  10  147.68    1.37   0
  -4  -4  10   25.32    1.10   0
  -3  -4  10  444.27    1.97   0
  -2  -4  10    5.19    0.94   0
  -1  -4  10    4.51    1.23   0
   0  -4  10 1644.76    3.61   0
   1  -4  10  565.47    2.31   0
   2  -4  10 2691.33    4.43   0
   3  -4  10  107.82    1.46   0
   4  -4  10  106.73    1.38   0
   5  -4  10 1011.61    3.04   0
   6  -4  10   -0.48    1.22   0
  -7  -3  10  498.22    2.18   0
  -6  -3  10   -0.33    0.92   0
  -5  -3  10 1811.05    3.63   0
  -4  -3  10  459.94    2.00   0
  -3  -3  10  306.43    1.85   0
  -2  -3  10 1627.63    3.74   0
  -1  -3  10  130.05    1.63   0
   0  -3  10  100.87    1.64   0
   1  -3  10 1394.38    3.80   0
   2  -3  10  174.43    1.57   0
   3  -3  10 2315.47    4.22   0
   4  -3  10   31.53    1.32   0
   5  -3  10  303.75    2.07   0
   6  -3  10  403.80    2.34   0
  -7  -2  10    1.30    1.06   0
  -6  -2  10  410.48    1.94   0
  -5  -2  10   42.42    1.14   0
  -4  -2  10  386.90    1.99   0
  -3  -2  10  181.20    1.63   0
  -2  -2  10  250.05    1.94   0
  -1  -2  10  156.40    1.70   0
   0  -2  10  122.89    1.77   0
   1  -2  10   51.18    1.56   0
   2  -2  10 1472.00    3.77   0
   3  -2  10  163.85    1.68   0
   4  -2  10  887.40    2.90   0
   5  -2  10  188.14    1.69   0
   6  -2  10   99.96    1.55   0
  -8  -1  10   70.69    0.88   0
  -7  -1  10   85.29    1.26   0
  -6  -1  10    0.74    0.94   0
  -5  -1  10 1543.20    3.27   0
  -4  -1  10    6.53    0.94   0
  -3  -1  10 1123.93    3.36   0
  -2  -1  10 1643.08    4.13   0
  -1  -1  10   52.71    1.61   0
   0  -1  10 1668.26    4.40   0
   1  -1  10 1525.48    4.01   0
   2  -1  10   85.41    1.53   0
   3  -1  10 3229.02    5.14   0
   4  -1  10   30.45    1.45   0
   5  -1  10 1122.95    3.21   0
   6  -1  10   68.02    1.34   0
  -8   0  10   19.52    0.89   0
  -7   0  10  522.48    2.17   0
  -6   0  10   83.61    1.17   0
  -5   0  10  211.47    1.63   0
  -4   0  10  630.83    2.49   0
  -3   0  10   66.13    1.53   0
  -2   0  10  703.99    3.01   0
  -1   0  10  102.12    1.72   0
   0   0  10   10.28    1.27   0
   1   0  10  684.19    2.88   0
   2   0  10   25.10    1.34   0
   3   0  10  138.32    1.61   0
   4   0  10 1444.57    3.52   0
   5   0  10    0.61    1.25   0
   6   0  10  629.22    2.54   0
  -8   1  10   23.06    1.04   0
  -7   1  10    0.19    0.96   0
  -6   1  10  283.61    1.71   0
  -5   1  10  139.16    1.47   0
  -4   1  10  389.11    2.09   0
  -3   1  10 1426.32    3.82   0
  -2   1  10  631.09    2.94   0
  -1   1  10  555.49    2.82   0
   0   1  10 1077.10    3.70   0
   1   1  10  482.91    2.58   0
   2   1  10  392.15    2.26   0
   3   1  10  847.75    2.86   0
   4   1  10  221.02    1.76   0
   5   1  10  636.14    2.46   0
   6   1  10   72.44    1.32   0
  -8   2  10   31.51    0.96   0
  -7   2  10  653.68    2.37   0
  -6   2  10  105.56    1.25   0
  -5   2  10  855.05    2.73   0
  -4   2  10  123.08    1.43   0
  -3   2  10  154.50    1.61   0
  -2   2  10 1627.47    4.25   0
  -1   2  10   41.64    1.55   0
   0   2  10  608.10    2.79   0
   1   2  10  779.77    3.03   0
   2   2  10  145.67    1.64   0
   3   2  10  606.87    2.51   0
   4   2  10   39.52    1.29   0
   5   2  10   13.77    1.20   0
   6   2  10  335.88    1.97   0
  -7   3  10   21.74    1.23   0
  -6   3  10  204.18    1.63   0
  -5   3  10  278.99    1.74   0
  -4   3  10 1420.97    3.57   0
  -3   3  10   41.66    1.24   0
  -2   3  10  524.74    2.54   0
  -1   3  10 1067.65    3.39   0
   0   3  10  210.37    1.73   0
   1   3  10 1268.86    3.61   0
   2   3  10  620.97    2.62   0
   3   3  10  304.42    1.93   0
   4   3  10 1007.33    2.96   0
   5   3  10   27.98    1.16   0
  -7   4  10  217.94    1.75   0
  -6   4  10    9.16    0.99   0
  -5   4  10 1223.90    3.30   0
  -4   4  10    5.75    0.95   0
  -3   4  10 1156.60    3.32   0
  -2   4  10  130.39    1.43   0
  -1   4  10  280.29    1.85   0
   0   4  10  191.36    1.77   0
   1   4  10   24.16    1.14   0
   2   4  10    3.85    0.97   0
   3   4  10  169.47    1.56   0
   4   4  10   10.90    1.06   0
   5   4  10   81.17    1.34   0
  -6   5  10    4.28    1.19   0
  -5   5  10   73.34    1.31   0
  -4   5  10 1322.88    3.50   0
  -3   5  10  278.92    1.88   0
  -2   5  10 1549.80    3.75   0
  -1   5  10  287.12    1.96   0
   0   5  10   46.94    1.23   0
   1   5  10  852.09    2.79   0
   2   5  10   23.03    1.26   0
   3   5  10   98.65    1.48   0
   4   5  10  358.10    2.11   0
  -6   6  10  244.05    2.01   0
  -5   6  10   97.63    1.61   0
  -4   6  10   10.95    0.98   0
  -3   6  10  828.40    2.86   0
  -2   6  10   27.04    1.20   0
  -1   6  10 1203.11    3.47   0
   0   6  10   19.17    1.06   0
   1   6  10  126.50    1.46   0
   2   6  10  299.00    1.84   0
   3   6  10    9.39    0.96   0
  -4   7  10  147.85    1.80   0
  -3   7  10  110.85    1.25   0
  -2   7  10  540.10    2.04   0
  -1   7  10   30.78    0.82   0
   0   7  10   88.29    1.09   0
   1   7  10  206.53    1.71   0
  -2  -7  11    9.58    1.07   0
  -1  -7  11    0.71    1.13   0
   0  -7  11  158.52    1.55   0
   1  -7  11   22.50    1.10   0
   2  -7  11   20.46    1.12   0
  -4  -6  11   80.11    1.32   0
  -3  -6  11   26.55    1.15   0
  -2  -6  11   28.93    1.04   0
  -1  -6  11  248.87    1.68   0
   0  -6  11    0.59    1.06   0
   1  -6  11    5.82    0.95   0
   2  -6  11  265.31    1.80   0
   3  -6  11   71.59    1.32   0
   4  -6  11  118.42    1.57   0
  -5  -5  11  167.26    1.56   0
  -4  -5  11  181.82    1.50   0
  -3  -5  11   86.14    1.37   0
  -2  -5  11   13.77    0.93   0
  -1  -5  11   26.14    1.14   0
   0  -5  11    7.87    1.06   0
   1  -5  11   86.23    1.35   0
   2  -5  11  124.21    1.45   0
   3  -5  11    5.26    1.01   0
   4  -5  11  134.56    1.40   0
   5  -5  11   13.57    1.22   0
  -6  -4  11  116.11    1.37   0
  -5  -4  11  827.60    2.63   0
  -4  -4  11  507.34    2.08   0
  -3  -4  11   61.83    1.30   0
  -2  -4  11   21.39    1.07   0
  -1  -4  11  534.98    2.24   0
   0  -4  11   27.14    1.29   0
   1  -4  11  100.70    1.46   0
   2  -4  11  185.41    1.68   0
   3  -4  11  186.43    1.55   0
   4  -4  11  301.61    1.96   0
   5  -4  11   64.23    1.39   0
  -7  -3  11   28.68    0.99   0
  -6  -3  11    1.24    1.09   0
  -5  -3  11  260.02    1.75   0
  -4  -3  11  680.12    2.49   0
  -3  -3  11 1291.79    3.36   0
  -2  -3  11  553.03    2.41   0
  -1  -3  11   14.37    1.19   0
   0  -3  11   90.32    1.51   0
   1  -3  11 1085.78    3.47   0
   2  -3  11   65.91    1.45   0
   3  -3  11  125.86    1.97   0
   4  -3  11  329.82    2.21   0
   5  -3  11  223.27    2.00   0
   6  -3  11  339.37    2.14   0
  -7  -2  11    0.20    0.98   0
  -6  -2  11   80.97    1.27   0
  -5  -2  11  279.53    1.81   0
  -4  -2  11  274.34    1.85   0
  -3  -2  11  624.64    2.58   0
  -2  -2  11  371.98    2.15   0
  -1  -2  11   16.13    1.26   0
   0  -2  11   21.84    1.53   0
   1  -2  11  113.83    1.59   0
   2  -2  11  126.63    1.56   0
   3  -2  11   50.49    1.36   0
   4  -2  11   41.07    1.25   0
   5  -2  11    1.76    1.08   0
   6  -2  11  234.63    2.03   0
  -7  -1  11  186.50    1.65   0
  -6  -1  11  327.84    1.92   0
  -5  -1  11    5.23    1.03   0
  -4  -1  11  103.22    1.41   0
  -3  -1  11 1411.19    3.66   0
  -2  -1  11  894.22    3.16   0
  -1  -1  11  707.26    2.98   0
   0  -1  11    1.01    1.23   0
   1  -1  11 1033.07    3.28   0
   2  -1  11  536.64    2.52   0
   3  -1  11 1193.91    3.33   0
   4  -1  11   41.28    1.35   0
   5  -1  11   16.03    1.20   0
   6  -1  11  455.26    2.24   0
  -8   0  11   14.36    1.05   0
  -7   0  11    1.43    1.08   0
  -6   0  11  735.71    2.54   0
  -5   0  11   94.64    1.43   0
  -4   0  11  567.95    2.41   0
  -3   0  11  323.41    2.06   0
  -2   0  11  254.80    1.97   0
  -1   0  11  905.10    3.20   0
   0   0  11  353.66    2.39   0
   1   0  11    9.12    1.54   0
   2   0  11  141.33    1.57   0
   3   0  11 1035.31    3.20   0
   4   0  11  373.13    2.16   0
   5   0  11  332.67    1.96   0
   6   0  11   33.28    1.34   0
  -8   1  11   65.95    1.07   0
  -7   1  11   74.20    1.27   0
  -6   1  11  351.73    1.98   0
  -5   1  11  114.82    1.40   0
  -4   1  11  100.43    1.46   0
  -3   1  11   10.51    1.20   0
  -2   1  11   58.04    1.49   0
  -1   1  11  289.76    2.26   0
   0   1  11   83.85    1.54   0
   1   1  11   12.54    1.20   0
   2   1  11  247.98    2.00   0
   3   1  11  649.53    2.57   0
   4   1  11  252.83    1.81   0
   5   1  11  176.65    1.74   0
   6   1  11   12.64    1.22   0
  -7   2  11   22.98    1.08   0
  -6   2  11  303.25    1.78   0
  -5   2  11  256.27    1.78   0
  -4   2  11 1836.46    4.08   0
  -3   2  11   92.53    1.36   0
  -2   2  11   67.44    1.57   0
  -1   2  11  587.18    2.59   0
   0   2  11  460.24    2.44   0
   1   2  11  185.02    1.81   0
   2   2  11   22.00    1.48   0
   3   2  11  444.57    2.25   0
   4   2  11  701.05    2.56   0
   5   2  11  699.02    2.60   0
  -7   3  11    2.25    1.12   0
  -6   3  11    3.45    1.07   0
  -5   3  11   24.60    1.23   0
  -4   3  11  119.26    1.48   0
  -3   3  11  199.76    1.70   0
  -2   3  11  598.78    2.56   0
  -1   3  11   17.15    1.16   0
   0   3  11  144.40    1.61   0
   1   3  11  345.85    2.17   0
   2   3  11    8.88    1.23   0
   3   3  11    1.62    1.06   0
   4   3  11   68.89    1.37   0
   5   3  11  480.35    2.31   0
  -7   4  11    4.40    1.17   0
  -6   4  11   26.23    1.23   0
  -5   4  11    2.05    1.02   0
  -4   4  11  542.80    2.41   0
  -3   4  11   57.51    1.32   0
  -2   4  11  474.68    2.32   0
  -1   4  11   35.98    1.17   0
   0   4  11    7.72    1.20   0
   1   4  11   46.65    1.27   0
   2   4  11    4.71    1.07   0
   3   4  11   55.91    1.38   0
   4   4  11  115.62    1.50   0
  -6   5  11   46.97    1.48   0
  -5   5  11   43.75    1.11   0
  -4   5  11    1.75    0.95   0
  -3   5  11   21.47    1.15   0
  -2   5  11  382.17    2.14   0
  -1   5  11  209.92    1.65   0
   0   5  11  348.12    2.05   0
   1   5  11   21.07    1.20   0
   2   5  11   37.87    1.17   0
   3   5  11  155.92    1.54   0
   4   5  11    5.62    1.06   0
  -5   6  11   14.89    1.30   0
  -4   6  11   18.25    0.94   0
  -3   6  11   69.79    1.31   0
  -2   6  11   11.10    1.02   0
  -1   6  11    1.63    1.12   0
   0   6  11   83.38    1.36   0
   1   6  11    6.50    1.01   0
   2   6  11   73.83    1.41   0
  -3   7  11    7.73    0.92   0
  -2   7  11    0.50    0.96   0
  -1   7  11    3.57    0.98   0
   0   7  11   72.29    1.22   0
  -2  -7  12  145.45    1.56   0
  -1  -7  12    3.17    1.06   0
   0  -7  12  187.25    1.62   0
   1  -7  12  324.91    2.01   0
  -4  -6  12  692.10    2.59   0
  -3  -6  12   14.80    1.29   0
  -2  -6  12  263.10    1.75   0
  -1  -6  12  513.80    2.18   0
   0  -6  12   35.08    1.16   0
   1  -6  12  250.28    1.82   0
   2  -6  12  132.12    1.53   0
   3  -6  12   32.61    1.18   0
  -5  -5  12   36.29    1.19   0
  -4  -5  12    5.01    1.03   0
  -3  -5  12   83.10    1.37   0
  -2  -5  12   28.52    1.28   0
  -1  -5  12  293.64    1.82   0
   0  -5  12  412.80    2.01   0
   1  -5  12  303.20    1.83   0
   2  -5  12  206.68    1.58   0
   3  -5  12  660.75    2.58   0
   4  -5  12    7.89    1.15   0
  -6  -4  12   33.95    1.14   0
  -5  -4  12  136.16    1.56   0
  -4  -4  12  796.35    2.72   0
  -3  -4  12   14.12    1.18   0
  -2  -4  12 1000.23    2.92   0
  -1  -4  12  511.86    2.27   0
   0  -4  12  130.24    1.56   0
   1  -4  12 1183.10    3.19   0
   2  -4  12  193.18    1.60   0
   3  -4  12  110.71    1.46   0
   4  -4  12  490.00    2.34   0
   5  -4  12  111.21    1.64   0
  -6  -3  12  241.12    1.63   0
  -5  -3  12    4.33    1.07   0
  -4  -3  12  318.95    1.89   0
  -3  -3  12   36.33    1.29   0
  -2  -3  12    2.10    1.14   0
  -1  -3  12  870.48    3.02   0
   0  -3  12   20.97    1.42   0
   1  -3  12  246.39    2.05   0
   2  -3  12  493.26    2.48   0
   3  -3  12    0.39    1.28   0
   4  -3  12  226.35    1.96   0
   5  -3  12  286.41    2.14   0
  -7  -2  12   59.93    1.28   0
  -6  -2  12   47.99    1.23   0
  -5  -2  12  792.93    2.62   0
  -4  -2  12  107.66    1.44   0
  -3  -2  12  766.15    2.78   0
  -2  -2  12 1086.32    3.31   0
  -1  -2  12  773.41    2.90   0
   0  -2  12  765.43    2.96   0
   1  -2  12  986.89    3.14   0
   2  -2  12  339.10    2.00   0
   3  -2  12  176.44    1.66   0
   4  -2  12  112.74    1.53   0
   5  -2  12   20.53    1.30   0
   6  -2  12   55.50    1.46   0
  -7  -1  12  183.53    1.57   0
  -6  -1  12  449.74    2.16   0
  -5  -1  12   95.68    1.38   0
  -4  -1  12 1056.46    3.12   0
  -3  -1  12  192.55    1.71   0
  -2  -1  12  305.98    2.07   0
  -1  -1  12  237.17    1.94   0
   0  -1  12   33.18    1.40   0
   1  -1  12  926.19    2.98   0
   2  -1  12  274.04    1.96   0
   3  -1  12    1.31    1.31   0
   4  -1  12  967.44    2.95   0
   5  -1  12    3.91    1.20   0
   6  -1  12   56.37    1.43   0
  -7   0  12    1.06    1.14   0
  -6   0  12  593.38    2.35   0
  -5   0  12  459.59    2.26   0
  -4   0  12    5.98    1.15   0
  -3   0  12 2833.89    4.98   0
  -2   0  12  159.31    1.59   0
  -1   0  12 1168.81    3.35   0
   0   0  12  286.66    1.93   0
   1   0  12  292.62    1.99   0
   2   0  12 1100.93    3.25   0
   3   0  12  191.31    1.65   0
   4   0  12  494.69    2.35   0
   5   0  12  511.66    2.37   0
   6   0  12    0.56    1.21   0
  -7   1  12  405.62    2.12   0
  -6   1  12  208.92    1.72   0
  -5   1  12   93.90    1.34   0
  -4   1  12 1179.11    3.35   0
  -3   1  12   29.87    1.33   0
  -2   1  12 1234.55    3.52   0
  -1   1  12  173.84    1.67   0
   0   1  12  329.95    2.16   0
   1   1  12   68.98    1.61   0
   2   1  12   -0.12    1.23   0
   3   1  12   98.37    1.50   0
   4   1  12  212.00    1.79   0
   5   1  12   -0.20    1.20   0
  -7   2  12   17.05    1.04   0
  -6   2  12  529.07    2.27   0
  -5   2  12   28.06    1.15   0
  -4   2  12   78.16    1.44   0
  -3   2  12 1668.33    3.89   0
  -2   2  12  621.34    2.60   0
  -1   2  12 3231.39    5.43   0
   0   2  12   27.83    1.23   0
   1   2  12  700.36    2.71   0
   2   2  12 1260.91    3.46   0
   3   2  12  107.54    1.58   0
   4   2  12  780.42    2.77   0
   5   2  12  204.76    1.83   0
  -7   3  12  154.41    1.54   0
  -6   3  12   81.65    1.37   0
  -5   3  12  622.07    2.51   0
  -4   3  12   43.13    1.28   0
  -3   3  12  116.58    1.49   0
  -2   3  12  322.21    1.98   0
  -1   3  12  313.27    2.05   0
   0   3  12 1436.02    3.68   0
   1   3  12  219.65    1.83   0
   2   3  12  374.45    2.20   0
   3   3  12  345.42    2.05   0
   4   3  12    0.79    1.12   0
   5   3  12  266.73    1.92   0
  -6   4  12  172.81    1.59   0
  -5   4  12    8.20    0.93   0
  -4   4  12  471.40    2.28   0
  -3   4  12  139.36    1.61   0
  -2   4  12    6.14    1.17   0
  -1   4  12 1218.96    3.38   0
   0   4  12   75.92    1.28   0
   1   4  12  607.28    2.49   0
   2   4  12  189.06    1.78   0
   3   4  12  160.26    1.75   0
   4   4  12  459.84    2.28   0
  -6   5  12   82.27    1.37   0
  -5   5  12  467.03    2.32   0
  -4   5  12   10.85    1.09   0
  -3   5  12 1033.14    3.18   0
  -2   5  12   74.95    1.34   0
  -1   5  12   85.11    1.45   0
   0   5  12 1042.67    3.24   0
   1   5  12  244.22    1.87   0
   2   5  12  668.72    2.65   0
   3   5  12    9.52    1.19   0
  -5   6  12   11.73    1.29   0
  -4   6  12   60.28    1.30   0
  -3   6  12   18.79    1.08   0
  -2   6  12  289.30    2.02   0
  -1   6  12   18.12    1.07   0
   0   6  12   55.89    1.25   0
   1   6  12  362.51    2.16   0
   2   6  12   19.82    1.27   0
  -2   7  12   -1.00    0.78   0
  -1   7  12  158.40    1.39   0
  -3  -6  13  334.58    2.02   0
  -2  -6  13  181.50    1.61   0
  -1  -6  13  811.10    2.68   0
   0  -6  13   20.03    1.20   0
   1  -6  13   29.09    1.22   0
   2  -6  13  136.85    1.53   0
  -5  -5  13   31.48    1.19   0
  -4  -5  13    1.20    1.12   0
  -3  -5  13   53.88    1.25   0
  -2  -5  13  115.43    1.46   0
  -1  -5  13  313.33    1.86   0
   0  -5  13   58.15    1.33   0
   1  -5  13   84.73    1.25   0
   2  -5  13  129.90    1.47   0
   3  -5  13   17.31    1.36   0
   4  -5  13  120.18    1.70   0
  -5  -4  13  341.99    1.98   0
  -4  -4  13  261.54    1.79   0
  -3  -4  13    4.38    1.14   0
  -2  -4  13  146.48    1.56   0
  -1  -4  13  980.24    2.99   0
   0  -4  13  364.90    2.12   0
   1  -4  13  157.30    1.65   0
   2  -4  13   70.01    1.53   0
   3  -4  13  254.30    1.86   0
   4  -4  13  483.74    2.42   0
  -6  -3  13    8.73    0.93   0
  -5  -3  13  271.27    1.84   0
  -4  -3  13  216.87    1.82   0
  -3  -3  13  368.08    2.10   0
  -2  -3  13   91.32    1.45   0
  -1  -3  13   21.95    1.40   0
   0  -3  13  218.05    1.92   0
   1  -3  13  763.22    2.98   0
   2  -3  13   27.21    1.46   0
   3  -3  13   36.52    1.69   0
   4  -3  13  529.64    2.59   0
   5  -3  13  172.22    1.76   0
  -7  -2  13   21.95    1.20   0
  -6  -2  13   14.24    1.01   0
  -5  -2  13  302.00    1.89   0
  -4  -2  13  119.63    1.51   0
  -3  -2  13  478.30    2.27   0
  -2  -2  13   33.39    1.31   0
  -1  -2  13   20.22    1.40   0
   0  -2  13   35.32    1.34   0
   1  -2  13  343.92    2.09   0
   2  -2  13   28.92    1.41   0
   3  -2  13    7.17    1.39   0
   4  -2  13  307.94    1.83   0
   5  -2  13  118.68    1.60   0
  -7  -1  13   11.64    1.12   0
  -6  -1  13  200.23    1.59   0
  -5  -1  13  104.08    1.44   0
  -4  -1  13  215.56    1.68   0
  -3  -1  13  842.05    2.89   0
  -2  -1  13  894.34    3.02   0
  -1  -1  13  249.04    1.91   0
   0  -1  13    1.25    1.32   0
   1  -1  13  326.47    2.16   0
   2  -1  13  347.30    2.01   0
   3  -1  13  164.29    1.56   0
   4  -1  13   99.18    1.54   0
   5  -1  13  236.86    1.90   0
  -7   0  13   61.85    1.31   0
  -6   0  13    1.97    1.07   0
  -5   0  13   21.32    1.29   0
  -4   0  13   58.49    1.35   0
  -3   0  13  158.29    1.61   0
  -2   0  13  105.52    1.61   0
  -1   0  13  504.14    2.28   0
   0   0  13  384.74    2.19   0
   1   0  13   17.41    1.33   0
   2   0  13   15.56    1.18   0
   3   0  13  123.42    1.64   0
   4   0  13    4.10    1.14   0
   5   0  13    7.49    1.36   0
  -7   1  13  107.22    1.53   0
  -6   1  13   41.25    1.18   0
  -5   1  13   23.34    1.24   0
  -4   1  13    6.13    1.13   0
  -3   1  13  239.36    1.91   0
  -2   1  13  119.53    1.51   0
  -1   1  13  508.04    2.37   0
   0   1  13    7.04    1.21   0
   1   1  13   78.19    1.50   0
   2   1  13   74.95    1.50   0
   3   1  13   45.02    1.26   0
   4   1  13   13.17    1.18   0
   5   1  13    2.96    1.24   0
  -7   2  13  140.03    1.60   0
  -6   2  13   22.70    1.14   0
  -5   2  13    4.19    1.25   0
  -4   2  13  303.55    2.01   0
  -3   2  13   12.51    1.30   0
  -2   2  13  110.56    1.58   0
  -1   2  13  272.18    1.86   0
   0   2  13  369.86    2.14   0
   1   2  13  292.94    1.95   0
   2   2  13  163.23    1.59   0
   3   2  13   62.53    1.37   0
   4   2  13   33.74    1.30   0
   5   2  13  129.06    1.56   0
  -7   3  13  180.70    1.66   0
  -6   3  13   44.69    1.30   0
  -5   3  13  261.35    1.93   0
  -4   3  13   42.37    1.32   0
  -3   3  13    3.34    1.20   0
  -2   3  13  244.64    1.88   0
  -1   3  13   11.06    1.14   0
   0   3  13   48.42    1.34   0
   1   3  13   40.99    1.35   0
   2   3  13   36.92    1.33   0
   3   3  13   62.64    1.42   0
   4   3  13   25.84    1.30   0
  -6   4  13   51.28    1.30   0
  -5   4  13    7.22    1.11   0
  -4   4  13    9.21    1.11   0
  -3   4  13   32.88    1.18   0
  -2   4  13  176.55    1.66   0
  -1   4  13   16.83    1.08   0
   0   4  13   25.74    1.26   0
   1   4  13   51.82    1.30   0
   2   4  13    6.26    1.12   0
   3   4  13   12.77    1.27   0
  -5   5  13  316.28    2.08   0
  -4   5  13   23.73    1.04   0
  -3   5  13   -0.14    1.08   0
  -2   5  13  371.02    2.13   0
  -1   5  13  264.25    1.89   0
   0   5  13  461.43    2.34   0
   1   5  13   10.68    1.24   0
   2   5  13    8.98    1.09   0
  -4   6  13   28.38    1.23   0
  -3   6  13   38.47    1.26   0
  -2   6  13    9.79    1.05   0
  -1   6  13    1.95    1.11   0
   0   6  13  332.22    2.21   0
   1   6  13   74.57    1.41   0
  -2  -6  14    3.07    1.22   0
  -1  -6  14  125.78    1.64   0
   0  -6  14  237.39    1.81   0
   1  -6  14    4.60    1.29   0
  -4  -5  14  375.89    2.17   0
  -3  -5  14   26.27    1.30   0
  -2  -5  14  485.50    2.30   0
  -1  -5  14  164.45    1.66   0
   0  -5  14  261.01    1.82   0
   1  -5  14  130.20    1.59   0
   2  -5  14  184.70    1.64   0
   3  -5  14   69.95    1.42   0
  -5  -4  14    5.40    1.19   0
  -4  -4  14   26.28    1.31   0
  -3  -4  14  481.85    2.25   0
  -2  -4  14  263.94    1.94   0
  -1  -4  14  672.76    2.68   0
   0  -4  14   13.61    1.17   0
   1  -4  14   21.64    1.35   0
   2  -4  14  608.15    2.53   0
   3  -4  14   61.14    1.46   0
   4  -4  14  125.57    1.58   0
  -6  -3  14    2.00    1.16   0
  -5  -3  14  645.81    2.52   0
  -4  -3  14   98.12    1.53   0
  -3  -3  14  152.71    1.64   0
  -2  -3  14 1874.99    4.10   0
  -1  -3  14   15.99    1.30   0
   0  -3  14 1929.70    4.25   0
   1  -3  14   10.52    1.40   0
   2  -3  14  296.80    2.23   0
   3  -3  14  225.62    2.07   0
   4  -3  14    3.81    1.31   0
  -6  -2  14   90.23    1.47   0
  -5  -2  14    3.55    1.09   0
  -4  -2  14   34.29    1.22   0
  -3  -2  14  221.21    1.82   0
  -2  -2  14    3.42    1.07   0
  -1  -2  14 1376.23    3.63   0
   0  -2  14   51.64    1.51   0
   1  -2  14 1030.45    3.14   0
   2  -2  14   42.55    1.23   0
   3  -2  14   44.89    1.29   0
   4  -2  14  129.73    1.61   0
   5  -2  14   62.99    1.48   0
  -7  -1  14   13.29    1.18   0
  -6  -1  14   47.82    1.32   0
  -5  -1  14  630.65    2.51   0
  -4  -1  14   94.44    1.41   0
  -3  -1  14  845.48    2.79   0
  -2  -1  14  972.13    3.02   0
  -1  -1  14   22.52    1.32   0
   0  -1  14 3906.30    5.50   0
   1  -1  14   17.31    1.28   0
   2  -1  14 1301.03    3.33   0
   3  -1  14  263.01    1.80   0
   4  -1  14   11.64    1.29   0
   5  -1  14  445.65    2.30   0
  -7   0  14  455.67    2.41   0
  -6   0  14   23.14    1.31   0
  -5   0  14  114.88    1.51   0
  -4   0  14  325.48    1.93   0
  -3   0  14    1.84    1.21   0
  -2   0  14  504.01    2.31   0
  -1   0  14   54.05    1.31   0
   0   0  14   24.24    1.27   0
   1   0  14 1194.78    3.22   0
   2   0  14  555.25    2.35   0
   3   0  14  530.14    2.41   0
   4   0  14   21.98    1.38   0
   5   0  14    2.01    1.29   0
  -7   1  14   19.51    1.16   0
  -6   1  14  171.92    1.63   0
  -5   1  14  140.76    1.48   0
  -4   1  14    1.32    1.07   0
  -3   1  14 1448.33    3.48   0
  -2   1  14   91.14    1.31   0
  -1   1  14  461.84    2.26   0
   0   1  14 1638.57    3.68   0
   1   1  14    0.99    1.11   0
   2   1  14 1122.60    3.19   0
   3   1  14   15.70    1.13   0
   4   1  14  149.60    1.51   0
  -7   2  14  433.56    2.40   0
  -6   2  14    2.69    1.16   0
  -5   2  14  312.80    1.90   0
  -4   2  14  167.64    1.56   0
  -3   2  14   34.28    1.31   0
  -2   2  14 1039.18    3.07   0
  -1   2  14  115.13    1.48   0
   0   2  14  520.52    2.36   0
   1   2  14  375.71    2.12   0
   2   2  14  217.26    1.80   0
   3   2  14  999.94    3.00   0
   4   2  14   72.16    1.45   0
  -6   3  14   40.36    1.16   0
  -5   3  14   27.75    1.16   0
  -4   3  14  128.94    1.51   0
  -3   3  14  118.19    1.46   0
  -2   3  14   14.76    1.16   0
  -1   3  14  639.24    2.49   0
   0   3  14    6.07    1.12   0
   1   3  14  381.90    2.16   0
   2   3  14  341.66    2.03   0
   3   3  14  103.25    1.46   0
   4   3  14  481.25    2.38   0
  -6   4  14   75.65    1.37   0
  -5   4  14  307.01    2.01   0
  -4   4  14  218.03    1.76   0
  -3   4  14   20.47    1.09   0
  -2   4  14  568.54    2.37   0
  -1   4  14   51.03    1.22   0
   0   4  14  459.56    2.24   0
   1   4  14    5.34    1.19   0
   2   4  14   16.28    1.30   0
   3   4  14  199.10    1.90   0
  -5   5  14   53.99    1.34   0
  -4   5  14   59.35    1.40   0
  -3   5  14    6.03    1.13   0
  -2   5  14   87.83    1.44   0
  -1   5  14  346.15    2.08   0
   0   5  14   20.15    1.18   0
   1   5  14  897.08    3.06   0
   2   5  14   12.03    1.24   0
  -3   6  14    2.76    1.14   0
  -2   6  14  105.65    1.52   0
  -1   6  14   25.72    1.15   0
   0   6  14   91.30    1.44   0
  -3  -5  15  230.02    1.92   0
  -2  -5  15   96.33    1.61   0
  -1  -5  15  194.61    1.74   0
   0  -5  15    7.07    1.38   0
   1  -5  15    0.28    1.40   0
   2  -5  15   89.93    1.81   0
  -4  -4  15    8.30    1.28   0
  -3  -4  15    2.26    1.25   0
  -2  -4  15  231.12    1.78   0
  -1  -4  15  467.67    2.23   0
   0  -4  15  232.91    1.79   0
   1  -4  15  359.45    2.03   0
   2  -4  15  152.80    1.69   0
   3  -4  15   45.11    1.51   0
  -5  -3  15   31.24    1.22   0
  -4  -3  15    2.57    1.25   0
  -3  -3  15    3.31    1.20   0
  -2  -3  15   38.97    1.36   0
  -1  -3  15  175.59    1.78   0
   0  -3  15   49.32    1.39   0
   1  -3  15  235.25    1.87   0
   2  -3  15   54.40    1.47   0
   3  -3  15   33.80    1.45   0
   4  -3  15    8.84    1.36   0
  -6  -2  15  119.58    1.58   0
  -5  -2  15   11.29    1.25   0
  -4  -2  15   36.08    1.37   0
  -3  -2  15   13.03    1.24   0
  -2  -2  15   54.48    1.37   0
  -1  -2  15   41.97    1.38   0
   0  -2  15   43.20    1.37   0
   1  -2  15  264.01    1.94   0
   2  -2  15    2.04    1.30   0
   3  -2  15   27.88    1.48   0
   4  -2  15  111.02    1.62   0
  -6  -1  15  307.70    1.97   0
  -5  -1  15  159.01    1.65   0
  -4  -1  15   68.78    1.40   0
  -3  -1  15   68.24    1.30   0
  -2  -1  15  223.04    1.73   0
  -1  -1  15  164.04    1.57   0
   0  -1  15   12.26    1.31   0
   1  -1  15   79.81    1.45   0
   2  -1  15  216.10    1.69   0
   3  -1  15  170.68    1.62   0
   4  -1  15   -0.14    1.18   0
  -6   0  15  130.50    1.59   0
  -5   0  15   21.02    1.26   0
  -4   0  15  354.45    1.94   0
  -3   0  15    1.50    1.04   0
  -2   0  15   62.69    1.20   0
  -1   0  15  151.88    1.45   0
   0   0  15  178.47    1.52   0
   1   0  15   80.92    1.38   0
   2   0  15   85.91    1.38   0
   3   0  15  127.99    1.43   0
   4   0  15    1.95    1.25   0
  -6   1  15   34.23    1.36   0
  -5   1  15    6.34    1.07   0
  -4   1  15  233.07    1.76   0
  -3   1  15    5.12    1.14   0
  -2   1  15    3.36    1.07   0
  -1   1  15  214.10    1.68   0
   0   1  15  174.81    1.46   0
   1   1  15   24.76    1.21   0
   2   1  15   18.39    1.27   0
   3   1  15   14.38    1.14   0
   4   1  15    5.86    1.24   0
  -6   2  15   21.50    1.15   0
  -5   2  15    0.83    1.19   0
  -4   2  15  321.96    1.91   0
  -3   2  15  149.02    1.53   0
  -2   2  15  130.09    1.41   0
  -1   2  15   85.09    1.32   0
   0   2  15  214.30    1.64   0
   1   2  15  764.48    2.63   0
   2   2  15  316.71    1.86   0
   3   2  15   67.72    1.46   0
   4   2  15    7.07    1.15   0
  -6   3  15  138.66    1.58   0
  -5   3  15  160.24    1.68   0
  -4   3  15    1.84    1.09   0
  -3   3  15    3.69    1.01   0
  -2   3  15  156.97    1.63   0
  -1   3  15    7.16    1.20   0
   0   3  15    2.20    1.14   0
   1   3  15  175.09    1.71   0
   2   3  15  182.65    1.63   0
   3   3  15  235.18    1.82   0
  -5   4  15  102.86    1.48   0
  -4   4  15   18.57    1.24   0
  -3   4  15   23.60    1.23   0
  -2   4  15  218.78    1.69   0
  -1   4  15   21.38    1.18   0
   0   4  15    7.99    1.15   0
   1   4  15  348.85    2.16   0
   2   4  15  152.43    1.69   0
  -4   5  15   96.71    1.42   0
  -3   5  15   47.62    1.18   0
  -2   5  15  133.07    1.51   0
  -1   5  15  131.24    1.53   0
   0   5  15  145.47    1.57   0
   1   5  15   -0.15    1.06   0
  -2  -5  16    8.02    1.20   0
  -1  -5  16    4.16    1.27   0
   0  -5  16  283.31    1.95   0
   1  -5  16   24.67    1.37   0
  -4  -4  16  424.25    2.19   0
  -3  -4  16    1.10    1.23   0
  -2  -4  16  868.59    2.79   0
  -1  -4  16    7.85    1.30   0
   0  -4  16    8.30    1.08   0
   1  -4  16  804.00    2.73   0
   2  -4  16  197.45    1.79   0
  -5  -3  16    6.43    1.17   0
  -4  -3  16  180.31    1.69   0
  -3  -3  16   79.22    1.54   0
  -2  -3  16    7.17    1.13   0
  -1  -3  16  397.31    2.15   0
   0  -3  16   40.42    1.43   0
   1  -3  16   35.46    1.44   0
   2  -3  16  389.66    2.36   0
   3  -3  16   92.55    1.55   0
  -5  -2  16  385.84    2.10   0
  -4  -2  16   98.27    1.45   0
  -3  -2  16   79.01    1.37   0
  -2  -2  16 1168.88    3.21   0
  -1  -2  16    2.07    1.39   0
   0  -2  16  729.92    2.57   0
   1  -2  16  410.53    2.05   0
   2  -2  16   20.66    1.23   0
   3  -2  16  787.61    2.71   0
  -6  -1  16   83.84    1.42   0
  -5  -1  16    9.09    1.04   0
  -4  -1  16  283.40    1.75   0
  -3  -1  16    1.09    1.12   0
  -2  -1  16    4.74    1.11   0
  -1  -1  16  541.15    2.21   0
   0  -1  16  364.01    1.98   0
   1  -1  16  821.94    2.62   0
   2  -1  16   11.21    1.30   0
   3  -1  16    1.61    1.35   0
  -6   0  16  243.56    1.86   0
  -5   0  16   19.50    1.21   0
  -4   0  16  185.14    1.62   0
  -3   0  16  403.99    2.05   0
  -2   0  16  353.71    1.92   0
  -1   0  16  121.29    1.35   0
   0   0  16  905.47    2.69   0
   1   0  16    2.89    1.18   0
   2   0  16  593.20    2.28   0
   3   0  16   62.71    1.42   0
  -6   1  16    0.63    1.22   0
  -5   1  16   92.05    1.37   0
  -4   1  16  125.04    1.41   0
  -3   1  16  119.36    1.43   0
  -2   1  16  116.06    1.33   0
  -1   1  16  453.14    2.10   0
   0   1  16   21.18    1.30   0
   1   1  16  695.42    2.44   0
   2   1  16  105.99    1.62   0
   3   1  16  100.92    1.60   0
  -6   2  16  280.54    1.96   0
  -5   2  16  175.40    1.66   0
  -4   2  16  399.72    2.06   0
  -3   2  16   65.71    1.23   0
  -2   2  16   61.65    1.27   0
  -1   2  16  501.52    2.13   0
   0   2  16  379.21    2.04   0
   1   2  16   34.85    1.35   0
   2   2  16  983.06    2.90   0
   3   2  16    2.93    1.27   0
  -5   3  16  303.43    1.92   0
  -4   3  16    4.57    1.13   0
  -3   3  16  438.56    2.21   0
  -2   3  16    2.45    1.09   0
  -1   3  16  197.50    1.54   0
   0   3  16   26.58    1.13   0
   1   3  16   28.23    1.28   0
   2   3  16    1.56    1.21   0
  -4   4  16  348.05    2.10   0
  -3   4  16    0.88    1.04   0
  -2   4  16  188.19    1.57   0
  -1   4  16  228.24    1.73   0
   0   4  16   69.59    1.38   0
   1   4  16   67.42    1.41   0
  -3   5  16  439.18    2.49   0
  -2   5  16   13.56    1.21   0
  -1   5  16  334.77    2.03   0
  -3  -4  17   92.16    1.46   0
  -2  -4  17    8.56    1.24   0
  -1  -4  17  119.42    1.49   0
   0  -4  17   51.92    1.36   0
   1  -4  17  105.36    1.61   0
  -4  -3  17    1.03    1.28   0
  -3  -3  17  105.26    1.46   0
  -2  -3  17  120.43    1.57   0
  -1  -3  17   67.67    1.43   0
   0  -3  17    2.38    1.22   0
   1  -3  17  122.91    1.76   0
   2  -3  17  136.04    1.63   0
  -5  -2  17   16.93    1.27   0
  -4  -2  17    4.42    1.21   0
  -3  -2  17  101.46    1.32   0
  -2  -2  17   64.96    1.25   0
  -1  -2  17    0.97    1.18   0
   0  -2  17   42.26    1.32   0
   1  -2  17  175.65    1.69   0
   2  -2  17   10.65    1.23   0
   3  -2  17  141.72    1.63   0
  -5  -1  17   90.69    1.37   0
  -4  -1  17  248.67    1.78   0
  -3  -1  17  119.02    1.51   0
  -2  -1  17   87.07    1.38   0
  -1  -1  17  256.17    1.68   0
   0  -1  17  129.73    1.44   0
   1  -1  17  130.72    1.53   0
   2  -1  17  189.17    1.70   0
   3  -1  17  732.17    2.58   0
  -5   0  17  235.74    1.80   0
  -4   0  17  316.11    1.90   0
  -3   0  17  128.42    1.35   0
  -2   0  17    4.65    0.98   0
  -1   0  17   72.17    1.26   0
   0   0  17   55.41    1.11   0
   1   0  17   13.41    1.13   0
   2   0  17   19.41    1.08   0
   3   0  17  102.28    1.57   0
  -5   1  17  181.13    1.69   0
  -4   1  17  506.76    2.21   0
  -3   1  17    1.42    1.00   0
  -2   1  17    9.13    1.02   0
  -1   1  17  120.08    1.41   0
   0   1  17   84.69    1.28   0
   1   1  17   23.78    1.23   0
   2   1  17   11.24    1.14   0
  -5   2  17   75.87    1.35   0
  -4   2  17  416.80    1.97   0
  -3   2  17  375.47    1.92   0
  -2   2  17  285.64    1.71   0
  -1   2  17   43.57    1.21   0
   0   2  17   64.75    1.21   0
   1   2  17  416.65    2.07   0
   2   2  17   46.52    1.24   0
  -4   3  17  172.72    1.58   0
  -3   3  17    4.86    1.10   0
  -2   3  17  168.11    1.52   0
  -1   3  17    0.30    0.97   0
   0   3  17    4.66    1.15   0
   1   3  17   27.22    1.24   0
  -3   4  17   70.31    1.35   0
  -2   4  17  172.14    1.51   0
  -1   4  17   15.45    1.17   0
   0   4  17   11.61    1.07   0
  -3  -3  18  310.50    2.06   0
  -2  -3  18  173.81    1.70   0
  -1  -3  18  173.23    1.65   0
   0  -3  18  146.19    1.58   0
   1  -3  18  261.98    1.75   0
  -4  -2  18  151.94    1.60   0
  -3  -2  18    1.03    1.09   0
  -2  -2  18   10.62    1.22   0
  -1  -2  18   33.24    1.33   0
   0  -2  18   70.56    1.30   0
   1  -2  18    4.99    1.25   0
   2  -2  18  635.27    2.61   0
  -4  -1  18   24.54    1.24   0
  -3  -1  18  780.42    2.55   0
  -2  -1  18    2.58    1.01   0
  -1  -1  18  129.18    1.36   0
   0  -1  18  242.44    1.65   0
   1  -1  18   51.86    1.29   0
   2  -1  18  154.60    1.57   0
  -4   0  18  136.40    1.45   0
  -3   0  18   -0.31    0.95   0
  -2   0  18  299.16    1.74   0
  -1   0  18   70.50    1.25   0
   0   0  18  118.53    1.39   0
   1   0  18    6.86    1.11   0
   2   0  18   39.67    1.32   0
  -4   1  18   13.30    1.09   0
  -3   1  18  455.77    1.92   0
  -2   1  18    0.09    1.03   0
  -1   1  18  398.36    1.87   0
   0   1  18  164.42    1.44   0
   1   1  18  137.79    1.52   0
   2   1  18  318.53    1.74   0
  -4   2  18   11.48    1.07   0
  -3   2  18   78.33    1.33   0
  -2   2  18  171.92    1.45   0
  -1   2  18  106.02    1.26   0
   0   2  18  387.29    1.85   0
   1   2  18    3.60    1.05   0
  -3   3  18    0.24    1.02   0
  -2   3  18  117.88    1.29   0
  -1   3  18  130.36    1.46   0
   0   3  18   11.33    1.17   0
  -2  -2  19  203.36    1.74   0
  -1  -2  19   18.46    1.26   0
   0  -2  19    2.45    1.13   0
  -3  -1  19  228.62    1.63   0
  -2  -1  19  342.15    1.97   0
  -1  -1  19  341.70    1.85   0
   0  -1  19   74.07    1.18   0
   1  -1  19   50.64    1.27   0
  -3   0  19   45.17    1.19   0
  -2   0  19    2.61    0.97   0
  -1   0  19  102.24    1.22   0
   0   0  19   18.78    1.07   0
   1   0  19   38.65    1.43   0
  -3   1  19    2.29    0.99   0
  -2   1  19   14.59    0.98   0
  -1   1  19  227.45    1.49   0
   0   1  19   94.93    1.26   0
  -2   2  19  131.17    1.35   0
  -1   2  19    2.10    0.95   0
;
_shelx_hkl_checksum              43101
_shelx_res_file
;
TITL
CELL  0.71073  6.43390  6.52020 14.27690 90.91000 99.14600 95.57400
ZERR 4  0.00050  0.00050  0.00110  0.00600  0.00600  0.00600
LATT 1
SFAC Zn Cl H  O
UNIT 4  8  24  12
L.S. 4
ACTA
BOND
FMAP 2
PLAN 1
HTAB O6 Cl1
HTAB O2 Cl2_$8
EQIV $8 -x, -y+2, -z+1
HTAB O4 Cl4
HTAB O2 Cl3_$1
HTAB O2 Cl2_$7
EQIV $7 x+1, y, z+1
HTAB O6 Cl3_$6
HTAB O1 Cl3_$6
EQIV $6 -x+1, -y+2, -z+1
HTAB O4 Cl1_$5
EQIV $5 x, y-1, z
HTAB O3 Cl2_$2
HTAB O3 Cl2_$4
EQIV $4 x, y-1, z+1
HTAB O5 Cl3_$3
HTAB O5 Cl4_$3
EQIV $3 -x+1, -y+1, -z+1
HTAB O5 Cl1_$2
HTAB O1 Cl4_$2
EQIV $2 -x, -y+1, -z+1
HTAB O3 Cl4_$1
EQIV $1 x, y, z+1
HTAB
DFIX O1 H1A 0.84 0.01
DFIX O1 H1B 0.84 0.01
DFIX H1A H1B 1.4 0.1
DFIX O2 H2A 0.84 0.01
DFIX O2 H2B 0.84 0.01
DFIX H2A H2B 1.4 0.1
DFIX O3 H3A 0.84 0.01
DFIX O3 H3B 0.84 0.01
DFIX H3A H3B 1.4 0.1
DFIX O4 H4A 0.84 0.01
DFIX O4 H4B 0.84 0.01
DFIX H4A H4B 1.4 0.1
DFIX O5 H5A 0.84 0.01
DFIX O5 H5B 0.84 0.01
DFIX H5A H5B 1.4 0.1
DFIX O6 H6A 0.84 0.01
DFIX O6 H6B 0.84 0.01
DFIX H6A H6B 1.4 0.1
WGHT    0.081600
EXTI    0.026851
FVAR       0.72244
MOLE 1
ZN1   1    0.115228    0.899782    0.241181    11.00000    0.01631    0.01664 =
         0.01182    0.00148    0.00172    0.00047
ZN2   1    0.500000    0.500000    1.000000    10.50000    0.01421    0.01364 =
         0.01422    0.00211    0.00197    0.00026
ZN3   1    0.500000    0.500000    0.500000    10.50000    0.02499    0.01508 =
         0.01623    0.00295   -0.00294    0.00053
CL4   2    0.117626    0.549374    0.219643    11.00000    0.02265    0.01568 =
         0.01803    0.00044    0.00074    0.00149
CL1   2    0.004459    0.935751    0.383278    11.00000    0.02760    0.02692 =
         0.01385   -0.00085    0.00716   -0.00023
CL2   2   -0.087271    1.025961    0.116855    11.00000    0.02139    0.01837 =
         0.01717    0.00332   -0.00233    0.00167
CL3   2    0.456138    1.041720    0.250897    11.00000    0.01682    0.02403 =
         0.02274    0.00254    0.00277   -0.00282
O1    4    0.384887    0.550788    0.856882    11.00000    0.01808    0.02309 =
         0.01845    0.00567    0.00029    0.00005
O3    4    0.201179    0.378687    1.014763    11.00000    0.02037    0.02117 =
         0.02430   -0.00325    0.00808   -0.00474
O2    4    0.423270    0.789349    1.043903    11.00000    0.02460    0.01928 =
         0.02053   -0.00027   -0.00205    0.00707
O4    4    0.190181    0.405353    0.436892    11.00000    0.03391    0.02619 =
         0.03360    0.00919   -0.01327   -0.00644
O5    4    0.421644    0.399987    0.630592    11.00000    0.03960    0.03253 =
         0.02082    0.00910    0.00111   -0.00038
O6    4    0.410314    0.789054    0.531081    11.00000    0.05037    0.02299 =
         0.02461    0.00013   -0.00109    0.01049
H3A   3    0.152712    0.406299    1.063545    11.00000    0.02734
H1A   3    0.255450    0.549048    0.836599    11.00000    0.03068
H5A   3    0.324104    0.304085    0.630861    11.00000    0.09908
H5B   3    0.522664    0.365339    0.669737    11.00000    0.10931
H3B   3    0.157825    0.254606    1.000640    11.00000    0.02790
H4B   3    0.149619    0.278116    0.432700    11.00000    0.04592
H1B   3    0.443810    0.656398    0.834915    11.00000    0.05199
H6B   3    0.429835    0.841856    0.586304    11.00000    0.04310
H2B   3    0.469021    0.845660    1.097292    11.00000    0.03349
H4A   3    0.137860    0.442646    0.383055    11.00000    0.06820
H2A   3    0.325879    0.847831    1.012083    11.00000    0.06687
H6A   3    0.312327    0.855876    0.504988    11.00000    0.06815
HKLF 4
REM
REM R1 =  0.0285 for    3120 Fo > 4sig(Fo)  and  0.0292 for all    3239 data
REM    161 parameters refined using     18 restraints
END
WGHT      0.0625      0.1987
REM Instructions for potential hydrogen bonds
HTAB O3 Cl4_$1
HTAB O1 Cl4_$2
HTAB O5 Cl1_$2
HTAB O5 Cl4_$3
HTAB O5 Cl3_$3
HTAB O3 Cl2_$4
HTAB O3 Cl2_$2
HTAB O4 Cl1_$5
HTAB O1 Cl3_$6
HTAB O6 Cl3_$6
HTAB O2 Cl2_$7
HTAB O2 Cl3_$1
HTAB O4 Cl4
HTAB O2 Cl2_$8
HTAB O6 Cl1
REM Highest difference peak  0.947,  deepest hole -0.953,  1-sigma level  0.163
Q1    1   0.1757  0.8373  0.2101  11.00000  0.05    0.95
;
_shelx_res_checksum              13290
_shelxl_version_number           .000002012
#END Tags that were not found in dictionaries
loop_
_space_group_symop_operation_xyz
'x, y, z'
'-x, -y, -z'
loop_
_atom_site_type_symbol
_atom_site_label
_atom_site_fract_x
_atom_site_fract_y
_atom_site_fract_z
_atom_site_U_iso_or_equiv
_atom_site_adp_type
_atom_site_calc_flag
_atom_site_occupancy
Zn Zn1 0.11523(3) 0.89978(3) 0.24118(2) 0.01505(10) Uani d 1
Zn Zn2 0.5000 0.5000 1.0000 0.01412(10) Uani d 1
Zn Zn3 0.5000 0.5000 0.5000 0.01952(10) Uani d 1
Cl Cl4 0.11763(7) 0.54937(6) 0.21964(3) 0.01909(11) Uani d 1
Cl Cl1 0.00446(7) 0.93575(7) 0.38328(3) 0.02259(12) Uani d 1
Cl Cl2 -0.08727(7) 1.02596(6) 0.11685(3) 0.01956(11) Uani d 1
Cl Cl3 0.45614(6) 1.04172(7) 0.25090(3) 0.02155(12) Uani d 1
O O1 0.3849(2) 0.5508(2) 0.85688(10) 0.0202(3) Uani d 1
O O3 0.2012(2) 0.3787(2) 1.01476(10) 0.0220(3) Uani d 1
O O2 0.4233(2) 0.7893(2) 1.04390(10) 0.0218(3) Uani d 1
O O4 0.1902(3) 0.4054(2) 0.43689(13) 0.0338(4) Uani d 1
O O5 0.4216(3) 0.4000(3) 0.63059(11) 0.0316(3) Uani d 1
O O6 0.4103(3) 0.7891(2) 0.53108(12) 0.0330(4) Uani d 1
H H3A 0.153(4) 0.406(4) 1.0635(14) 0.027(7) Uiso d 1
H H1A 0.2554(19) 0.549(5) 0.837(2) 0.031(7) Uiso d 1
H H5A 0.324(6) 0.304(6) 0.631(5) 0.099(19) Uiso d 1
H H5B 0.523(6) 0.365(9) 0.670(3) 0.11(2) Uiso d 1
H H3B 0.158(4) 0.255(2) 1.001(2) 0.028(7) Uiso d 1
H H4B 0.150(6) 0.2781(19) 0.433(3) 0.046(9) Uiso d 1
H H1B 0.444(5) 0.656(4) 0.835(3) 0.052(10) Uiso d 1
H H6B 0.430(6) 0.842(5) 0.5863(12) 0.043(9) Uiso d 1
H H2B 0.469(5) 0.846(5) 1.0973(12) 0.033(8) Uiso d 1
H H4A 0.138(7) 0.443(7) 0.3831(16) 0.068(13) Uiso d 1
H H2A 0.326(5) 0.848(6) 1.012(3) 0.067(12) Uiso d 1
H H6A 0.312(5) 0.856(6) 0.505(3) 0.068(13) Uiso d 1
loop_
_atom_site_aniso_label
_atom_site_aniso_U_11
_atom_site_aniso_U_22
_atom_site_aniso_U_33
_atom_site_aniso_U_12
_atom_site_aniso_U_13
_atom_site_aniso_U_23
Zn1 0.01631(13) 0.01664(13) 0.01182(13) 0.00047(8) 0.00172(8) 0.00148(8)
Zn2 0.01421(15) 0.01364(15) 0.01422(15) 0.00026(10) 0.00197(10) 0.00211(10)
Zn3 0.02499(17) 0.01508(16) 0.01623(16) 0.00053(11) -0.00294(12) 0.00295(11)
Cl4 0.0226(2) 0.01568(19) 0.0180(2) 0.00149(13) 0.00074(14) 0.00044(14)
Cl1 0.0276(2) 0.0269(2) 0.0138(2) -0.00023(16) 0.00716(15) -0.00085(15)
Cl2 0.0214(2) 0.01837(19) 0.0172(2) 0.00167(14) -0.00233(15) 0.00332(14)
Cl3 0.01682(19) 0.0240(2) 0.0227(2) -0.00282(15) 0.00277(15) 0.00254(15)
O1 0.0181(5) 0.0231(6) 0.0185(6) 0.0001(4) 0.0003(5) 0.0057(5)
O3 0.0204(6) 0.0212(6) 0.0243(7) -0.0047(5) 0.0081(5) -0.0033(5)
O2 0.0246(6) 0.0193(6) 0.0205(6) 0.0071(5) -0.0021(5) -0.0003(5)
O4 0.0339(8) 0.0262(7) 0.0336(8) -0.0064(6) -0.0133(7) 0.0092(6)
O5 0.0396(8) 0.0325(8) 0.0208(7) -0.0004(6) 0.0011(6) 0.0091(6)
O6 0.0504(10) 0.0230(7) 0.0246(8) 0.0105(6) -0.0011(7) 0.0001(6)
loop_
_atom_type_symbol
_atom_type_description
_atom_type_scat_dispersion_real
_atom_type_scat_dispersion_imag
_atom_type_scat_source
Zn Zn 0.2839 1.4301 'International Tables Vol C Tables 4.2.6.8 and 6.1.1.4'
Cl Cl 0.1484 0.1585 'International Tables Vol C Tables 4.2.6.8 and 6.1.1.4'
H H 0.0000 0.0000 'International Tables Vol C Tables 4.2.6.8 and 6.1.1.4'
O O 0.0106 0.0060 'International Tables Vol C Tables 4.2.6.8 and 6.1.1.4'
loop_
_geom_angle_atom_site_label_1
_geom_angle_atom_site_label_2
_geom_angle_atom_site_label_3
_geom_angle_site_symmetry_1
_geom_angle_site_symmetry_3
_geom_angle
Cl2 Zn1 Cl1 . . 115.478(19)
Cl2 Zn1 Cl3 . . 109.745(18)
Cl1 Zn1 Cl3 . . 110.036(19)
Cl2 Zn1 Cl4 . . 109.947(18)
Cl1 Zn1 Cl4 . . 104.334(18)
Cl3 Zn1 Cl4 . . 106.860(18)
O3 Zn2 O3 . 2_667 180.0
O3 Zn2 O1 . . 88.54(5)
O3 Zn2 O1 2_667 . 91.46(5)
O3 Zn2 O1 . 2_667 91.46(5)
O3 Zn2 O1 2_667 2_667 88.54(5)
O1 Zn2 O1 . 2_667 180.00(3)
O3 Zn2 O2 . . 88.50(6)
O3 Zn2 O2 2_667 . 91.50(6)
O1 Zn2 O2 . . 92.17(5)
O1 Zn2 O2 2_667 . 87.83(5)
O3 Zn2 O2 . 2_667 91.50(6)
O3 Zn2 O2 2_667 2_667 88.50(6)
O1 Zn2 O2 . 2_667 87.84(5)
O1 Zn2 O2 2_667 2_667 92.16(5)
O2 Zn2 O2 . 2_667 180.0
O4 Zn3 O4 . 2_666 180.0
O4 Zn3 O6 . . 89.91(7)
O4 Zn3 O6 2_666 . 90.09(7)
O4 Zn3 O6 . 2_666 90.09(7)
O4 Zn3 O6 2_666 2_666 89.91(7)
O6 Zn3 O6 . 2_666 180.0
O4 Zn3 O5 . 2_666 91.29(7)
O4 Zn3 O5 2_666 2_666 88.71(7)
O6 Zn3 O5 . 2_666 91.31(7)
O6 Zn3 O5 2_666 2_666 88.69(7)
O4 Zn3 O5 . . 88.71(7)
O4 Zn3 O5 2_666 . 91.29(7)
O6 Zn3 O5 . . 88.69(7)
O6 Zn3 O5 2_666 . 91.31(7)
O5 Zn3 O5 2_666 . 180.00(9)
loop_
_geom_bond_atom_site_label_1
_geom_bond_atom_site_label_2
_geom_bond_site_symmetry_2
_geom_bond_distance
Zn1 Cl2 . 2.2460(5)
Zn1 Cl1 . 2.2706(5)
Zn1 Cl3 . 2.2785(5)
Zn1 Cl4 . 2.3024(5)
Zn2 O3 . 2.0506(13)
Zn2 O3 2_667 2.0506(13)
Zn2 O1 . 2.1027(13)
Zn2 O1 2_667 2.1027(13)
Zn2 O2 . 2.1066(13)
Zn2 O2 2_667 2.1066(13)
Zn3 O4 . 2.0829(16)
Zn3 O4 2_666 2.0829(16)
Zn3 O6 . 2.0852(16)
Zn3 O6 2_666 2.0852(16)
Zn3 O5 2_666 2.1045(16)
Zn3 O5 . 2.1045(16)
loop_
_geom_hbond_atom_site_label_D
_geom_hbond_atom_site_label_H
_geom_hbond_atom_site_label_A
_geom_hbond_site_symmetry_A
_geom_hbond_distance_DH
_geom_hbond_distance_HA
_geom_hbond_distance_DA
_geom_hbond_angle_DHA
O1 H1B Cl3 2_676 0.843(10) 2.423(13) 3.2520(14) 168(4)
O1 H1A Cl4 2_566 0.836(10) 2.427(12) 3.2431(14) 166(3)
O2 H2A Cl2 2_576 0.840(10) 2.412(16) 3.2260(14) 163(4)
O2 H2B Cl3 1_556 0.837(10) 2.538(15) 3.3264(15) 157(3)
O3 H3B Cl2 2_566 0.840(10) 2.422(18) 3.1715(14) 149(3)
O3 H3B Cl2 1_546 0.840(10) 2.81(3) 3.3159(14) 120(2)
O3 H3A Cl4 1_556 0.831(10) 2.454(13) 3.2552(15) 162(3)
O4 H4A Cl4 . 0.838(10) 2.432(19) 3.2307(18) 159(4)
O4 H4B Cl1 1_545 0.843(10) 2.385(13) 3.2114(17) 167(4)
O5 H5B Cl3 2_666 0.838(10) 2.91(5) 3.4565(17) 125(5)
O5 H5B Cl4 2_666 0.838(10) 2.59(3) 3.3527(18) 151(6)
O5 H5A Cl1 2_566 0.842(10) 2.483(14) 3.3159(18) 170(5)
O6 H6A Cl1 . 0.843(10) 2.52(2) 3.3142(18) 158(4)
O6 H6B Cl3 2_676 0.841(10) 2.410(12) 3.2405(17) 169(3)
