#------------------------------------------------------------------------------
#$Date: 2015-06-28 04:41:06 +0300 (Sun, 28 Jun 2015) $
#$Revision: 139736 $
#$URL: svn://www.crystallography.net/cod/cif/2/24/08/2240877.cif $
#------------------------------------------------------------------------------
#
# This file is available in the Crystallography Open Database (COD),
# http://www.crystallography.net/. The original data for this entry
# were provided by IUCr Journals, http://journals.iucr.org/.
#
# The file may be used within the scientific community so long as
# proper attribution is given to the journal article from which the
# data were obtained.
#
data_2240877
loop_
_publ_author_name
'Montgomery, Matthew J.'
'O'Connor, Thomas J.'
'Tanski, Joseph M.'
_publ_section_title
;
 Crystal structures of 4-chloropyridine-2-carbonitrile and
 6-chloropyridine-2-carbonitrile exhibit different intermolecular
 \p-stacking, C---H&#x00B7;&#x00B7;&#x00B7;N~nitrile~ and
 C---H&#x00B7;&#x00B7;&#x00B7;N~pyridine~ interactions
;
_journal_coeditor_code           RZ5161
_journal_issue                   7
_journal_name_full               'Acta Crystallographica Section E'
_journal_page_first              852
_journal_page_last               856
_journal_paper_doi               10.1107/S2056989015011767
_journal_volume                  71
_journal_year                    2015
_chemical_formula_iupac          'C6 H3 Cl N2'
_chemical_formula_moiety         'C6 H3 Cl N2'
_chemical_formula_sum            'C6 H3 Cl N2'
_chemical_formula_weight         138.55
_chemical_name_systematic
;
6-Chloropyridine-2-carbonitrile
;
_space_group_crystal_system      monoclinic
_space_group_IT_number           14
_space_group_name_Hall           '-P 2yn'
_space_group_name_H-M_alt        'P 1 21/n 1'
_symmetry_space_group_name_Hall  '-P 2yn'
_symmetry_space_group_name_H-M   'P 1 21/n 1'
_atom_sites_solution_hydrogens   geom
_cell_angle_alpha                90
_cell_angle_beta                 112.492(4)
_cell_angle_gamma                90
_cell_formula_units_Z            4
_cell_length_a                   6.1739(15)
_cell_length_b                   15.238(4)
_cell_length_c                   7.0123(18)
_cell_measurement_reflns_used    9960
_cell_measurement_temperature    125.(2)
_cell_measurement_theta_max      30.5103
_cell_measurement_theta_min      2.6724
_cell_volume                     609.5(3)
_computing_cell_refinement
;
APEX2 (Bruker, 2013)
;
_computing_data_collection
;
APEX2 (Bruker, 2013)
;
_computing_data_reduction
;
SAINT (Bruker, 2013)
;
_computing_molecular_graphics
;
SHELXTL2014 (Sheldrick, 2008)
;
_computing_publication_material
;
SHELXTL2014 (Sheldrick, 2008), OLEX2 (Dolomanov <i>et al.</i>,
2009) and Mercury
(Macrae <i>et al.</i>,  2008)
;
_computing_structure_refinement
;
SHELXL2014 (Sheldrick, 2015)
;
_computing_structure_solution
;
SHELXS2014 (Sheldrick, 2008)
;
_diffrn_ambient_temperature      125.(2)
_diffrn_detector_area_resol_mean 8.3333
_diffrn_measured_fraction_theta_full 0.992
_diffrn_measured_fraction_theta_max 0.992
_diffrn_measurement_device_type  'Bruker APEXII CCD'
_diffrn_measurement_method       '\f and \w scans'
_diffrn_radiation_monochromator  graphite
_diffrn_radiation_source         'fine-focus sealed tube'
_diffrn_radiation_type           MoK\a
_diffrn_radiation_wavelength     0.71073
_diffrn_reflns_av_R_equivalents  0.0310
_diffrn_reflns_limit_h_max       8
_diffrn_reflns_limit_h_min       -8
_diffrn_reflns_limit_k_max       21
_diffrn_reflns_limit_k_min       -21
_diffrn_reflns_limit_l_max       9
_diffrn_reflns_limit_l_min       -10
_diffrn_reflns_number            15460
_diffrn_reflns_theta_full        30.63
_diffrn_reflns_theta_max         30.63
_diffrn_reflns_theta_min         2.67
_exptl_absorpt_coefficient_mu    0.517
_exptl_absorpt_correction_T_max  0.98
_exptl_absorpt_correction_T_min  0.82
_exptl_absorpt_correction_type   multi-scan
_exptl_absorpt_process_details
;
(SADABS; Bruker, 2013)
;
_exptl_crystal_colour            colourless
_exptl_crystal_density_diffrn    1.510
_exptl_crystal_density_method    'not measured'
_exptl_crystal_description       plate
_exptl_crystal_F_000             280
_exptl_crystal_size_max          0.200
_exptl_crystal_size_mid          0.150
_exptl_crystal_size_min          0.030
_refine_diff_density_max         0.478
_refine_diff_density_min         -0.188
_refine_ls_extinction_method     none
_refine_ls_goodness_of_fit_ref   1.086
_refine_ls_hydrogen_treatment    constr
_refine_ls_matrix_type           full
_refine_ls_number_parameters     82
_refine_ls_number_reflns         1868
_refine_ls_number_restraints     0
_refine_ls_restrained_S_all      1.086
_refine_ls_R_factor_all          0.0328
_refine_ls_R_factor_gt           0.0284
_refine_ls_shift/su_max          0.001
_refine_ls_shift/su_mean         0.000
_refine_ls_structure_factor_coef Fsqd
_refine_ls_weighting_details
'w=1/[\s^2^(Fo^2^)+(0.0424P)^2^+0.1697P] where P=(Fo^2^+2Fc^2^)/3'
_refine_ls_weighting_scheme      calc
_refine_ls_wR_factor_gt          0.0784
_refine_ls_wR_factor_ref         0.0818
_reflns_number_gt                1657
_reflns_number_total             1868
_reflns_threshold_expression     'I > 2\s(I)'
_cod_data_source_file            rz5161sup1.cif
_cod_data_source_block           II
_cod_database_code               2240877
_shelx_hkl_file
;
   1   0   0   -0.65    0.04
   1   0   0   -0.67    0.03
   1   0   0   -0.63    0.02
   1   0   0   -0.66    0.03
   1   0   0   -0.69    0.03
   2   0   0  485.84   15.11
   2   0   0  499.04   15.31
   2   0   0  485.20   15.28
   2   0   0  487.55   14.88
   2   0   0  491.56   14.89
   2   0   0  495.50   15.03
  -2   0   0  547.58   15.20
   3   0   0   -0.10    0.06
   3   0   0   -0.08    0.06
   3   0   0   -0.07    0.04
   3   0   0   -0.04    0.02
  -3   0   0   -0.12    0.05
   3   0   0   -0.08    0.03
   3   0   0   -0.03    0.02
   4   0   0    5.44    0.21
  -4   0   0    6.39    0.30
  -4   0   0    6.16    0.25
   4   0   0    5.25    0.32
   4   0   0    5.60    0.33
   4   0   0    5.88    0.21
   4   0   0    5.97    0.28
   5   0   0   -0.11    0.08
  -5   0   0    0.05    0.06
   5   0   0   -0.02    0.04
  -5   0   0   -0.07    0.08
   5   0   0    0.03    0.04
   5   0   0    0.03    0.10
   5   0   0    0.13    0.07
   6   0   0   41.95    1.45
  -6   0   0   44.53    1.59
  -6   0   0   42.56    1.48
   6   0   0   41.55    1.34
   6   0   0   41.76    1.57
   7   0   0    0.03    0.06
   7   0   0   -0.01    0.13
  -7   0   0   -0.07    0.16
   8   0   0   13.01    0.78
   8   0   0   12.99    0.50
   0   1   0   -0.12    0.01
  -1  -1   0    9.53    0.28
   1  -1   0    8.94    0.30
   1  -1   0    9.04    0.31
   1  -1   0    8.65    0.30
  -1  -1   0   10.10    0.31
   1  -1   0    8.37    0.29
   1  -1   0    8.81    0.31
   1   1   0    8.92    0.28
   1   1   0    8.79    0.28
   1   1   0    8.90    0.32
   1   1   0    8.23    0.31
   1   1   0    8.71    0.29
   2  -1   0    4.60    0.20
  -2  -1   0    4.92    0.18
  -2  -1   0    4.94    0.22
   2  -1   0    4.88    0.23
   2  -1   0    4.86    0.23
   2  -1   0    4.61    0.19
   2  -1   0    4.71    0.20
   2   1   0    4.81    0.17
   2   1   0    4.96    0.17
   2   1   0    4.73    0.19
   2   1   0    4.81    0.23
   2   1   0    4.77    0.23
   3  -1   0   29.35    1.01
   3  -1   0   28.64    0.96
  -3  -1   0   30.22    0.92
   3  -1   0   29.61    0.97
   3  -1   0   28.73    1.01
  -3  -1   0   29.92    0.98
   3  -1   0   28.68    0.94
   3   1   0   28.51    1.02
  -3   1   0   30.86    0.98
   3   1   0   28.97    0.91
   3   1   0   29.37    0.95
   3   1   0   29.51    1.02
   3   1   0   28.68    0.91
   4  -1   0    0.08    0.08
  -4  -1   0    0.18    0.09
   4  -1   0    0.13    0.03
   4  -1   0    0.11    0.06
   4  -1   0    0.16    0.09
   4  -1   0    0.08    0.03
   4  -1   0    0.11    0.05
  -4  -1   0    0.11    0.05
   4   1   0    0.10    0.06
   4   1   0    0.04    0.06
  -4   1   0    0.12    0.07
   4   1   0    0.07    0.08
   4   1   0    0.11    0.04
   4   1   0    0.11    0.04
   5  -1   0   18.31    0.59
   5  -1   0   18.42    0.78
  -5  -1   0   19.05    0.73
   5  -1   0   17.89    0.77
   5  -1   0   18.53    0.70
   5  -1   0   17.22    0.59
  -5   1   0   19.23    0.78
   5   1   0   17.51    0.61
   5   1   0   17.76    0.68
  -5   1   0   19.53    0.72
   5   1   0   17.95    0.79
  -5   1   0   18.48    0.65
   5   1   0   18.09    0.78
  -6  -1   0    5.13    0.35
   6  -1   0    4.61    0.37
   6  -1   0    5.15    0.32
   6  -1   0    4.68    0.21
  -6  -1   0    5.16    0.41
   6   1   0    4.73    0.38
   6   1   0    5.04    0.23
  -6   1   0    5.24    0.40
  -6   1   0    4.84    0.33
   7  -1   0    1.42    0.12
   7  -1   0    1.53    0.28
  -7  -1   0    1.42    0.23
  -7  -1   0    1.17    0.27
   7   1   0    1.35    0.27
   7   1   0    1.56    0.14
  -7   1   0    1.52    0.29
   8  -1   0    2.12    0.34
   8  -1   0    1.92    0.14
  -8  -1   0    2.09    0.38
   8   1   0    1.54    0.16
   8   1   0    1.67    0.33
  -8   1   0    1.32    0.29
   0  -2   0   88.19    2.85
   0  -2   0   94.89    2.86
   0  -2   0   94.42    2.86
   0   2   0   93.94    2.85
   0   2   0   98.46    2.86
   0   2   0   94.05    2.84
   1  -2   0    5.93    0.22
   1  -2   0    5.81    0.21
  -1  -2   0    6.20    0.23
  -1  -2   0    5.83    0.20
  -1  -2   0    6.06    0.19
   1  -2   0    5.67    0.22
   1  -2   0    5.30    0.21
   1   2   0    5.85    0.20
   1   2   0    5.50    0.23
   1   2   0    5.52    0.20
   1   2   0    5.62    0.20
  -1   2   0    6.46    0.24
   1   2   0    5.66    0.23
   2  -2   0    2.38    0.15
  -2  -2   0    2.70    0.15
   2  -2   0    2.21    0.12
   2  -2   0    2.37    0.14
   2  -2   0    2.52    0.13
  -2  -2   0    2.45    0.10
   2  -2   0    2.24    0.15
   2   2   0    2.45    0.11
   2   2   0    2.38    0.12
   2   2   0    2.66    0.17
   2   2   0    2.25    0.11
   2   2   0    2.30    0.16
  -3  -2   0    3.87    0.22
   3  -2   0    3.70    0.20
   3  -2   0    3.55    0.22
   3  -2   0    3.68    0.22
  -3  -2   0    3.77    0.15
   3  -2   0    3.44    0.19
   3  -2   0    3.42    0.18
   3   2   0    3.44    0.23
   3   2   0    3.44    0.23
   3   2   0    3.48    0.16
   3   2   0    3.59    0.16
   3   2   0    3.58    0.18
  -4  -2   0    8.27    0.30
   4  -2   0    8.10    0.33
   4  -2   0    7.48    0.36
   4  -2   0    7.55    0.39
  -4  -2   0    8.01    0.38
   4  -2   0    7.61    0.40
   4   2   0    7.56    0.41
   4   2   0    8.18    0.30
  -4   2   0    7.88    0.36
   4   2   0    7.90    0.33
   4   2   0    7.52    0.40
   4   2   0    8.14    0.30
   5  -2   0    2.33    0.20
  -5  -2   0    2.25    0.23
   5  -2   0    2.24    0.11
   5  -2   0    2.32    0.18
   5  -2   0    2.20    0.24
   5  -2   0    2.16    0.10
  -5   2   0    2.73    0.26
   5   2   0    2.30    0.15
   5   2   0    2.45    0.25
   5   2   0    2.23    0.24
   5   2   0    2.14    0.18
  -5   2   0    2.22    0.21
   6  -2   0    0.47    0.13
  -6  -2   0    0.36    0.17
  -6  -2   0    0.40    0.14
   6  -2   0    0.25    0.05
   6  -2   0    0.30    0.14
  -6   2   0    0.30    0.12
  -6   2   0    0.31    0.16
   6   2   0    0.21    0.15
   6   2   0    0.21    0.07
   7  -2   0    2.84    0.16
   7  -2   0    2.81    0.34
  -7  -2   0    3.05    0.37
  -7  -2   0    3.21    0.32
   7   2   0    2.73    0.34
  -7   2   0    2.86    0.34
   7   2   0    3.08    0.20
   8  -2   0    0.20    0.06
   8  -2   0    0.02    0.15
  -8  -2   0    0.23    0.22
  -8   2   0   -0.12    0.15
   8   2   0    0.25    0.09
   8   2   0    0.23    0.19
   0  -3   0   -0.12    0.03
   0  -3   0   -0.06    0.03
   0  -3   0   -0.08    0.04
   0   3   0    0.02    0.05
   0   3   0   -0.06    0.04
   0   3   0   -0.04    0.02
   0   3   0   -0.03    0.03
   1  -3   0   47.53    1.53
   1  -3   0   49.13    1.55
  -1  -3   0   52.66    1.58
   1  -3   0   49.41    1.57
  -1  -3   0   50.47    1.53
   1  -3   0   50.46    1.56
  -1  -3   0   50.72    1.55
   1  -3   0   50.06    1.53
  -1   3   0   54.20    1.58
   1   3   0   48.70    1.55
   1   3   0   50.11    1.54
   1   3   0   50.62    1.58
   1   3   0   50.90    1.59
   2  -3   0   13.17    0.47
  -2  -3   0   14.27    0.50
   2  -3   0   12.85    0.47
   2  -3   0   13.04    0.49
   2  -3   0   13.46    0.50
   2  -3   0   13.19    0.48
   2   3   0   13.21    0.51
   2   3   0   13.72    0.46
   2   3   0   13.47    0.52
   2   3   0   13.46    0.45
   2   3   0   13.22    0.45
   3  -3   0    0.36    0.08
   3  -3   0    0.41    0.07
   3  -3   0    0.25    0.07
   3  -3   0    0.17    0.06
   3  -3   0    0.24    0.08
  -3  -3   0    0.33    0.05
  -3  -3   0    0.45    0.10
   3   3   0    0.33    0.06
   3   3   0    0.29    0.10
   3   3   0    0.27    0.05
   3   3   0    0.24    0.09
   3   3   0    0.37    0.06
   4  -3   0    2.23    0.18
   4  -3   0    2.10    0.20
  -4  -3   0    2.43    0.21
   4  -3   0    2.59    0.17
   4  -3   0    2.26    0.20
   4  -3   0    2.32    0.17
   4   3   0    2.12    0.21
   4   3   0    2.41    0.14
   4   3   0    2.28    0.15
   4   3   0    2.45    0.14
   4   3   0    2.18    0.21
  -5  -3   0    0.09    0.10
   5  -3   0    0.12    0.07
   5  -3   0    0.06    0.10
   5  -3   0   -0.06    0.06
   5   3   0    0.09    0.11
   5   3   0   -0.02    0.09
   5   3   0    0.05    0.05
  -5   3   0    0.07    0.12
  -5   3   0   -0.06    0.07
   5   3   0    0.07    0.06
  -6  -3   0    0.38    0.15
   6  -3   0    1.06    0.18
   6  -3   0    0.50    0.06
   6  -3   0    0.44    0.16
  -6  -3   0    0.70    0.22
   6   3   0    0.64    0.17
   6   3   0    0.75    0.11
  -6   3   0    0.69    0.15
  -6   3   0    0.38    0.17
  -7  -3   0    0.09    0.19
   7  -3   0    0.01    0.04
  -7  -3   0    0.09    0.13
   7  -3   0   -0.03    0.13
   7   3   0   -0.01    0.06
  -7   3   0   -0.04    0.14
   7   3   0    0.07    0.14
   8  -3   0    1.22    0.28
   8  -3   0    1.04    0.10
  -8  -3   0    1.06    0.29
  -8   3   0    0.82    0.24
   8   3   0    0.51    0.22
   8   3   0    1.10    0.15
   0  -4   0   20.86    0.65
   0  -4   0   21.01    0.65
   0  -4   0   20.54    0.66
   0   4   0   20.17    0.67
   0   4   0   18.15    0.66
   0   4   0   20.64    0.65
   0   4   0   20.37    0.63
   1  -4   0    0.23    0.04
   1  -4   0    0.18    0.05
   1  -4   0    0.20    0.04
  -1  -4   0    0.25    0.07
  -1  -4   0    0.27    0.05
   1  -4   0    0.17    0.05
  -1  -4   0    0.25    0.04
   1  -4   0    0.22    0.05
  -1   4   0    0.33    0.07
   1   4   0    0.21    0.04
   1   4   0    0.24    0.06
   1   4   0    0.35    0.05
   1   4   0    0.25    0.07
  -1   4   0    0.08    0.03
  -2  -4   0    1.26    0.07
   2  -4   0    1.22    0.10
   2  -4   0    1.28    0.10
  -2  -4   0    1.43    0.13
   2  -4   0    1.15    0.11
   2  -4   0    1.22    0.06
   2  -4   0    1.28    0.11
   2  -4   0    1.31    0.06
   2   4   0    1.33    0.13
   2   4   0    1.28    0.09
   2   4   0    1.39    0.14
   2   4   0    1.23    0.10
  -2   4   0    1.29    0.13
   3  -4   0    0.69    0.09
  -3  -4   0    0.67    0.06
   3  -4   0    0.65    0.11
   3  -4   0    0.54    0.11
  -3  -4   0    0.76    0.12
   3  -4   0    0.55    0.09
   3  -4   0    0.79    0.11
   3   4   0    0.58    0.12
   3   4   0    0.74    0.13
   3   4   0    0.67    0.08
   3   4   0    0.63    0.08
   3   4   0    0.73    0.08
   4  -4   0    6.46    0.33
  -4  -4   0    6.83    0.36
   4  -4   0    6.72    0.31
   4  -4   0    6.85    0.32
   4  -4   0    6.61    0.36
   4   4   0    6.41    0.38
   4   4   0    6.45    0.28
  -4   4   0    6.63    0.35
   4   4   0    6.57    0.39
   4   4   0    6.32    0.29
   5  -4   0    0.72    0.12
  -5  -4   0    1.06    0.18
   5  -4   0    0.61    0.15
   5  -4   0    0.69    0.14
  -5   4   0    1.01    0.16
   5   4   0    0.86    0.18
   5   4   0    0.76    0.18
   5   4   0    0.79    0.11
   5   4   0    0.65    0.11
  -5   4   0    0.50    0.14
  -6  -4   0   13.50    0.63
   6  -4   0   12.77    0.42
   6  -4   0   12.51    0.65
   6  -4   0   13.86    0.61
  -6  -4   0   12.97    0.69
   6   4   0   12.76    0.51
   6   4   0   13.71    0.69
  -6   4   0   11.62    0.62
  -6   4   0   13.55    0.59
  -7  -4   0    0.14    0.14
  -7  -4   0    0.06    0.19
   7  -4   0    0.09    0.04
   7  -4   0   -0.06    0.11
   7  -4   0   -0.08    0.13
   7   4   0    0.13    0.08
  -7   4   0    0.24    0.17
   7   4   0    0.16    0.14
   8  -4   0    2.33    0.13
   8   4   0    2.90    0.38
   8   4   0    2.49    0.22
   0  -5   0   -0.11    0.04
   0  -5   0   -0.04    0.04
   0  -5   0   -0.04    0.04
   0   5   0   -0.04    0.05
   0   5   0   -0.07    0.03
   0   5   0   -0.08    0.04
   0   5   0   -0.03    0.02
   1  -5   0  144.38    4.33
   1  -5   0  141.93    4.34
   1  -5   0  145.16    4.35
  -1  -5   0  143.89    4.36
   1  -5   0  144.94    4.31
   1  -5   0  140.08    4.31
  -1  -5   0  141.04    4.33
  -1  -5   0  144.23    4.31
   1   5   0  147.78    4.37
   1   5   0  142.53    4.34
   1   5   0  144.28    4.33
   1   5   0  140.97    4.32
  -1   5   0  154.08    4.36
  -1   5   0  130.35    4.34
  -2  -5   0    5.75    0.27
   2  -5   0    5.19    0.25
   2  -5   0    5.33    0.20
  -2  -5   0    5.26    0.22
  -2  -5   0    5.15    0.19
   2  -5   0    5.26    0.19
   2  -5   0    5.13    0.23
   2  -5   0    5.54    0.25
  -2   5   0    5.56    0.23
   2   5   0    4.92    0.23
   2   5   0    5.41    0.22
   2   5   0    5.27    0.27
   2   5   0    5.61    0.28
  -2   5   0    5.66    0.27
   3  -5   0   24.55    0.85
   3  -5   0   24.82    0.78
  -3  -5   0   25.61    0.79
  -3  -5   0   26.01    0.90
   3  -5   0   25.15    0.87
   3  -5   0   24.15    0.88
   3  -5   0   25.10    0.78
   3   5   0   25.55    0.83
  -3   5   0   25.66    0.87
   3   5   0   25.46    0.84
   3   5   0   25.97    0.93
  -3   5   0   27.22    0.91
   3   5   0   25.30    0.93
   3   5   0   24.48    0.84
   4  -5   0    6.04    0.30
   4  -5   0    6.02    0.33
   4  -5   0    5.93    0.30
  -4  -5   0    5.43    0.33
   4   5   0    5.83    0.27
   4   5   0    5.77    0.36
   4   5   0    6.06    0.37
  -4   5   0    6.23    0.33
  -4   5   0    6.36    0.37
   4   5   0    5.86    0.27
   5  -5   0   13.55    0.55
   5  -5   0   12.97    0.53
   5  -5   0   12.97    0.57
  -5  -5   0   12.94    0.59
   5   5   0   12.62    0.50
  -5   5   0   13.20    0.59
   5   5   0   12.30    0.63
   5   5   0   12.39    0.64
  -5   5   0   12.61    0.61
   6  -5   0    1.64    0.09
   6  -5   0    1.70    0.21
  -6  -5   0    2.16    0.31
  -6  -5   0    1.84    0.24
   6  -5   0    1.45    0.18
  -6   5   0    1.30    0.23
  -6   5   0    2.18    0.28
   6   5   0    1.93    0.27
   6   5   0    1.48    0.16
  -7  -5   0    5.20    0.40
  -7  -5   0    4.88    0.46
   7  -5   0    4.92    0.38
   7   5   0    4.42    0.29
  -7   5   0    5.36    0.44
   7   5   0    5.23    0.44
  -7   5   0    4.19    0.38
   0  -6   0   54.15    1.69
   0  -6   0   54.29    1.67
   0  -6   0   53.59    1.67
   0   6   0   52.83    1.69
   0   6   0   52.73    1.66
   0   6   0   53.50    1.63
   0   6   0   55.28    1.71
  -1  -6   0   60.76    1.88
   1  -6   0   57.99    1.88
   1  -6   0   61.90    1.92
   1  -6   0   60.59    1.88
  -1  -6   0   61.90    1.90
  -1  -6   0   61.38    1.93
   1  -6   0   60.07    1.91
   1   6   0   60.38    1.90
   1   6   0   59.92    1.91
   1   6   0   64.13    1.95
   1   6   0   64.48    1.90
  -1   6   0   61.11    1.93
  -1   6   0   63.24    1.93
   2  -6   0  272.25    8.23
  -2  -6   0  271.93    8.14
  -2  -6   0  279.15    8.20
  -2  -6   0  271.43    8.11
   2  -6   0  258.74    8.14
   2  -6   0  266.30    8.19
   2  -6   0  267.45    8.17
   2  -6   0  268.38    8.18
   2   6   0  278.15    8.22
   2   6   0  270.08    8.13
   2   6   0  271.23    8.15
   2   6   0  277.22    8.20
   3  -6   0    7.24    0.35
  -3  -6   0    7.07    0.25
   3  -6   0    7.07    0.31
   3  -6   0    7.22    0.25
   3  -6   0    7.22    0.25
   3  -6   0    7.00    0.33
  -3  -6   0    6.86    0.35
   3   6   0    7.45    0.38
   3   6   0    6.68    0.36
  -3   6   0    6.90    0.31
   3   6   0    7.05    0.29
   3   6   0    7.31    0.31
  -3   6   0    7.41    0.36
   4  -6   0  163.37    4.87
  -4  -6   0  166.46    5.04
   4  -6   0  165.95    4.99
   4  -6   0  161.81    5.02
   4  -6   0  164.82    4.87
   4  -6   0  161.30    4.98
  -4   6   0  164.23    5.04
   4   6   0  161.79    5.09
  -4   6   0  154.43    4.99
   4   6   0  161.15    4.96
   4   6   0  162.32    4.94
   4   6   0  163.57    5.09
   5  -6   0   10.97    0.37
   5  -6   0   11.69    0.54
   5  -6   0   11.44    0.50
  -5  -6   0   10.91    0.55
   5  -6   0   11.20    0.37
   5  -6   0   11.78    0.50
  -5   6   0   11.57    0.56
  -5   6   0   11.54    0.53
   5   6   0   10.85    0.47
   5   6   0   11.26    0.59
   5   6   0   11.21    0.60
   6  -6   0    9.33    0.46
   6  -6   0    9.48    0.50
   6  -6   0    8.96    0.31
  -6  -6   0    9.10    0.56
  -6  -6   0    9.18    0.52
   6   6   0    8.71    0.56
   6   6   0    8.75    0.42
  -6   6   0    9.40    0.53
  -6   6   0    9.76    0.51
  -7  -6   0    0.26    0.20
   7  -6   0    0.39    0.15
  -7  -6   0    0.51    0.17
   7   6   0    0.65    0.21
   7   6   0    0.29    0.12
  -7   6   0    0.48    0.18
   0  -7   0   -0.06    0.03
   0  -7   0   -0.01    0.04
   0  -7   0    0.01    0.04
   0   7   0   -0.02    0.06
   0   7   0    0.04    0.04
   0   7   0    0.03    0.05
  -1  -7   0   22.69    0.72
  -1  -7   0   22.56    0.77
   1  -7   0   21.76    0.75
   1  -7   0   21.51    0.75
   1  -7   0   21.69    0.72
  -1  -7   0   22.39    0.74
   1  -7   0   22.12    0.73
  -1   7   0   22.70    0.78
   1   7   0   22.22    0.74
   1   7   0   21.82    0.74
  -1   7   0   21.79    0.77
   1   7   0   21.20    0.74
   1   7   0   21.73    0.79
   2  -7   0   -0.05    0.04
   2  -7   0    0.04    0.05
  -2  -7   0    0.02    0.03
  -2  -7   0    0.05    0.05
   2  -7   0    0.00    0.03
   2  -7   0    0.00    0.03
  -2  -7   0    0.01    0.06
   2  -7   0   -0.03    0.05
   2   7   0    0.05    0.06
   2   7   0    0.02    0.04
  -2   7   0    0.02    0.07
  -2   7   0    0.11    0.07
  -2   7   0    0.00    0.03
   2   7   0    0.04    0.05
   2   7   0    0.02    0.06
   3  -7   0    1.42    0.09
  -3  -7   0    1.20    0.08
  -3  -7   0    1.04    0.16
   3  -7   0    1.18    0.14
   3  -7   0    1.19    0.14
   3  -7   0    1.07    0.12
   3  -7   0    1.40    0.09
   3   7   0    1.33    0.11
  -3   7   0    1.61    0.18
  -3   7   0    1.14    0.11
   3   7   0    1.43    0.17
   3   7   0    1.33    0.17
   3   7   0    1.26    0.13
   4  -7   0    4.41    0.29
   4  -7   0    4.40    0.18
   4  -7   0    4.80    0.26
   4  -7   0    4.24    0.27
  -4  -7   0    4.56    0.31
   4  -7   0    4.52    0.18
   4   7   0    4.51    0.25
  -4   7   0    4.65    0.26
   4   7   0    4.25    0.31
  -4   7   0    4.23    0.31
   4   7   0    4.30    0.23
   4   7   0    4.44    0.33
  -5  -7   0    4.04    0.32
   5  -7   0    3.94    0.17
   5  -7   0    4.07    0.27
  -5  -7   0    3.41    0.32
   5  -7   0    4.00    0.28
   5  -7   0    3.88    0.30
  -5   7   0    3.79    0.28
  -5   7   0    4.25    0.33
   5   7   0    3.83    0.34
   5   7   0    3.70    0.32
   5   7   0    4.26    0.26
  -6  -7   0    0.45    0.17
   6  -7   0    0.52    0.06
   6  -7   0    0.14    0.13
  -6  -7   0    0.39    0.17
   6  -7   0    0.36    0.12
  -6   7   0    0.40    0.17
   6   7   0    0.44    0.11
   6   7   0    0.43    0.18
  -7  -7   0    0.47    0.21
   7  -7   0   -0.06    0.12
   7  -7   0    0.18    0.04
  -7  -7   0    0.41    0.18
   7   7   0    0.13    0.10
  -7   7   0    0.13    0.17
   7   7   0    0.21    0.15
   0  -8   0    0.10    0.06
   0  -8   0    0.14    0.06
   0  -8   0    0.22    0.07
   0   8   0    0.22    0.06
   0   8   0    0.17    0.07
   0   8   0    0.16    0.09
   1  -8   0    2.61    0.15
  -1  -8   0    2.96    0.19
   1  -8   0    2.59    0.17
  -1  -8   0    2.71    0.17
   1  -8   0    2.55    0.17
  -1  -8   0    2.68    0.15
   1   8   0    2.67    0.16
   1   8   0    2.76    0.17
   1   8   0    2.51    0.19
  -1   8   0    2.46    0.19
   1   8   0    2.59    0.16
  -1   8   0    2.83    0.20
   2  -8   0   13.36    0.51
  -2  -8   0   13.15    0.50
  -2  -8   0   13.61    0.46
   2  -8   0   12.95    0.52
   2  -8   0   13.31    0.47
   2  -8   0   13.26    0.47
  -2  -8   0   13.04    0.54
   2   8   0   13.59    0.53
   2   8   0   13.52    0.57
  -2   8   0   14.29    0.54
   2   8   0   13.19    0.50
   2   8   0   14.12    0.49
  -2   8   0   11.56    0.52
   3  -8   0    7.40    0.29
   3  -8   0    7.34    0.29
  -3  -8   0    7.58    0.39
  -3  -8   0    7.44    0.27
   3  -8   0    7.15    0.36
   3  -8   0    7.86    0.34
   3  -8   0    7.41    0.38
   3   8   0    7.62    0.31
   3   8   0    7.70    0.34
   3   8   0    7.17    0.40
  -3   8   0    8.09    0.39
  -3   8   0    6.82    0.30
   3   8   0    7.26    0.39
   4  -8   0    7.08    0.34
  -4  -8   0    6.62    0.38
   4  -8   0    6.86    0.38
   4  -8   0    7.03    0.27
   4  -8   0    6.39    0.36
   4   8   0    7.23    0.34
   4   8   0    7.10    0.34
   4   8   0    6.97    0.41
  -4   8   0    6.04    0.33
   4   8   0    6.99    0.42
  -4   8   0    7.72    0.41
   5  -8   0   24.11    0.93
  -5  -8   0   25.93    0.99
   5  -8   0   24.60    0.97
   5  -8   0   23.85    0.79
  -5  -8   0   22.76    1.02
  -5   8   0   25.73    0.99
   5   8   0   24.13    1.02
   5   8   0   25.87    0.90
   5   8   0   25.10    1.04
  -6  -8   0    1.52    0.29
  -6  -8   0    1.01    0.22
   6  -8   0    1.17    0.19
   6  -8   0    0.96    0.09
   6  -8   0    1.02    0.20
  -6   8   0    1.22    0.23
   6   8   0    1.31    0.26
   6   8   0    1.18    0.18
  -7  -8   0    2.84    0.34
   7  -8   0    2.97    0.14
  -7  -8   0    2.82    0.37
   7   8   0    3.22    0.38
  -7   8   0    2.72    0.34
   7   8   0    3.05    0.27
  -7   8   0    2.89    0.32
   0  -9   0    0.02    0.03
   0  -9   0   -0.05    0.05
   0  -9   0   -0.04    0.05
   0  -9   0    0.05    0.05
   0   9   0    0.01    0.04
   0   9   0   -0.09    0.04
   0   9   0   -0.06    0.06
   1  -9   0   28.77    1.00
   1  -9   0   29.50    1.01
  -1  -9   0   29.60    0.97
   1  -9   0   29.11    0.98
  -1  -9   0   29.29    0.99
  -1  -9   0   28.52    1.02
   1   9   0   30.65    1.00
   1   9   0   29.86    0.99
   1   9   0   29.41    0.98
   1   9   0   30.76    1.06
  -1   9   0   30.17    1.04
  -1   9   0   30.20    1.03
  -2  -9   0    3.53    0.18
   2  -9   0    3.67    0.20
  -2  -9   0    3.74    0.21
   2  -9   0    3.94    0.22
   2  -9   0    3.05    0.18
  -2  -9   0    3.44    0.24
   2  -9   0    3.53    0.23
  -2   9   0    3.29    0.23
   2   9   0    3.46    0.26
  -2   9   0    3.54    0.25
   2   9   0    3.90    0.22
   2   9   0    3.69    0.23
   2   9   0    3.44    0.19
  -3  -9   0   10.51    0.50
   3  -9   0   10.46    0.40
  -3  -9   0   10.99    0.38
   3  -9   0   10.27    0.47
   3  -9   0   11.04    0.45
  -3   9   0   11.26    0.50
  -3   9   0   11.66    0.50
   3   9   0   10.39    0.45
   3   9   0   10.51    0.50
   3   9   0   10.26    0.41
   3   9   0   10.30    0.52
   4  -9   0    0.08    0.09
   4  -9   0    0.20    0.11
   4  -9   0    0.10    0.07
  -4  -9   0    0.05    0.11
   4  -9   0    0.11    0.05
  -4   9   0   -0.01    0.11
   4   9   0    0.10    0.12
   4   9   0    0.10    0.08
  -4   9   0    0.09    0.10
   4   9   0    0.01    0.11
   5  -9   0    1.64    0.20
  -5  -9   0    2.18    0.26
   5  -9   0    1.60    0.22
   5  -9   0    1.47    0.11
  -5  -9   0    1.55    0.26
  -5   9   0    1.48    0.22
   5   9   0    1.31    0.23
   5   9   0    1.54    0.18
  -5   9   0    1.38    0.23
  -6  -9   0    2.05    0.29
   6  -9   0    1.95    0.23
   6  -9   0    1.78    0.12
   6  -9   0    1.52    0.24
  -6  -9   0    1.79    0.30
  -6   9   0    1.60    0.28
  -6   9   0    1.69    0.25
   6   9   0    1.31    0.27
   6   9   0    1.56    0.20
  -7  -9   0    0.37    0.22
   7  -9   0    0.53    0.08
  -7  -9   0    0.83    0.23
   7   9   0    0.61    0.22
   7   9   0    0.56    0.15
   0 -10   0   41.35    1.32
   0 -10   0   41.17    1.31
   0 -10   0   41.33    1.35
   0  10   0   42.04    1.38
   0  10   0   34.08    1.32
   0  10   0   40.78    1.30
  -1 -10   0    0.02    0.07
   1 -10   0    0.06    0.05
  -1 -10   0   -0.02    0.05
   1 -10   0    0.08    0.07
  -1 -10   0    0.03    0.05
  -1 -10   0   -0.06    0.05
   1 -10   0    0.07    0.07
   1  10   0    0.07    0.06
  -1  10   0    0.00    0.07
   1  10   0    0.05    0.05
   1  10   0   -0.03    0.08
  -1  10   0   -0.03    0.07
   2 -10   0   33.48    1.16
   2 -10   0   33.76    1.14
  -2 -10   0   32.51    1.12
  -2 -10   0   33.05    1.08
   2 -10   0   32.05    1.10
  -2 -10   0   34.10    1.18
  -2  10   0   36.05    1.19
  -2  10   0   33.57    1.18
   2  10   0   33.46    1.21
   2  10   0   33.34    1.13
   2  10   0   32.67    1.11
   2  10   0   33.96    1.15
  -3 -10   0   -0.10    0.09
   3 -10   0    0.08    0.05
   3 -10   0    0.07    0.07
   3 -10   0    0.00    0.08
   3  10   0    0.05    0.05
  -3  10   0   -0.02    0.09
  -3  10   0    0.26    0.12
   3  10   0    0.10    0.07
   3  10   0    0.14    0.10
   3  10   0    0.12    0.10
   4 -10   0   12.82    0.54
  -4 -10   0   12.89    0.62
   4 -10   0   13.12    0.58
   4 -10   0   12.79    0.48
  -4 -10   0   12.62    0.61
   4  10   0   13.29    0.66
   4  10   0   12.96    0.62
   4  10   0   12.67    0.55
  -4  10   0   14.23    0.63
  -4  10   0   12.89    0.60
   5 -10   0    1.24    0.21
   5 -10   0    1.42    0.12
  -5 -10   0    1.17    0.23
  -5 -10   0    1.63    0.25
   5  10   0    1.64    0.19
  -5  10   0    1.37    0.23
   5  10   0    1.66    0.27
  -5  10   0    1.28    0.24
  -6 -10   0    3.62    0.36
  -6 -10   0    2.72    0.36
   6 -10   0    3.81    0.32
   6 -10   0    3.95    0.20
   6  10   0    4.92    0.32
  -6  10   0    4.25    0.38
   6  10   0    3.98    0.40
  -6  10   0    4.03    0.36
   7 -10   0    3.57    0.19
  -7 -10   0    3.28    0.38
   7  10   0    4.47    0.46
   7  10   0    3.98    0.32
  -7  10   0    3.98    0.39
   0 -11   0   -0.01    0.07
   0 -11   0    0.05    0.06
   0 -11   0   -0.08    0.05
   0  11   0    0.05    0.06
   0  11   0    0.09    0.08
   0  11   0    0.02    0.08
   1 -11   0   28.63    0.99
   1 -11   0   27.25    0.99
   1 -11   0   29.10    0.97
  -1 -11   0   29.05    1.02
  -1 -11   0   28.41    0.98
  -1 -11   0   28.17    0.95
   1  11   0   28.91    0.97
   1  11   0   28.72    1.05
  -1  11   0   29.55    1.03
   1  11   0   28.79    0.98
  -1  11   0   22.90    0.99
  -2 -11   0    4.77    0.31
  -2 -11   0    5.19    0.24
   2 -11   0    4.68    0.25
   2 -11   0    4.62    0.29
   2 -11   0    4.67    0.27
  -2  11   0    5.07    0.32
   2  11   0    4.96    0.33
   2  11   0    4.75    0.26
   2  11   0    4.71    0.27
  -2  11   0    4.87    0.31
   3 -11   0   27.82    1.00
   3 -11   0   28.81    1.04
  -3 -11   0   28.52    1.05
  -3 -11   0   27.97    1.07
   3 -11   0   28.07    0.96
   3  11   0   28.59    1.11
   3  11   0   28.98    1.05
  -3  11   0   28.47    1.06
  -3  11   0   28.40    1.06
   3  11   0   27.87    1.00
  -4 -11   0    3.25    0.30
   4 -11   0    3.53    0.25
   4 -11   0    3.48    0.28
   4 -11   0    3.42    0.20
  -4 -11   0    3.38    0.30
  -4  11   0    3.65    0.30
   4  11   0    3.07    0.25
   4  11   0    3.51    0.33
  -4  11   0    3.05    0.29
  -5 -11   0    5.39    0.43
   5 -11   0    6.41    0.29
  -5 -11   0    6.04    0.43
   5 -11   0    6.10    0.39
   5  11   0    6.20    0.46
   5  11   0    7.59    0.39
  -5  11   0    6.49    0.43
  -5  11   0    6.76    0.44
  -6 -11   0   -0.09    0.14
   6 -11   0   -0.02    0.05
   6 -11   0   -0.09    0.11
  -6 -11   0   -0.09    0.14
  -6  11   0    0.22    0.17
   6  11   0   -0.26    0.08
  -6  11   0   -0.11    0.13
   6  11   0    0.02    0.13
   7 -11   0    3.98    0.36
   7 -11   0    3.93    0.21
  -7 -11   0    4.21    0.42
   7  11   0    4.58    0.35
   7  11   0    4.85    0.48
  -7  11   0    4.13    0.40
   0 -12   0   47.92    1.64
   0 -12   0   50.18    1.68
   0 -12   0   51.28    1.65
   0  12   0   50.66    1.72
   0  12   0   51.60    1.68
   1 -12   0   23.53    0.86
  -1 -12   0   22.43    0.89
   1 -12   0   23.16    0.87
  -1 -12   0   24.35    0.86
  -1 -12   0   23.93    0.83
   1 -12   0   24.13    0.85
  -1  12   0   23.99    0.91
   1  12   0   22.92    0.85
   1  12   0   23.51    0.93
  -1  12   0   25.38    0.91
   1  12   0   23.27    0.84
   2 -12   0   26.06    0.93
   2 -12   0   26.78    0.97
  -2 -12   0   27.87    1.02
  -2 -12   0   26.48    0.91
   2 -12   0   26.99    0.99
   2  12   0   27.56    0.96
   2  12   0   26.41    1.04
   2  12   0   26.31    0.94
  -2  12   0   26.97    1.01
  -2  12   0   27.87    1.02
   3 -12   0    6.78    0.38
   3 -12   0    6.53    0.31
   3 -12   0    6.73    0.35
  -3 -12   0    5.60    0.38
   3  12   0    6.27    0.42
  -3  12   0    6.42    0.39
   3  12   0    6.26    0.34
  -3  12   0    6.47    0.40
   4 -12   0   10.90    0.45
   4 -12   0   11.48    0.56
  -4 -12   0   12.22    0.60
   4  12   0   11.86    0.52
  -4  12   0   10.96    0.57
  -4  12   0   10.42    0.56
   4  12   0   11.10    0.62
   5 -12   0    5.91    0.29
   5 -12   0    6.18    0.40
  -5 -12   0    4.55    0.40
  -5 -12   0    6.22    0.44
   5  12   0    6.50    0.38
  -5  12   0    5.79    0.41
   5  12   0    5.85    0.46
  -5  12   0    5.88    0.42
   6 -12   0    6.31    0.30
   6 -12   0    6.16    0.43
  -6  12   0    6.39    0.47
   6  12   0    6.16    0.41
   6  12   0    6.10    0.51
   0 -13   0   -0.01    0.07
   0 -13   0    0.02    0.07
   0 -13   0   -0.07    0.08
   0  13   0   -0.07    0.09
   0  13   0    0.14    0.11
   1 -13   0    3.33    0.23
   1 -13   0    3.06    0.24
  -1 -13   0    3.09    0.23
  -1 -13   0    3.24    0.26
   1 -13   0    3.12    0.24
  -1 -13   0    3.71    0.23
  -1  13   0    3.33    0.28
  -1  13   0    3.40    0.27
   1  13   0    2.96    0.27
   1  13   0    2.74    0.22
   2 -13   0    2.15    0.19
   2 -13   0    2.44    0.21
  -2 -13   0    2.13    0.23
   2 -13   0    2.32    0.22
  -2 -13   0    2.11    0.17
  -2 -13   0    1.35    0.17
   2  13   0    2.18    0.18
   2  13   0    2.02    0.19
  -2  13   0    2.24    0.24
  -2  13   0    2.31    0.25
   2  13   0    2.08    0.25
  -3 -13   0    4.45    0.33
   3 -13   0    3.81    0.27
   3 -13   0    3.50    0.23
   3 -13   0    4.54    0.31
  -3 -13   0    3.34    0.28
  -3  13   0    3.37    0.29
   3  13   0    3.69    0.27
  -3  13   0    3.74    0.31
   3  13   0    4.12    0.35
   4 -13   0    1.58    0.22
  -4 -13   0    0.79    0.19
   4 -13   0    1.43    0.15
  -4 -13   0    1.73    0.25
   4  13   0    1.62    0.25
   4  13   0    1.52    0.20
  -4  13   0    1.82    0.27
  -4  13   0    1.94    0.26
   5 -13   0   -0.18    0.08
   5 -13   0   -0.02    0.05
  -5 -13   0    0.11    0.15
  -5 -13   0   -0.04    0.13
   5  13   0    0.10    0.14
   5  13   0    0.05    0.11
  -5  13   0    0.00    0.12
  -5  13   0   -0.07    0.13
  -6 -13   0    0.27    0.18
   6 -13   0    0.48    0.10
   6 -13   0    0.52    0.18
  -6 -13   0    0.21    0.18
   6  13   0    0.43    0.20
  -6  13   0    0.37    0.18
   6  13   0    0.30    0.15
   0 -14   0    7.36    0.37
   0 -14   0    6.85    0.36
   0 -14   0    6.23    0.38
   0  14   0    7.19    0.39
   0  14   0    7.01    0.42
  -1 -14   0   10.69    0.53
   1 -14   0   10.54    0.49
   1 -14   0   11.11    0.51
  -1 -14   0   10.93    0.49
   1 -14   0   10.63    0.48
  -1 -14   0   11.07    0.47
   1  14   0   10.62    0.49
  -1  14   0   10.40    0.54
   1  14   0   11.01    0.56
  -1  14   0    9.89    0.51
  -2 -14   0    4.53    0.33
   2 -14   0    4.33    0.27
   2 -14   0    4.51    0.30
  -2 -14   0    4.51    0.25
   2 -14   0    4.14    0.30
  -2  14   0    4.34    0.33
   2  14   0    4.17    0.27
   2  14   0    4.71    0.35
  -2  14   0    3.85    0.32
   3 -14   0    5.25    0.33
   3 -14   0    5.91    0.37
   3 -14   0    4.89    0.29
  -3 -14   0    5.40    0.38
   3  14   0    4.83    0.40
  -3  14   0    5.75    0.38
   3  14   0    5.48    0.33
  -3  14   0    4.94    0.37
  -4 -14   0    1.07    0.22
  -4 -14   0    1.13    0.23
   4 -14   0    0.97    0.15
   4 -14   0    1.26    0.21
   4  14   0    1.45    0.21
  -4  14   0    1.14    0.23
   4  14   0    1.18    0.23
  -4  14   0    1.14    0.23
   5 -14   0    0.18    0.15
   5 -14   0    0.32    0.10
  -5 -14   0    0.23    0.16
  -5 -14   0    0.29    0.18
  -5  14   0    0.46    0.19
   5  14   0    0.36    0.15
   5  14   0    0.41    0.19
  -5  14   0    0.16    0.18
   6 -14   0    0.39    0.10
   6 -14   0    0.28    0.16
  -6 -14   0    0.12    0.16
  -6 -14   0    0.45    0.19
  -6  14   0    0.11    0.15
   6  14   0    0.46    0.15
   6  14   0    0.41    0.20
   0 -15   0   -0.03    0.08
   0 -15   0    0.01    0.08
   0 -15   0   -0.07    0.08
   0  15   0    0.05    0.11
   0  15   0   -0.13    0.07
  -1 -15   0   12.35    0.60
  -1 -15   0   12.80    0.53
   1 -15   0   13.14    0.56
   1 -15   0   11.63    0.57
   1 -15   0   12.96    0.57
   1  15   0   13.07    0.64
  -1  15   0   12.84    0.60
  -1  15   0   13.24    0.63
   1  15   0   11.74    0.55
   2 -15   0    1.04    0.16
  -2 -15   0    0.76    0.18
   2 -15   0    0.88    0.17
   2 -15   0    1.25    0.19
  -2  15   0    1.22    0.22
  -2  15   0    1.07    0.21
   2  15   0    1.20    0.16
   2  15   0    1.10    0.22
   3 -15   0   15.84    0.65
   3 -15   0   16.47    0.72
   3 -15   0   16.41    0.69
  -3 -15   0   15.45    0.74
  -3  15   0   16.15    0.75
   3  15   0   15.32    0.78
   4 -15   0    0.06    0.09
   4 -15   0    0.18    0.12
  -4 -15   0    0.01    0.14
  -4  15   0    0.28    0.16
  -4  15   0    0.17    0.13
   4  15   0    0.00    0.14
   5 -15   0    7.11    0.46
   5 -15   0    6.67    0.35
  -5 -15   0    5.93    0.46
  -5 -15   0    5.86    0.46
  -5  15   0    6.28    0.47
   5  15   0    6.72    0.43
   5  15   0    7.20    0.55
   0 -16   0   31.65    1.15
   0 -16   0   31.34    1.11
   0 -16   0   31.67    1.11
   0  16   0   31.36    1.20
   0  16   0   25.95    1.11
   1 -16   0    2.00    0.24
   1 -16   0    2.18    0.23
   1 -16   0    2.06    0.22
  -1 -16   0    2.14    0.25
  -1 -16   0    2.13    0.20
  -1  16   0    2.09    0.24
   1  16   0    2.09    0.28
  -1  16   0    1.93    0.26
   1  16   0    2.19    0.22
   2 -16   0   20.72    0.86
   2 -16   0   21.33    0.82
   2 -16   0   20.55    0.84
  -2 -16   0   20.22    0.88
   2  16   0   20.39    0.93
  -2  16   0   21.18    0.90
  -2  16   0   21.41    0.91
   2  16   0   21.29    0.94
   3 -16   0    6.72    0.43
  -3 -16   0    6.66    0.46
   3 -16   0    6.77    0.37
   3  16   0    6.57    0.49
  -3  16   0    6.12    0.44
  -3  16   0    6.64    0.46
   4 -16   0    7.87    0.41
   4 -16   0    8.31    0.50
  -4 -16   0    8.47    0.54
   4  16   0    7.89    0.56
  -4  16   0    8.49    0.53
  -5 -16   0    1.57    0.28
   5 -16   0    1.07    0.24
   5 -16   0    1.18    0.18
   5  16   0    1.92    0.34
  -5  16   0    1.42    0.26
   0 -17   0    0.06    0.09
   0 -17   0   -0.13    0.08
   0 -17   0    0.03    0.11
   0  17   0    0.05    0.11
   0  17   0   -0.10    0.11
   1 -17   0    6.29    0.38
  -1 -17   0    6.00    0.35
   1 -17   0    6.53    0.37
   1 -17   0    5.37    0.38
  -1 -17   0    5.80    0.41
  -1  17   0    6.43    0.42
  -1  17   0    6.59    0.44
   1  17   0    6.15    0.45
   2 -17   0   -0.08    0.09
  -2 -17   0    0.02    0.13
   2 -17   0    0.13    0.09
   2 -17   0    0.12    0.12
  -2  17   0    0.12    0.14
  -2  17   0   -0.06    0.10
   2  17   0    0.04    0.13
   3 -17   0    3.53    0.28
   3 -17   0    4.30    0.35
  -3 -17   0    4.49    0.38
  -3  17   0    3.51    0.35
   3  17   0    4.19    0.41
  -3  17   0    3.10    0.35
  -4 -17   0    0.89    0.23
   4 -17   0    0.83    0.20
   4 -17   0    0.57    0.14
   4  17   0    0.43    0.20
  -4  17   0    0.78    0.22
   5 -17   0    5.75    0.36
  -5 -17   0    5.50    0.49
   5 -17   0    5.95    0.46
  -5  17   0    6.29    0.51
   5  17   0    7.37    0.58
   0 -18   0    6.41    0.43
   0 -18   0    6.35    0.38
   0  18   0    6.44    0.41
   0  18   0    6.22    0.46
   1 -18   0    3.87    0.32
  -1 -18   0    3.73    0.35
   1 -18   0    3.89    0.33
  -1 -18   0    4.12    0.30
   1 -18   0    4.25    0.31
   1  18   0    3.92    0.31
   1  18   0    4.00    0.38
  -1  18   0    4.20    0.38
  -1  18   0    4.01    0.35
   2 -18   0    0.18    0.13
   2 -18   0    0.07    0.13
   2 -18   0    0.22    0.12
  -2 -18   0    0.12    0.15
  -2  18   0    0.27    0.17
   2  18   0    0.34    0.17
  -2  18   0    0.02    0.11
   3 -18   0    1.31    0.20
   3 -18   0    1.22    0.23
  -3 -18   0    1.05    0.23
  -3  18   0    1.01    0.23
   3  18   0    0.82    0.25
  -3  18   0    0.89    0.22
   4 -18   0    0.11    0.10
   4 -18   0   -0.20    0.12
  -4 -18   0    0.38    0.17
   4  18   0   -0.05    0.15
  -4  18   0   -0.05    0.14
   0 -19   0   -0.04    0.11
   0 -19   0   -0.09    0.11
   0  19   0    0.11    0.11
   0  19   0    0.03    0.13
   1 -19   0    8.22    0.47
   1 -19   0    8.54    0.46
  -1 -19   0    7.40    0.49
   1 -19   0    6.67    0.46
  -1  19   0    7.66    0.52
   1  19   0    8.18    0.53
  -1  19   0    8.47    0.51
  -2 -19   0   -0.21    0.12
   2 -19   0   -0.04    0.12
   2 -19   0   -0.07    0.09
   2  19   0    0.20    0.16
  -2  19   0   -0.01    0.13
  -2  19   0    0.00    0.15
   3 -19   0    3.50    0.36
  -3 -19   0    3.72    0.38
   3 -19   0    3.92    0.31
   3  19   0    3.60    0.42
  -3  19   0    3.93    0.37
   0 -20   0    7.21    0.49
   0 -20   0    7.02    0.43
   0  20   0    6.71    0.45
   0  20   0    7.84    0.53
   1 -20   0    1.38    0.26
   1 -20   0    1.82    0.25
   1 -20   0    1.79    0.26
  -1 -20   0    1.08    0.23
  -1  20   0    1.91    0.31
   1  20   0    1.57    0.30
  -1  20   0    1.42    0.25
   2 -20   0    0.52    0.19
  -2 -20   0    0.79    0.21
   2 -20   0    0.89    0.18
  -2  20   0    0.72    0.21
  -2  20   0    0.79    0.23
   2  20   0    0.67    0.23
   3 -20   0    0.24    0.15
  -3 -20   0   -0.18    0.10
   3 -20   0    0.07    0.11
  -3  20   0    0.06    0.13
   3  20   0    0.04    0.16
   0 -21   0   -0.09    0.11
   0 -21   0    0.11    0.14
   0  21   0   -0.12    0.10
   0  21   0    0.15    0.17
   1 -21   0   12.54    0.63
   1 -21   0   12.03    0.67
  -1 -21   0   11.13    0.65
  -1  21   0   12.34    0.65
   1  21   0   11.67    0.71
  -1  21   0   11.17    0.68
   2 -21   0    0.11    0.13
   2 -21   0   -0.06    0.14
  -2 -21   0   -0.16    0.12
  -2  21   0    0.23    0.18
   2  21   0    0.21    0.18
   8   0  -1   -0.08    0.15
   8   0  -1    0.12    0.06
  -8   0   1    0.05    0.16
   7   0  -1    7.62    0.43
  -7   0   1    7.93    0.52
   7   0  -1    7.34    0.33
   7   0  -1    7.70    0.53
  -6   0   1    0.02    0.09
  -6   0   1   -0.03    0.14
   6   0  -1   -0.02    0.11
   6   0  -1   -0.08    0.04
   6   0  -1   -0.01    0.08
   5   0  -1    1.76    0.22
   5   0  -1    2.10    0.13
   5   0  -1    2.04    0.18
  -5   0   1    2.29    0.20
  -5   0   1    2.07    0.25
   4   0  -1    0.04    0.04
   4   0  -1   -0.02    0.07
  -4   0   1   -0.03    0.08
   4   0  -1   -0.04    0.03
  -4   0   1    0.00    0.06
   4   0  -1   -0.02    0.05
   4   0  -1   -0.01    0.03
  -3   0   1   99.65    2.88
   3   0  -1   87.40    2.77
  -3   0   1   98.20    2.81
   3   0  -1   86.63    2.77
   3   0  -1   88.04    2.87
   3   0  -1   92.59    2.83
   3   0  -1   89.51    2.77
   2   0  -1    0.04    0.05
  -2   0   1   -0.09    0.06
   2   0  -1   -0.04    0.02
   2   0  -1    0.00    0.02
   2   0  -1   -0.01    0.02
   2   0  -1    0.01    0.04
  -2   0   1   -0.05    0.03
   1   0  -1  366.94   11.01
  -1   0   1  371.85   10.98
   1   0  -1  364.85   10.98
  -1   0   1  375.45   11.12
  -1   0   1  360.08   11.01
   1   0  -1  359.44   11.12
   1   0  -1  358.10   11.08
   1   0  -1  363.84   11.06
   0   0   1   -0.76    0.04
   0   0   1   -0.80    0.02
   0   0  -1   -0.79    0.03
   0   0   1   -0.80    0.03
   0   0  -1   -0.80    0.02
   0   0  -1   -0.77    0.03
   0   0   1   -0.79    0.03
   0   0   1   -0.82    0.03
   1   0   1    5.98    0.24
   1   0   1    6.41    0.25
   1   0   1    6.14    0.26
   1   0   1    5.90    0.20
  -1   0  -1    6.88    0.22
   1   0   1    6.02    0.21
  -1   0  -1    6.41    0.23
   2   0   1   -0.01    0.02
  -2   0  -1   -0.04    0.04
   2   0   1    0.01    0.03
   2   0   1   -0.07    0.04
   2   0   1    0.00    0.02
   2   0   1   -0.03    0.05
   2   0   1   -0.02    0.04
   3   0   1    9.81    0.32
   3   0   1    9.49    0.41
   3   0   1    9.22    0.42
  -3   0  -1    9.58    0.42
   3   0   1    9.46    0.37
  -3   0  -1   10.42    0.37
   3   0   1    9.59    0.44
   3   0   1    9.80    0.32
   4   0   1    0.00    0.03
   4   0   1    0.01    0.07
   4   0   1    0.05    0.03
  -4   0  -1    0.18    0.10
  -4   0  -1    0.03    0.06
   4   0   1    0.02    0.05
   4   0   1   -0.05    0.08
   5   0   1   19.36    0.64
   5   0   1   19.90    0.83
   5   0   1   19.82    0.73
  -5   0  -1   19.95    0.70
   5   0   1   19.03    0.84
  -5   0  -1   18.62    0.77
   6   0   1    0.12    0.12
   6   0   1    0.00    0.05
   6   0   1   -0.06    0.11
  -6   0  -1    0.06    0.12
  -7   0  -1    1.08    0.26
   7   0   1    1.30    0.27
   7   0   1    0.90    0.11
  -7   0  -1    0.89    0.20
   8  -1  -1    0.40    0.20
   8  -1  -1    0.26    0.08
  -8  -1   1    0.53    0.22
   8   1  -1    0.34    0.19
   8   1  -1    0.48    0.10
  -8   1   1    0.33    0.20
   7  -1  -1    4.96    0.35
   7  -1  -1    5.29    0.44
  -7  -1   1    5.28    0.44
   7  -1  -1    5.16    0.25
   7   1  -1    4.91    0.26
  -7   1   1    4.90    0.41
   7   1  -1    5.21    0.43
   6  -1  -1    0.17    0.09
  -6  -1   1    0.13    0.11
   6  -1  -1    0.15    0.05
   6  -1  -1    0.25    0.13
  -6  -1   1    0.12    0.15
   6   1  -1    0.21    0.07
   6   1  -1    0.29    0.15
  -6   1   1    0.19    0.11
  -6   1   1    0.11    0.15
   6   1  -1    0.26    0.10
   5  -1  -1   16.51    0.73
   5  -1  -1   16.86    0.57
   5  -1  -1   17.05    0.67
   5  -1  -1   16.65    0.57
  -5  -1   1   16.70    0.74
  -5  -1   1   18.42    0.67
   5  -1  -1   16.75    0.60
  -5   1   1   17.87    0.73
   5   1  -1   16.36    0.58
   5   1  -1   17.00    0.74
   5   1  -1   17.14    0.66
  -5   1   1   17.40    0.65
   4  -1  -1    3.74    0.16
   4  -1  -1    4.03    0.23
   4  -1  -1    3.77    0.16
  -4  -1   1    4.00    0.28
   4  -1  -1    3.82    0.18
  -4  -1   1    4.24    0.23
   4  -1  -1    4.28    0.27
   4   1  -1    3.78    0.17
  -4   1   1    4.15    0.21
   4   1  -1    3.94    0.16
   4   1  -1    4.08    0.23
   4   1  -1    3.83    0.26
  -4   1   1    4.13    0.27
   4   1  -1    3.58    0.17
  -3  -1   1   20.79    0.67
   3  -1  -1   19.51    0.62
   3  -1  -1   18.83    0.61
   3  -1  -1   18.43    0.67
  -3  -1   1   21.24    0.73
   3  -1  -1   19.26    0.64
   3  -1  -1   19.07    0.71
  -3   1   1   20.29    0.65
   3   1  -1   18.81    0.63
  -3   1   1   20.27    0.71
   3   1  -1   18.80    0.63
   3   1  -1   19.66    0.61
   3   1  -1   19.58    0.67
   3   1  -1   18.65    0.71
   2  -1  -1   36.40    1.19
   2  -1  -1   34.75    1.16
  -2  -1   1   38.32    1.15
  -2  -1   1   39.49    1.20
   2  -1  -1   35.92    1.13
   2  -1  -1   36.01    1.12
   2  -1  -1   36.16    1.12
  -2   1   1   37.67    1.13
   2   1  -1   34.39    1.13
   2   1  -1   35.50    1.18
   2   1  -1   37.60    1.16
   2   1  -1   35.73    1.11
   2   1  -1   36.29    1.13
  -2   1   1   39.93    1.18
  -1  -1   1   15.94    0.53
  -1  -1   1   17.38    0.54
  -1  -1   1   18.15    0.57
   1  -1  -1   17.30    0.54
   1  -1  -1   16.73    0.53
   1  -1  -1   17.52    0.55
   1  -1  -1   16.32    0.53
  -1   1   1   18.69    0.56
   1   1  -1   16.10    0.54
  -1   1   1   17.36    0.53
   1   1  -1   17.51    0.55
   1   1  -1   17.34    0.52
   1   1  -1   17.34    0.55
  -1   1   1   14.28    0.56
   0  -1  -1    0.04    0.02
   0  -1  -1    0.00    0.02
   0  -1   1   -0.01    0.02
   0  -1  -1    0.00    0.02
   0  -1   1    0.01    0.03
   0  -1   1    0.00    0.02
   0  -1   1    0.01    0.03
   0   1   1   -0.02    0.02
   0   1  -1    0.02    0.03
   0   1  -1   -0.02    0.02
   0   1  -1   -0.01    0.03
   0   1   1    0.00    0.03
   0   1   1    0.00    0.03
   0   1   1   -0.01    0.03
   1  -1   1  381.98   12.01
   1  -1   1  387.55   11.86
   1  -1   1  382.08   11.93
  -1  -1  -1  422.27   11.85
   1  -1   1  390.07   11.71
   1  -1   1  388.14   11.85
   1  -1   1  392.65   11.71
   1   1   1  393.45   11.94
   1   1   1  390.57   12.03
   1   1   1  386.93   11.78
   1   1   1  385.48   11.87
   1   1   1  376.51   11.74
  -1   1  -1  411.68   11.86
   1   1   1  394.94   11.79
   2  -1   1    0.34    0.07
  -2  -1  -1    0.29    0.05
   2  -1   1    0.31    0.06
   2  -1   1    0.17    0.05
   2  -1   1    0.23    0.05
  -2  -1  -1    0.27    0.08
   2  -1   1    0.19    0.07
   2   1   1    0.30    0.05
   2   1   1    0.17    0.06
   2   1   1    0.16    0.03
   2   1   1    0.25    0.08
   3  -1   1   98.85    3.04
   3  -1   1   99.88    3.08
  -3  -1  -1  102.42    3.09
  -3  -1  -1   99.30    3.02
   3  -1   1   97.71    3.09
   3  -1   1   98.06    3.11
   3   1   1   98.35    3.10
   3   1   1   98.03    3.12
   3   1   1   99.00    2.99
  -3   1  -1  101.13    3.04
   3   1   1   97.70    2.98
   3   1   1   97.37    3.02
   4  -1   1    6.47    0.22
   4  -1   1    6.35    0.22
   4  -1   1    7.04    0.32
   4  -1   1    6.71    0.38
   4  -1   1    6.40    0.36
  -4  -1  -1    6.81    0.29
  -4  -1  -1    7.12    0.36
  -4   1  -1    6.48    0.30
   4   1   1    6.37    0.29
   4   1   1    6.36    0.39
   4   1   1    7.01    0.38
   4   1   1    6.48    0.25
  -4   1  -1    6.11    0.34
   4   1   1    6.41    0.25
  -5  -1  -1    0.88    0.17
   5  -1   1    0.80    0.07
   5  -1   1    0.90    0.07
   5  -1   1    0.54    0.15
   5  -1   1    0.65    0.15
   5  -1   1    0.83    0.14
  -5   1  -1    0.84    0.12
   5   1   1    0.54    0.15
   5   1   1    0.93    0.18
  -5   1  -1    0.81    0.17
   5   1   1    0.88    0.09
   6  -1   1    3.69    0.17
   6  -1   1    3.28    0.33
   6  -1   1    3.59    0.35
  -6  -1  -1    3.76    0.32
  -6   1  -1    2.79    0.28
   6   1   1    3.39    0.19
   6   1   1    3.40    0.33
   6   1   1    3.51    0.36
  -7  -1  -1   10.53    0.65
  -7  -1  -1   10.13    0.58
   7  -1   1    9.53    0.62
   7  -1   1    9.78    0.37
   7   1   1    9.51    0.61
   7   1   1    9.41    0.39
  -7   1  -1    8.90    0.60
   8  -2  -1    1.02    0.26
   8  -2  -1    1.01    0.12
  -8  -2   1    0.54    0.23
   8   2  -1    1.25    0.28
  -8   2   1    1.09    0.27
   8   2  -1    0.98    0.15
   7  -2  -1    1.15    0.24
   7  -2  -1    1.38    0.22
   7  -2  -1    1.32    0.12
  -7  -2   1    0.86    0.23
   7   2  -1    1.43    0.26
  -7   2   1    1.61    0.27
   7   2  -1    0.96    0.14
   6  -2  -1    5.31    0.34
  -6  -2   1    5.44    0.34
  -6  -2   1    5.55    0.41
   6  -2  -1    5.25    0.23
   6  -2  -1    5.32    0.40
   6   2  -1    5.36    0.32
  -6   2   1    5.16    0.38
   6   2  -1    5.07    0.40
   6   2  -1    5.43    0.26
   5  -2  -1    0.08    0.11
   5  -2  -1    0.23    0.05
   5  -2  -1    0.18    0.09
   5  -2  -1    0.33    0.05
   5  -2  -1    0.20    0.07
  -5  -2   1    0.42    0.12
  -5  -2   1    0.39    0.15
   5   2  -1    0.25    0.06
   5   2  -1    0.26    0.09
   5   2  -1    0.18    0.12
  -5   2   1    0.24    0.13
  -5   2   1    0.27    0.09
  -4  -2   1   33.30    1.18
  -4  -2   1   33.82    1.01
  -4  -2   1   34.17    1.11
   4  -2  -1   32.16    1.02
   4  -2  -1   31.62    1.01
   4  -2  -1   31.85    1.11
   4  -2  -1   32.71    1.06
   4  -2  -1   32.84    1.17
   4   2  -1   32.97    1.05
   4   2  -1   31.12    1.05
   4   2  -1   32.08    1.09
  -4   2   1   32.13    1.07
   4   2  -1   33.24    1.17
  -4   2   1   34.92    1.16
   3  -2  -1   57.46    1.75
  -3  -2   1   59.97    1.88
   3  -2  -1   56.57    1.87
  -3  -2   1   60.66    1.82
  -3  -2   1   60.03    1.74
   3  -2  -1   55.75    1.83
   3  -2  -1   55.99    1.79
   3  -2  -1   57.63    1.75
   3   2  -1   57.24    1.87
   3   2  -1   57.87    1.82
  -3   2   1   60.38    1.79
   3   2  -1   56.84    1.78
   3   2  -1   56.61    1.78
  -3   2   1   56.98    1.85
   2  -2  -1   34.86    1.12
   2  -2  -1   35.84    1.09
   2  -2  -1   34.95    1.09
  -2  -2   1   38.23    1.14
  -2  -2   1   37.34    1.17
   2  -2  -1   34.48    1.14
   2  -2  -1   35.21    1.16
   2  -2  -1   35.04    1.09
   2   2  -1   36.06    1.13
   2   2  -1   35.05    1.11
  -2   2   1   37.90    1.15
   2   2  -1   34.69    1.11
   2   2  -1   35.62    1.16
  -1  -2   1   46.38    1.42
  -1  -2   1   45.88    1.41
   1  -2  -1   44.09    1.40
   1  -2  -1   46.99    1.40
   1  -2  -1   45.25    1.38
   1  -2  -1   44.73    1.41
   1  -2  -1   43.86    1.42
  -1   2   1   45.76    1.40
   1   2  -1   46.99    1.42
  -1   2   1   46.78    1.42
   1   2  -1   46.55    1.41
  -1   2   1   49.93    1.44
   1   2  -1   46.21    1.42
   1   2  -1   47.09    1.39
   0  -2  -1    8.38    0.30
   0  -2   1    9.14    0.31
   0  -2   1    8.57    0.29
   0  -2  -1    8.83    0.30
   0  -2  -1    8.64    0.30
   0  -2   1    8.55    0.29
   0  -2  -1    8.74    0.28
   0  -2   1    8.59    0.30
   0  -2   1    8.48    0.30
   0   2   1    8.60    0.29
   0   2  -1    9.35    0.28
   0   2   1    8.45    0.31
   0   2  -1    9.53    0.31
   0   2  -1    8.72    0.29
   0   2   1    8.74    0.31
   1  -2   1  211.83    6.75
   1  -2   1  213.79    6.95
  -1  -2  -1  238.23    6.78
   1  -2   1  219.60    6.80
  -1  -2  -1  241.19    6.84
   1  -2   1  220.44    6.75
   1  -2   1  225.54    6.84
   1  -2   1  218.56    6.88
   1   2   1  230.36    6.95
   1   2   1  224.23    6.82
   1   2   1  222.95    7.00
  -1   2  -1  230.68    6.76
   1   2   1  230.25    6.81
   2  -2   1   24.27    0.83
   2  -2   1   24.14    0.80
  -2  -2  -1   25.42    0.84
   2  -2   1   23.60    0.81
   2  -2   1   23.79    0.80
   2  -2   1   23.71    0.82
  -2  -2  -1   25.86    0.78
   2   2   1   24.08    0.76
   2   2   1   24.53    0.85
   2   2   1   23.87    0.76
   2   2   1   23.63    0.77
   2   2   1   24.03    0.83
  -3  -2  -1   52.71    1.55
  -3  -2  -1   50.86    1.62
   3  -2   1   49.69    1.61
   3  -2   1   49.65    1.58
   3  -2   1   49.03    1.58
   3  -2   1   48.63    1.63
   3  -2   1   48.15    1.60
   3   2   1   49.42    1.53
   3   2   1   48.89    1.63
   3   2   1   49.99    1.54
   3   2   1   48.78    1.53
   3   2   1   48.94    1.66
  -4  -2  -1   10.18    0.39
   4  -2   1   10.35    0.50
  -4  -2  -1   10.77    0.48
   4  -2   1   10.06    0.46
   4  -2   1   10.40    0.44
   4  -2   1   10.23    0.47
   4   2   1   10.32    0.40
   4   2   1   10.13    0.37
   4   2   1   10.25    0.38
   4   2   1    9.97    0.51
   4   2   1    9.46    0.49
  -4   2  -1   10.86    0.42
   5  -2   1    0.36    0.14
  -5  -2  -1    0.44    0.14
   5  -2   1    0.53    0.12
   5  -2   1    0.45    0.14
   5   2   1    0.52    0.09
   5   2   1    0.68    0.17
   5   2   1    0.41    0.15
  -5   2  -1    0.45    0.13
  -5   2  -1    0.47    0.10
   6  -2   1    2.04    0.27
   6  -2   1    2.14    0.27
   6  -2   1    1.73    0.11
  -6  -2  -1    1.46    0.24
  -6   2  -1    1.97    0.25
   6   2   1    2.06    0.15
   6   2   1    2.22    0.30
   6   2   1    1.99    0.27
  -7  -2  -1    0.72    0.26
   7  -2   1    0.58    0.08
   7  -2   1    0.47    0.19
  -7  -2  -1    0.69    0.20
   7   2   1    0.74    0.12
  -7   2  -1    0.63    0.23
   7   2   1    0.42    0.19
   8  -3  -1    0.44    0.21
   8  -3  -1    0.50    0.08
  -8  -3   1    0.43    0.21
   8   3  -1    0.27    0.19
  -8   3   1    0.33    0.20
   8   3  -1    0.38    0.11
   7  -3  -1   10.11    0.60
  -7  -3   1    9.37    0.60
   7  -3  -1    9.72    0.37
   7  -3  -1   10.30    0.54
  -7  -3   1    9.78    0.51
  -7   3   1    9.68    0.57
   7   3  -1    9.30    0.42
   7   3  -1    9.65    0.61
   6  -3  -1    0.39    0.06
   6  -3  -1    0.36    0.15
   6  -3  -1    0.56    0.14
  -6  -3   1    0.50    0.14
  -6  -3   1    0.77    0.20
   6   3  -1    0.50    0.09
   6   3  -1    0.39    0.11
  -6   3   1    0.62    0.17
   6   3  -1    0.51    0.17
   5  -3  -1   30.03    1.16
   5  -3  -1   30.90    1.11
  -5  -3   1   31.87    1.10
   5  -3  -1   30.59    0.97
  -5  -3   1   32.28    1.19
   5  -3  -1   29.93    0.97
   5  -3  -1   31.50    1.04
   5   3  -1   32.00    1.08
  -5   3   1   31.40    1.13
   5   3  -1   30.12    1.02
  -5   3   1   31.46    1.05
   5   3  -1   29.94    1.17
   4  -3  -1    4.17    0.16
   4  -3  -1    4.18    0.16
   4  -3  -1    4.43    0.25
   4  -3  -1    4.09    0.21
   4  -3  -1    3.98    0.28
  -4  -3   1    4.35    0.25
  -4  -3   1    4.32    0.30
   4   3  -1    4.43    0.20
   4   3  -1    4.02    0.23
   4   3  -1    3.81    0.27
  -4   3   1    4.20    0.21
  -4   3   1    4.20    0.27
   4   3  -1    3.96    0.20
  -3  -3   1  123.11    3.76
   3  -3  -1  122.43    3.69
   3  -3  -1  119.82    3.68
   3  -3  -1  122.18    3.80
   3  -3  -1  120.26    3.73
   3  -3  -1  122.03    3.77
   3  -3  -1  119.47    3.71
  -3  -3   1  128.59    3.82
   3   3  -1  123.53    3.75
   3   3  -1  120.30    3.72
   3   3  -1  122.61    3.72
  -3   3   1  129.96    3.78
   3   3  -1  121.69    3.81
   2  -3  -1   18.77    0.65
  -2  -3   1   19.05    0.67
  -2  -3   1   19.73    0.65
   2  -3  -1   18.30    0.63
   2  -3  -1   18.24    0.60
  -2  -3   1   18.72    0.61
   2  -3  -1   18.01    0.60
   2  -3  -1   17.83    0.59
  -2   3   1   19.75    0.64
  -2   3   1   19.97    0.68
   2   3  -1   19.08    0.62
   2   3  -1   18.99    0.67
   2   3  -1   18.30    0.63
   1  -3  -1  287.37    9.18
   1  -3  -1  301.06    9.32
  -1  -3   1  304.09    9.19
  -1  -3   1  306.59    9.27
   1  -3  -1  290.86    9.16
  -1  -3   1  310.39    9.19
   1  -3  -1  304.09    9.26
   1  -3  -1  302.54    9.24
  -1   3   1  314.73    9.23
  -1   3   1  286.07    9.15
   1   3  -1  305.46    9.22
  -1   3   1  324.17    9.28
   1   3  -1  343.74    9.37
   1   3  -1  290.59    9.25
   0  -3   1    0.50    0.08
   0  -3  -1    0.46    0.07
   0  -3   1    0.47    0.06
   0  -3  -1    0.48    0.06
   0  -3   1    0.47    0.06
   0  -3  -1    0.50    0.05
   0  -3  -1    0.49    0.07
   0  -3   1    0.55    0.06
   0   3  -1    0.53    0.06
   0   3   1    0.54    0.07
   0   3  -1    0.56    0.06
   0   3   1    0.41    0.08
   0   3  -1    0.57    0.09
   0   3   1    0.38    0.06
  -1  -3  -1  129.66    4.21
  -1  -3  -1  140.04    4.17
   1  -3   1  132.87    4.20
  -1  -3  -1  146.61    4.17
   1  -3   1  138.06    4.18
   1  -3   1  140.57    4.17
   1  -3   1  134.64    4.19
   1  -3   1  129.20    4.19
  -1   3  -1  150.62    4.21
   1   3   1  141.67    4.16
  -1   3  -1  146.49    4.22
   1   3   1  139.08    4.21
   1   3   1  136.94    4.17
   1   3   1  134.24    4.21
  -2  -3  -1   18.21    0.61
   2  -3   1   16.44    0.57
   2  -3   1   15.26    0.57
   2  -3   1   16.09    0.57
   2  -3   1   15.60    0.58
  -2  -3  -1   17.05    0.54
   2  -3   1   15.54    0.57
   2   3   1   15.88    0.53
   2   3   1   15.90    0.54
   2   3   1   15.67    0.51
   2   3   1   16.20    0.60
   2   3   1   16.54    0.62
   3  -3   1   21.16    0.76
  -3  -3  -1   22.10    0.70
   3  -3   1   21.24    0.73
  -3  -3  -1   21.77    0.78
   3  -3   1   20.06    0.74
   3  -3   1   20.21    0.76
   3  -3   1   20.67    0.75
   3   3   1   20.63    0.68
   3   3   1   21.64    0.79
   3   3   1   20.29    0.68
   3   3   1   21.39    0.81
   3   3   1   20.23    0.69
   4  -3   1    1.79    0.18
  -4  -3  -1    2.06    0.14
   4  -3   1    1.89    0.17
  -4  -3  -1    1.89    0.21
   4  -3   1    1.89    0.20
   4  -3   1    1.99    0.17
   4  -3   1    1.95    0.19
   4   3   1    1.94    0.23
   4   3   1    1.89    0.13
   4   3   1    2.29    0.22
   4   3   1    1.86    0.13
   5  -3   1    3.53    0.26
   5  -3   1    3.66    0.30
  -5  -3  -1    3.62    0.29
   5  -3   1    3.56    0.30
  -5   3  -1    3.94    0.29
   5   3   1    3.45    0.30
  -5   3  -1    3.61    0.23
   5   3   1    3.58    0.20
   5   3   1    3.19    0.32
  -6  -3  -1    0.15    0.14
   6  -3   1    0.09    0.12
   6  -3   1    0.17    0.13
  -6   3  -1    0.19    0.15
   6   3   1    0.24    0.07
   6   3   1    0.15    0.14
   6   3   1   -0.09    0.10
  -6   3  -1    0.18    0.13
   7  -3   1    0.19    0.16
  -7  -3  -1    0.50    0.23
  -7  -3  -1    0.14    0.14
   7   3   1    0.15    0.14
  -7   3  -1    0.04    0.18
   7   3   1    0.24    0.09
   8  -4  -1    0.13    0.06
  -8  -4   1   -0.18    0.14
  -8   4   1    0.21    0.18
   8   4  -1    0.22    0.16
  -8   4   1    0.08    0.20
   8   4  -1    0.04    0.09
  -7  -4   1    5.40    0.39
   7  -4  -1    5.18    0.43
   7  -4  -1    5.74    0.24
   7  -4  -1    5.60    0.39
  -7  -4   1    5.73    0.47
  -7   4   1    6.09    0.44
   7   4  -1    5.50    0.30
  -7   4   1    5.41    0.45
   7   4  -1    5.45    0.45
   6  -4  -1    4.34    0.32
   6  -4  -1    4.76    0.20
  -6  -4   1    4.76    0.40
  -6  -4   1    4.93    0.33
   6  -4  -1    4.49    0.37
   6   4  -1    4.86    0.26
   6   4  -1    4.55    0.38
   6   4  -1    5.01    0.30
  -6   4   1    5.02    0.35
   5  -4  -1   10.94    0.38
   5  -4  -1   11.22    0.45
  -5  -4   1   11.07    0.56
  -5  -4   1   10.59    0.49
   5  -4  -1   10.98    0.38
   5  -4  -1   10.31    0.54
   5  -4  -1   11.32    0.51
  -5   4   1   10.72    0.45
  -5   4   1   11.21    0.52
   5   4  -1   10.75    0.56
   5   4  -1   10.96    0.46
   5   4  -1   11.13    0.44
   4  -4  -1   29.00    0.92
   4  -4  -1   29.96    0.92
   4  -4  -1   29.79    0.97
   4  -4  -1   28.70    1.03
   4  -4  -1   29.52    0.99
   4  -4  -1   29.63    1.08
  -4  -4   1   30.67    1.03
   4   4  -1   29.66    1.00
   4   4  -1   29.19    0.97
  -4   4   1   29.67    1.03
   4   4  -1   28.25    1.08
   3  -4  -1   13.22    0.49
   3  -4  -1   13.18    0.46
  -3  -4   1   13.67    0.52
   3  -4  -1   13.05    0.52
   3  -4  -1   12.75    0.44
  -3  -4   1   14.62    0.57
   3  -4  -1   13.06    0.44
   3   4  -1   13.70    0.55
   3   4  -1   13.57    0.49
   3   4  -1   13.37    0.48
   3   4  -1   13.96    0.48
  -3   4   1   14.45    0.56
  -3   4   1   13.44    0.51
  -2  -4   1   28.54    0.98
  -2  -4   1   30.62    0.93
   2  -4  -1   28.95    0.96
   2  -4  -1   28.88    0.90
  -2  -4   1   31.17    0.97
   2  -4  -1   29.12    0.91
  -2  -4   1   29.56    0.88
   2  -4  -1   29.07    0.95
   2  -4  -1   28.14    0.91
  -2   4   1   30.62    0.99
   2   4  -1   29.49    0.94
   2   4  -1   28.19    0.94
   2   4  -1   29.39    0.98
  -2   4   1   26.52    0.93
   1  -4  -1   68.10    2.07
   1  -4  -1   65.78    2.06
   1  -4  -1   65.19    2.04
  -1  -4   1   66.44    2.08
   1  -4  -1   66.98    2.05
  -1  -4   1   68.87    2.06
  -1  -4   1   67.19    2.04
  -1   4   1   68.54    2.10
   1   4  -1   66.63    2.06
  -1   4   1   67.41    2.04
   1   4  -1   68.40    2.08
  -1   4   1   68.26    2.05
   0  -4  -1    8.62    0.31
   0  -4   1    8.41    0.32
   0  -4  -1    8.37    0.31
   0  -4  -1    8.22    0.31
   0  -4  -1    8.34    0.29
   0  -4   1    8.67    0.30
   0  -4   1    8.79    0.31
   0   4   1    8.40    0.34
   0   4  -1   10.01    0.34
   0   4   1    8.48    0.31
   0   4  -1    8.28    0.29
   0   4   1    8.67    0.30
   0   4   1    8.29    0.30
   0   4  -1    8.27    0.30
  -1  -4  -1    0.63    0.10
   1  -4   1    0.56    0.05
   1  -4   1    0.56    0.08
   1  -4   1    0.55    0.05
   1  -4   1    0.58    0.06
   1  -4   1    0.64    0.08
  -1  -4  -1    0.46    0.07
  -1  -4  -1    0.60    0.07
   1   4   1    0.78    0.09
   1   4   1    0.67    0.10
   1   4   1    0.64    0.07
   1   4   1    0.74    0.05
  -1   4  -1    0.64    0.09
   2  -4   1   30.07    0.92
   2  -4   1   30.85    0.92
  -2  -4  -1   31.09    0.96
   2  -4   1   30.44    1.00
   2  -4   1   29.72    0.99
   2  -4   1   28.74    1.00
  -2  -4  -1   31.33    1.03
   2   4   1   30.65    1.04
   2   4   1   30.20    0.97
   2   4   1   29.43    0.97
   2   4   1   28.45    0.93
   2   4   1   30.08    1.04
  -2   4  -1   33.21    1.01
  -2   4  -1   30.70    1.01
  -3  -4  -1    9.11    0.41
   3  -4   1    8.72    0.38
   3  -4   1    8.95    0.39
   3  -4   1    8.57    0.39
   3  -4   1    8.50    0.38
   3  -4   1    8.89    0.37
  -3  -4  -1    8.91    0.33
   3   4   1    8.47    0.33
   3   4   1    8.84    0.34
   3   4   1    8.93    0.32
   3   4   1    8.70    0.43
   3   4   1    9.08    0.42
   4  -4   1   12.75    0.53
  -4  -4  -1   12.88    0.56
   4  -4   1   12.52    0.55
   4  -4   1   12.27    0.51
  -4  -4  -1   13.40    0.46
   4  -4   1   12.34    0.55
   4  -4   1   12.23    0.53
   4   4   1   11.90    0.57
   4   4   1   12.00    0.46
   4   4   1   12.25    0.59
   5  -4   1   17.82    0.70
   5  -4   1   18.27    0.77
   5  -4   1   18.36    0.74
   5  -4   1   17.03    0.76
   5  -4   1   17.28    0.72
  -5  -4  -1   18.32    0.78
   5   4   1   17.74    0.82
   5   4   1   17.43    0.80
   5   4   1   18.38    0.65
   6  -4   1    0.10    0.12
  -6  -4  -1   -0.03    0.12
   6  -4   1    0.41    0.14
   6   4   1    0.21    0.08
   6   4   1    0.00    0.14
  -6   4  -1    0.17    0.15
  -6   4  -1    0.19    0.10
   6   4   1    0.02    0.11
  -6   4  -1    0.25    0.13
   7  -4   1    5.40    0.47
  -7  -4  -1    5.34    0.42
  -7  -4  -1    6.11    0.51
  -7   4  -1    5.34    0.46
   7   4   1    5.11    0.29
   7   4   1    5.09    0.45
   8  -5  -1   -0.02    0.05
   8  -5  -1   -0.06    0.11
  -8  -5   1    0.08    0.18
   8   5  -1    0.01    0.13
   8   5  -1    0.11    0.10
  -8   5   1    0.30    0.19
   7  -5  -1    0.97    0.19
   7  -5  -1    0.73    0.09
  -7  -5   1    1.16    0.21
  -7  -5   1    0.90    0.25
   7   5  -1    0.72    0.14
   7   5  -1    1.26    0.24
  -7   5   1    1.06    0.23
  -7   5   1    0.65    0.22
  -6  -5   1   -0.10    0.12
  -6  -5   1    0.08    0.12
   6  -5  -1    0.04    0.04
   6  -5  -1    0.01    0.07
   6  -5  -1    0.02    0.10
  -6   5   1    0.21    0.12
  -6   5   1    0.04    0.14
   6   5  -1    0.03    0.11
   6   5  -1    0.03    0.07
   5  -5  -1    0.06    0.04
  -5  -5   1    0.14    0.10
   5  -5  -1    0.08    0.04
   5  -5  -1    0.27    0.09
  -5  -5   1    0.34    0.15
   5  -5  -1    0.20    0.10
  -5   5   1    0.17    0.11
  -5   5   1    0.03    0.13
  -5   5   1    0.10    0.08
   5   5  -1    0.17    0.08
   5   5  -1    0.07    0.10
   5   5  -1    0.14    0.07
  -4  -5   1    0.43    0.14
  -4  -5   1    0.60    0.12
   4  -5  -1    0.26    0.09
   4  -5  -1    0.35    0.09
   4  -5  -1    0.33    0.05
   4  -5  -1    0.45    0.08
   4  -5  -1    0.48    0.06
   4   5  -1    0.38    0.08
  -4   5   1    0.49    0.14
  -4   5   1    0.44    0.11
   4   5  -1    0.48    0.13
   4   5  -1    0.31    0.08
   3  -5  -1    8.11    0.31
   3  -5  -1    7.99    0.36
   3  -5  -1    7.86    0.29
   3  -5  -1    8.61    0.35
   3  -5  -1    8.12    0.29
  -3  -5   1    8.82    0.37
   3   5  -1    8.04    0.34
  -3   5   1    8.47    0.39
  -3   5   1    8.09    0.34
   3   5  -1    8.28    0.40
   3   5  -1    8.40    0.33
   2  -5  -1    5.54    0.24
   2  -5  -1    5.18    0.20
   2  -5  -1    5.08    0.24
  -2  -5   1    5.19    0.18
   2  -5  -1    4.97    0.20
  -2  -5   1    5.39    0.22
   2  -5  -1    5.23    0.20
  -2  -5   1    3.94    0.24
  -2  -5   1    5.28    0.26
   2   5  -1    5.77    0.24
   2   5  -1    5.60    0.24
   2   5  -1    5.19    0.26
  -2   5   1    5.56    0.28
  -2   5   1    4.65    0.21
   1  -5  -1  109.78    3.43
  -1  -5   1  118.54    3.47
  -1  -5   1  114.94    3.42
   1  -5  -1  113.80    3.43
   1  -5  -1  111.30    3.45
  -1  -5   1  113.26    3.44
   1  -5  -1  111.96    3.45
   1   5  -1  118.89    3.47
  -1   5   1  113.78    3.48
  -1   5   1  108.33    3.41
  -1   5   1  113.44    3.42
   1   5  -1  112.48    3.44
   0  -5   1   15.47    0.52
   0  -5   1   15.54    0.52
   0  -5  -1   16.28    0.53
   0  -5   1   15.18    0.50
   0  -5  -1   15.61    0.52
   0  -5  -1   15.80    0.54
   0  -5   1   15.72    0.55
   0   5   1   15.73    0.52
   0   5  -1   15.61    0.51
   0   5   1   15.51    0.56
   0   5   1   15.23    0.52
   0   5   1   13.62    0.51
   0   5  -1   15.49    0.55
   0   5  -1   15.97    0.53
  -1  -5  -1    4.86    0.21
   1  -5   1    4.55    0.18
  -1  -5  -1    4.65    0.20
   1  -5   1    4.63    0.19
   1  -5   1    4.48    0.22
  -1  -5  -1    4.64    0.23
   1  -5   1    4.39    0.22
   1  -5   1    4.58    0.18
   1   5   1    4.88    0.23
   1   5   1    4.59    0.25
  -1   5  -1    5.03    0.24
   1   5   1    4.95    0.21
  -2  -5  -1   72.86    2.27
   2  -5   1   69.60    2.21
   2  -5   1   69.93    2.24
   2  -5   1   69.63    2.16
  -2  -5  -1   71.34    2.19
   2  -5   1   70.56    2.23
   2  -5   1   73.08    2.16
   2   5   1   69.80    2.16
   2   5   1   70.15    2.20
   2   5   1   70.42    2.28
  -2   5  -1   77.12    2.26
  -2   5  -1   74.90    2.23
   2   5   1   70.40    2.28
   3  -5   1    3.56    0.23
  -3  -5  -1    3.82    0.18
  -3  -5  -1    4.40    0.27
   3  -5   1    3.60    0.22
   3  -5   1    3.45    0.22
   3  -5   1    3.56    0.13
   3  -5   1    3.67    0.22
  -3   5  -1    3.90    0.24
   3   5   1    3.62    0.27
   3   5   1    3.56    0.16
   3   5   1    3.96    0.19
  -3   5  -1    3.92    0.24
   3   5   1    3.61    0.25
  -4  -5  -1   33.45    1.18
   4  -5   1   32.76    1.12
   4  -5   1   31.81    1.14
   4  -5   1   32.04    1.15
   4  -5   1   31.79    1.14
  -4   5  -1   35.34    1.17
   4   5   1   31.96    1.22
   4   5   1   30.98    1.19
   4   5   1   31.05    1.07
   5  -5   1   28.57    1.04
   5  -5   1   28.08    1.01
   5  -5   1   28.18    1.04
   5  -5   1   28.13    1.07
  -5  -5  -1   28.15    1.08
   5  -5   1   27.81    1.08
   5   5   1   27.76    0.96
   5   5   1   27.91    1.15
  -5   5  -1   28.23    1.07
   5   5   1   26.46    1.11
  -6  -5  -1    0.71    0.19
  -6   5  -1    0.68    0.18
  -6   5  -1    0.45    0.13
   6   5   1    0.65    0.19
  -6   5  -1    0.63    0.16
  -6   5  -1    0.56    0.15
  -6   5  -1    0.54    0.19
   6   5   1    0.67    0.12
   6   5   1    0.84    0.22
  -7  -5  -1    3.32    0.41
  -7  -5  -1    3.75    0.37
   7   5   1    4.00    0.41
   7   5   1    3.79    0.26
   8  -6  -1   -0.01    0.13
  -8  -6   1   -0.01    0.19
   8  -6  -1    0.08    0.05
   8   6  -1    0.12    0.17
  -8   6   1    0.19    0.18
   8   6  -1    0.02    0.09
  -7  -6   1    3.25    0.33
   7  -6  -1    3.15    0.31
  -7  -6   1    3.77    0.39
   7  -6  -1    3.47    0.17
   7   6  -1    3.69    0.39
   7   6  -1    2.96    0.25
  -7   6   1    3.26    0.36
  -6  -6   1    0.10    0.12
   6  -6  -1    0.00    0.09
  -6  -6   1    0.12    0.17
   6  -6  -1    0.09    0.04
   6  -6  -1    0.24    0.12
  -6   6   1    0.07    0.11
   6   6  -1   -0.11    0.09
  -6   6   1    0.15    0.14
   6   6  -1    0.06    0.08
  -5  -6   1   45.91    1.74
   5  -6  -1   50.53    1.70
   5  -6  -1   48.79    1.53
   5  -6  -1   50.13    1.64
  -5  -6   1   48.92    1.68
   5   6  -1   50.43    1.63
  -5   6   1   50.92    1.68
   5   6  -1   49.39    1.62
  -5   6   1   50.86    1.73
   5   6  -1   50.01    1.77
   4  -6  -1   50.04    1.68
  -4  -6   1   49.30    1.67
   4  -6  -1   51.22    1.55
   4  -6  -1   51.10    1.59
  -4  -6   1   50.81    1.72
   4  -6  -1   50.08    1.63
   4  -6  -1   50.50    1.55
   4   6  -1   50.27    1.62
  -4   6   1   51.66    1.71
   4   6  -1   48.55    1.61
   4   6  -1   49.03    1.72
  -4   6   1   48.82    1.63
   3  -6  -1   13.06    0.47
  -3  -6   1   13.69    0.57
   3  -6  -1   13.82    0.52
   3  -6  -1   13.33    0.46
   3  -6  -1   13.33    0.46
   3  -6  -1   12.26    0.53
  -3  -6   1   13.43    0.49
  -3  -6   1   14.42    0.55
  -3   6   1   14.88    0.58
   3   6  -1   12.90    0.50
  -3   6   1   13.87    0.50
   3   6  -1   13.80    0.57
   3   6  -1   13.87    0.51
  -2  -6   1   99.16    3.06
   2  -6  -1   99.81    3.08
  -2  -6   1   96.89    3.10
   2  -6  -1  103.27    3.09
  -2  -6   1  103.93    3.15
   2  -6  -1  102.25    3.14
   2  -6  -1   99.78    3.12
   2  -6  -1  101.34    3.08
   2   6  -1  101.22    3.11
   2   6  -1  102.35    3.12
  -2   6   1  106.44    3.18
   2   6  -1  103.18    3.16
  -1  -6   1   -0.09    0.05
  -1  -6   1    0.01    0.04
   1  -6  -1    0.01    0.04
   1  -6  -1   -0.04    0.04
  -1  -6   1   -0.01    0.03
   1  -6  -1    0.03    0.05
  -1  -6   1   -0.01    0.05
   1  -6  -1    0.00    0.05
  -1   6   1    0.00    0.03
   1   6  -1    0.05    0.05
  -1   6   1   -0.01    0.06
   1   6  -1   -0.06    0.05
  -1   6   1   -0.03    0.03
   1   6  -1   -0.02    0.05
   0  -6   1   27.73    0.89
   0  -6  -1   27.69    0.91
   0  -6  -1   27.37    0.89
   0  -6  -1   27.05    0.90
   0  -6   1   28.07    0.92
   0  -6   1   27.18    0.90
   0  -6   1   26.80    0.86
   0   6   1   27.77    0.89
   0   6  -1   28.69    0.88
   0   6  -1   29.06    0.93
   0   6   1   26.87    0.94
   0   6   1   26.49    0.89
   0   6   1   28.72    0.89
   0   6  -1   27.32    0.91
  -1  -6  -1   66.45    2.03
  -1  -6  -1   61.93    1.99
   1  -6   1   64.66    1.97
   1  -6   1   64.14    2.01
   1  -6   1   64.37    2.01
  -1  -6  -1   62.94    1.97
   1  -6   1   60.97    1.95
   1  -6   1   62.55    1.96
   1   6   1   67.34    1.96
  -1   6  -1   65.63    2.03
   1   6   1   63.72    2.02
   1   6   1   64.05    2.05
   1   6   1   64.68    1.99
  -1   6  -1   65.23    2.00
  -2  -6  -1   52.07    1.59
   2  -6   1   46.78    1.54
  -2  -6  -1   47.93    1.52
   2  -6   1   45.62    1.47
   2  -6   1   48.14    1.51
  -2  -6  -1   47.95    1.50
   2  -6   1   47.13    1.47
   2  -6   1   46.70    1.55
   2   6   1   48.74    1.47
   2   6   1   46.57    1.59
  -2   6  -1   50.45    1.55
   2   6   1   47.18    1.52
   2   6   1   47.46    1.58
  -2   6  -1   49.78    1.57
   3  -6   1   10.28    0.43
  -3  -6  -1    9.91    0.47
  -3  -6  -1    9.99    0.36
   3  -6   1    9.57    0.42
   3  -6   1   10.14    0.42
   3  -6   1   10.14    0.33
   3  -6   1    9.42    0.33
  -3   6  -1   10.32    0.43
   3   6   1    9.25    0.47
   3   6   1    9.89    0.39
   3   6   1    9.59    0.47
  -3   6  -1   10.08    0.44
   3   6   1    9.97    0.35
   4  -6   1    8.93    0.31
   4  -6   1    9.78    0.45
  -4  -6  -1   10.36    0.50
   4  -6   1    9.60    0.44
   4  -6   1    8.77    0.44
   4  -6   1    9.03    0.43
   4   6   1    9.59    0.50
  -4   6  -1    9.38    0.45
  -4   6  -1    9.79    0.45
   4   6   1    9.48    0.39
   4   6   1    9.07    0.50
   5  -6   1    0.51    0.14
   5  -6   1    0.63    0.15
  -5  -6  -1    0.32    0.13
   5  -6   1    0.45    0.13
  -5   6  -1    0.37    0.13
   5   6   1    0.45    0.10
  -5   6  -1    0.68    0.15
   5   6   1    0.40    0.15
   5   6   1    0.37    0.15
  -6  -6  -1   -0.14    0.12
   6  -6   1    0.10    0.11
   6  -6   1    0.01    0.10
  -6   6  -1   -0.07    0.10
  -6   6  -1    0.01    0.12
  -6   6  -1    0.12    0.12
   6   6   1   -0.10    0.06
   6   6   1    0.05    0.15
   6   6   1   -0.06    0.12
  -7  -6  -1    2.07    0.31
  -7  -6  -1    2.67    0.39
   7   6   1    2.52    0.23
   7   6   1    2.42    0.34
   8  -7  -1    0.19    0.16
   8  -7  -1   -0.01    0.05
  -8   7   1   -0.09    0.17
   8   7  -1    0.04    0.10
   8   7  -1   -0.13    0.11
   7  -7  -1    6.59    0.28
   7  -7  -1    6.48    0.45
  -7  -7   1    6.46    0.45
  -7  -7   1    6.42    0.51
   7   7  -1    7.33    0.53
  -7   7   1    6.37    0.49
   7   7  -1    7.00    0.38
   6  -7  -1    0.07    0.05
  -6  -7   1    0.07    0.12
   6  -7  -1    0.12    0.10
   6  -7  -1    0.04    0.10
  -6  -7   1    0.17    0.18
   6   7  -1    0.06    0.08
   6   7  -1   -0.03    0.12
  -6   7   1    0.15    0.14
  -5  -7   1   19.39    0.94
  -5  -7   1   24.89    0.93
   5  -7  -1   24.86    0.93
   5  -7  -1   24.09    0.88
   5  -7  -1   24.30    0.77
  -5   7   1   23.93    0.95
  -5   7   1   23.91    0.89
   5   7  -1   23.43    0.85
   5   7  -1   24.08    0.86
   5   7  -1   23.31    0.98
   4  -7  -1    2.61    0.21
   4  -7  -1    2.33    0.14
   4  -7  -1    2.46    0.20
   4  -7  -1    2.06    0.13
   4  -7  -1    2.46    0.16
  -4  -7   1    2.03    0.23
  -4  -7   1    2.40    0.22
   4   7  -1    2.34    0.24
  -4   7   1    1.96    0.17
  -4   7   1    2.75    0.25
   4   7  -1    2.52    0.18
   4   7  -1    2.42    0.18
   3  -7  -1   69.23    2.20
  -3  -7   1   67.52    2.09
   3  -7  -1   68.31    2.13
  -3  -7   1   69.95    2.23
  -3  -7   1   73.93    2.26
   3  -7  -1   68.20    2.15
   3  -7  -1   68.31    2.13
   3  -7  -1   66.89    2.22
  -3  -7   1   70.69    2.17
  -3   7   1   64.89    2.15
   3   7  -1   69.93    2.26
  -3   7   1   76.87    2.27
   3   7  -1   69.60    2.18
   3   7  -1   69.12    2.18
   2  -7  -1    6.99    0.28
  -2  -7   1    6.88    0.29
   2  -7  -1    7.01    0.32
  -2  -7   1    6.80    0.25
   2  -7  -1    6.67    0.31
   2  -7  -1    7.04    0.28
  -2  -7   1    7.03    0.34
   2  -7  -1    7.12    0.27
   2   7  -1    7.08    0.30
   2   7  -1    6.83    0.34
   2   7  -1    7.09    0.30
  -2   7   1    6.47    0.33
  -2   7   1    6.93    0.26
  -1  -7   1   87.55    2.76
   1  -7  -1   89.17    2.74
  -1  -7   1   86.12    2.70
   1  -7  -1   87.99    2.72
   1  -7  -1   87.71    2.72
  -1  -7   1   85.48    2.72
   1  -7  -1   89.81    2.74
  -1   7   1   91.34    2.78
   1   7  -1   89.41    2.74
   1   7  -1   90.14    2.72
  -1   7   1   87.26    2.68
   1   7  -1   92.70    2.76
  -1   7   1   88.05    2.71
   0  -7   1    9.40    0.37
   0  -7   1    9.63    0.38
   0  -7   1    9.86    0.40
   0  -7   1    9.29    0.33
   0  -7  -1   10.35    0.38
   0  -7  -1   10.48    0.39
   0  -7  -1   10.35    0.38
   0   7   1    9.87    0.38
   0   7  -1    9.97    0.39
   0   7  -1    8.45    0.39
   0   7  -1    9.74    0.36
   0   7   1    9.92    0.37
   0   7   1    9.94    0.36
   0   7   1   10.29    0.43
  -1  -7  -1   14.98    0.53
  -1  -7  -1   15.44    0.58
   1  -7   1   15.52    0.53
  -1  -7  -1   15.43    0.55
   1  -7   1   15.05    0.49
   1  -7   1   15.40    0.56
   1  -7   1   15.01    0.52
   1  -7   1   15.56    0.57
  -1   7  -1   16.34    0.59
   1   7   1   15.41    0.54
   1   7   1   15.29    0.52
   1   7   1   15.52    0.57
   1   7   1   15.08    0.60
  -2  -7  -1    1.11    0.09
   2  -7   1    0.95    0.09
   2  -7   1    0.86    0.08
   2  -7   1    0.99    0.12
   2  -7   1    1.00    0.13
   2  -7   1    1.01    0.08
  -2  -7  -1    1.08    0.14
  -2  -7  -1    0.91    0.10
  -2   7  -1    1.09    0.13
  -2   7  -1    0.88    0.13
   2   7   1    0.86    0.13
   2   7   1    1.07    0.08
   2   7   1    1.05    0.11
   2   7   1    0.93    0.14
   3  -7   1   43.86    1.38
   3  -7   1   44.18    1.38
  -3  -7  -1   45.77    1.41
   3  -7   1   43.89    1.48
   3  -7   1   43.27    1.48
   3  -7   1   43.93    1.45
  -3  -7  -1   43.53    1.52
  -3   7  -1   44.64    1.50
  -3   7  -1   47.87    1.50
   3   7   1   44.86    1.39
   3   7   1   44.80    1.55
   3   7   1   46.30    1.55
   3   7   1   44.10    1.44
   4  -7   1    5.13    0.30
  -4  -7  -1    5.31    0.35
   4  -7   1    4.93    0.19
   4  -7   1    5.26    0.30
   4  -7   1    5.03    0.19
   4  -7   1    4.65    0.30
   4   7   1    5.47    0.28
  -4   7  -1    4.60    0.31
   4   7   1    5.05    0.35
   4   7   1    5.47    0.38
  -4   7  -1    4.83    0.32
  -5  -7  -1   56.19    1.95
   5  -7   1   56.28    1.89
   5  -7   1   54.03    1.71
   5  -7   1   58.20    1.91
   5   7   1   58.12    2.03
  -5   7  -1   56.74    1.92
  -5   7  -1   54.78    1.90
   5   7   1   56.78    1.84
   5   7   1   56.35    2.00
   6  -7   1    3.52    0.30
  -6  -7  -1    3.53    0.34
   6   7   1    3.45    0.39
   6   7   1    3.58    0.27
  -6   7  -1    3.72    0.32
   6   7   1    3.52    0.37
  -7  -7  -1    4.59    0.41
  -7  -7  -1    4.60    0.47
   7   7   1    5.33    0.34
   7   7   1    5.50    0.49
  -7  -8   1    1.80    0.29
   7  -8  -1    1.26    0.24
   7  -8  -1    1.56    0.13
  -7  -8   1    1.64    0.31
   7   8  -1    1.65    0.21
  -7   8   1    1.85    0.32
   7   8  -1    1.59    0.30
   6  -8  -1    7.35    0.41
   6  -8  -1    7.28    0.46
  -6  -8   1    7.22    0.50
  -6  -8   1    7.54    0.46
   6  -8  -1    7.76    0.31
  -6   8   1    7.89    0.49
   6   8  -1    8.40    0.54
   6   8  -1    7.65    0.39
  -5  -8   1    7.11    0.46
   5  -8  -1    7.62    0.39
  -5  -8   1    7.27    0.42
   5  -8  -1    6.74    0.41
   5  -8  -1    7.04    0.29
   5   8  -1    7.43    0.37
  -5   8   1    7.45    0.45
   5   8  -1    7.67    0.36
   5   8  -1    7.65    0.47
   4  -8  -1    1.44    0.19
   4  -8  -1    1.72    0.14
   4  -8  -1    1.62    0.12
  -4  -8   1    1.03    0.21
   4  -8  -1    1.54    0.17
  -4  -8   1    2.03    0.21
   4   8  -1    1.92    0.23
   4   8  -1    1.74    0.16
   4   8  -1    1.54    0.16
  -4   8   1    1.86    0.23
  -4   8   1    1.64    0.16
  -3  -8   1    1.71    0.09
   3  -8  -1    1.75    0.12
   3  -8  -1    1.76    0.17
   3  -8  -1    1.96    0.13
   3  -8  -1    1.97    0.17
  -3  -8   1    1.56    0.19
   3  -8  -1    1.75    0.12
  -3  -8   1    1.76    0.18
  -3   8   1    2.14    0.22
   3   8  -1    2.01    0.15
  -3   8   1    1.84    0.13
   3   8  -1    1.86    0.20
   3   8  -1    1.74    0.16
   2  -8  -1    7.57    0.35
   2  -8  -1    7.21    0.33
   2  -8  -1    6.99    0.29
   2  -8  -1    7.20    0.30
   2  -8  -1    7.35    0.30
  -2  -8   1    7.32    0.35
  -2  -8   1    7.25    0.28
  -2   8   1    7.46    0.26
   2   8  -1    7.24    0.32
  -2   8   1    7.69    0.37
   2   8  -1    7.17    0.36
   2   8  -1    7.12    0.32
   1  -8  -1   12.54    0.48
  -1  -8   1   12.51    0.45
   1  -8  -1   12.48    0.46
  -1  -8   1   12.52    0.50
   1  -8  -1   11.84    0.46
  -1  -8   1   12.21    0.47
  -1   8   1   13.11    0.53
  -1   8   1   12.72    0.45
   1   8  -1   12.68    0.50
  -1   8   1   12.60    0.49
  -1   8   1   12.03    0.41
   1   8  -1   12.90    0.47
   0  -8   1   95.19    2.94
   0  -8  -1   98.90    2.96
   0  -8  -1   95.88    2.94
   0  -8   1   94.27    2.93
   0  -8  -1   97.94    2.94
   0  -8   1   92.24    2.97
   0  -8   1   91.40    2.87
   0   8  -1   98.22    2.96
   0   8  -1   83.41    2.96
   0   8   1   95.09    2.91
   0   8   1   96.31    3.00
   0   8   1   97.55    2.93
   0   8  -1   96.71    2.92
   0   8   1  102.81    2.95
  -1  -8  -1    8.29    0.33
  -1  -8  -1    8.47    0.37
  -1  -8  -1    8.39    0.34
   1  -8   1    7.99    0.35
   1  -8   1    8.09    0.33
   1  -8   1    7.54    0.35
   1  -8   1    8.04    0.32
  -1   8  -1    8.04    0.38
   1   8   1    8.52    0.35
   1   8   1    8.12    0.34
   1   8   1    7.98    0.32
   1   8   1    7.82    0.39
  -1   8  -1    8.44    0.36
   2  -8   1    3.40    0.22
   2  -8   1    3.23    0.15
   2  -8   1    2.98    0.16
   2  -8   1    3.42    0.21
  -2  -8  -1    3.13    0.19
   2  -8   1    3.07    0.16
  -2  -8  -1    3.07    0.23
  -2  -8  -1    3.35    0.17
   2   8   1    3.07    0.24
   2   8   1    3.03    0.19
   2   8   1    3.02    0.16
   2   8   1    3.37    0.23
  -2   8  -1    3.70    0.25
  -2   8  -1    3.48    0.22
  -3  -8  -1    1.56    0.19
   3  -8   1    1.24    0.10
   3  -8   1    1.34    0.10
   3  -8   1    1.56    0.17
   3  -8   1    1.55    0.16
  -3  -8  -1    1.50    0.11
   3  -8   1    1.26    0.12
   3   8   1    1.46    0.15
  -3   8  -1    1.36    0.18
  -3   8  -1    1.69    0.19
   3   8   1    1.24    0.19
   3   8   1    1.63    0.20
   4  -8   1    0.02    0.07
   4  -8   1    0.09    0.09
   4  -8   1    0.08    0.04
  -4  -8  -1    0.08    0.11
   4   8   1    0.21    0.13
  -4   8  -1    0.32    0.12
  -4   8  -1    0.11    0.11
   4   8   1    0.08    0.11
   4   8   1    0.05    0.07
   5  -8   1    2.26    0.12
   5  -8   1    2.26    0.24
  -5  -8  -1    2.30    0.28
   5  -8   1    1.79    0.22
   5   8   1    1.96    0.20
  -5   8  -1    2.35    0.25
   5   8   1    2.01    0.28
  -5   8  -1    2.16    0.25
   5   8   1    2.45    0.30
  -6  -8  -1    1.78    0.28
   6  -8   1    2.08    0.25
  -6   8  -1    1.68    0.27
   6   8   1    2.04    0.31
   6   8   1    2.20    0.32
   6   8   1    2.33    0.23
  -7  -8  -1    0.54    0.23
  -7  -8  -1    0.70    0.22
   7   8   1    0.46    0.14
   7   8   1    0.42    0.19
   7  -9  -1    7.40    0.50
   7  -9  -1    7.62    0.32
  -7  -9   1    6.74    0.48
  -7  -9   1    7.52    0.55
  -7   9   1    6.99    0.52
   7   9  -1    7.97    0.58
   7   9  -1    8.16    0.44
  -6  -9   1    0.31    0.15
   6  -9  -1    0.13    0.10
   6  -9  -1    0.16    0.12
   6  -9  -1    0.32    0.07
  -6  -9   1    0.27    0.17
   6   9  -1    0.22    0.16
   6   9  -1    0.28    0.11
  -6   9   1    0.25    0.17
   5  -9  -1   27.62    1.03
  -5  -9   1   27.02    1.07
   5  -9  -1   27.08    1.07
   5  -9  -1   27.47    0.92
  -5  -9   1   26.51    1.10
   5   9  -1   28.62    1.01
  -5   9   1   29.42    1.11
   5   9  -1   27.72    1.13
   4  -9  -1   -0.02    0.08
   4  -9  -1    0.11    0.09
  -4  -9   1   -0.02    0.08
  -4  -9   1    0.11    0.11
   4  -9  -1    0.04    0.05
   4   9  -1    0.05    0.10
   4   9  -1    0.05    0.08
  -4   9   1    0.01    0.12
   4   9  -1   -0.06    0.05
   3  -9  -1   25.99    0.87
   3  -9  -1   26.04    0.94
  -3  -9   1   26.40    0.97
   3  -9  -1   25.75    0.88
   3   9  -1   26.72    0.91
   3   9  -1   26.87    0.92
   3   9  -1   26.70    1.00
  -3   9   1   25.93    0.98
   2  -9  -1    0.61    0.11
  -2  -9   1    0.51    0.09
   2  -9  -1    0.72    0.10
   2  -9  -1    0.73    0.10
  -2  -9   1    0.86    0.14
   2  -9  -1    0.72    0.13
  -2  -9   1    0.77    0.08
   2   9  -1    0.66    0.11
  -2   9   1    0.59    0.13
  -2   9   1    0.67    0.06
   2   9  -1    0.80    0.11
   2   9  -1    0.86    0.14
   1  -9  -1   19.70    0.67
   1  -9  -1   18.25    0.67
  -1  -9   1   18.67    0.70
  -1  -9   1   19.16    0.65
  -1  -9   1   17.13    0.66
   1  -9  -1   18.83    0.66
   1   9  -1   19.53    0.71
   1   9  -1   18.16    0.68
  -1   9   1   17.24    0.68
  -1   9   1   18.45    0.64
   1   9  -1   19.42    0.66
  -1   9   1   19.41    0.73
  -1   9   1   18.17    0.59
   0  -9  -1    1.57    0.13
   0  -9  -1    1.34    0.14
   0  -9   1    1.49    0.16
   0  -9   1    1.26    0.12
   0  -9   1    1.71    0.14
   0  -9  -1    1.55    0.14
   0   9   1    1.39    0.12
   0   9   1    1.50    0.14
   0   9  -1    1.30    0.11
   0   9   1    1.37    0.11
   0   9  -1    1.56    0.15
   0   9   1    1.57    0.18
   0   9  -1    1.49    0.16
   1  -9   1   29.85    0.99
   1  -9   1   30.93    0.98
  -1  -9  -1   28.78    0.98
   1  -9   1   30.40    1.03
   1  -9   1   29.46    1.02
  -1  -9  -1   30.80    1.05
  -1  -9  -1   29.80    1.01
  -1   9  -1   30.18    1.03
   1   9   1   30.96    1.01
   1   9   1   29.83    1.00
   1   9   1   30.29    0.98
  -1   9  -1   26.98    1.04
   1   9   1   29.76    1.08
   2  -9   1    0.53    0.09
   2  -9   1    0.52    0.11
  -2  -9  -1    0.92    0.15
   2  -9   1    0.34    0.10
  -2  -9  -1    0.55    0.09
   2   9   1    0.71    0.13
   2   9   1    0.60    0.08
  -2   9  -1    0.66    0.14
  -2   9  -1    0.56    0.12
   2   9   1    0.73    0.12
   2   9   1    0.55    0.13
  -3  -9  -1   18.89    0.78
   3  -9   1   19.50    0.75
   3  -9   1   19.55    0.76
   3  -9   1   19.69    0.67
  -3  -9  -1   19.10    0.67
   3   9   1   20.22    0.81
  -3   9  -1   20.73    0.76
   3   9   1   19.30    0.82
  -3   9  -1   19.14    0.78
   3   9   1   19.85    0.72
   4  -9   1    0.01    0.08
   4  -9   1    0.06    0.08
  -4  -9  -1   -0.12    0.09
   4  -9   1    0.02    0.04
  -4   9  -1   -0.05    0.09
   4   9   1    0.00    0.07
   4   9   1    0.01    0.09
   4   9   1    0.11    0.12
  -4   9  -1   -0.13    0.10
   5  -9   1    3.69    0.30
   5  -9   1    4.25    0.31
  -5  -9  -1    4.17    0.36
   5  -9   1    4.01    0.19
  -5   9  -1    4.04    0.33
   5   9   1    4.32    0.38
   5   9   1    4.67    0.40
  -5   9  -1    4.01    0.33
   5   9   1    4.38    0.29
  -6  -9  -1    4.71    0.41
   6  -9   1    4.39    0.34
   6  -9   1    4.43    0.20
  -6  -9  -1    5.11    0.44
  -6   9  -1    4.87    0.38
   6   9   1    4.10    0.41
   6   9   1    4.64    0.45
   6   9   1    4.99    0.33
  -7  -9  -1    0.11    0.17
   7   9   1    0.22    0.12
  -7   9  -1    0.24    0.23
   7   9   1    0.15    0.17
   7 -10  -1    0.71    0.20
  -7 -10   1    0.31    0.19
  -7 -10   1    1.13    0.24
   7 -10  -1    0.99    0.12
   7  10  -1    0.78    0.24
   7  10  -1    1.35    0.22
  -7  10   1    0.97    0.25
  -6 -10   1    0.33    0.16
   6 -10  -1    0.23    0.12
   6 -10  -1    0.23    0.07
   6 -10  -1    0.47    0.15
  -6 -10   1   -0.01    0.13
  -6  10   1    0.53    0.19
   6  10  -1    0.27    0.12
   6  10  -1    0.41    0.18
  -5 -10   1    0.20    0.13
   5 -10  -1    0.09    0.10
  -5 -10   1    0.06    0.14
   5 -10  -1    0.17    0.12
   5 -10  -1    0.12    0.06
   5  10  -1    0.04    0.09
   5  10  -1    0.05    0.13
  -5  10   1    0.10    0.14
   4 -10  -1    0.34    0.08
   4 -10  -1    0.30    0.12
  -4 -10   1    0.31    0.14
   4 -10  -1    0.52    0.13
  -4 -10   1    0.52    0.14
   4  10  -1    0.47    0.12
  -4  10   1    0.51    0.16
   4  10  -1    0.29    0.09
   4  10  -1    0.37    0.14
   3 -10  -1    0.04    0.06
   3 -10  -1    0.04    0.07
  -3 -10   1    0.08    0.09
  -3 -10   1   -0.06    0.06
   3 -10  -1   -0.04    0.07
   3 -10  -1    0.08    0.06
   3  10  -1   -0.02    0.07
   3  10  -1    0.04    0.07
   3  10  -1   -0.01    0.07
  -3  10   1   -0.02    0.09
  -2 -10   1   12.57    0.47
  -2 -10   1   13.26    0.57
   2 -10  -1   13.31    0.54
   2 -10  -1   13.48    0.50
   2 -10  -1   13.94    0.51
  -2 -10   1   12.24    0.51
  -2  10   1   13.05    0.57
  -2  10   1   12.44    0.54
   2  10  -1   12.89    0.52
   2  10  -1   13.06    0.57
   2  10  -1   14.17    0.52
  -1 -10   1    4.17    0.22
  -1 -10   1    4.80    0.25
   1 -10  -1    4.04    0.23
  -1 -10   1    4.97    0.28
   1 -10  -1    4.51    0.25
   1 -10  -1    4.87    0.25
   1  10  -1    4.49    0.28
  -1  10   1    4.24    0.26
   1  10  -1    4.82    0.27
  -1  10   1    4.26    0.29
  -1  10   1    4.42    0.17
  -1  10   1    4.44    0.23
   1  10  -1    4.54    0.24
   0 -10  -1   28.88    1.00
   0 -10   1   29.37    1.00
   0 -10   1   28.18    1.03
   0 -10   1   30.23    1.00
   0 -10  -1   30.24    1.00
   0 -10  -1   29.20    1.02
   0  10   1   31.44    1.08
   0  10  -1   30.77    1.04
   0  10   1   28.64    1.01
   0  10   1   29.21    0.96
   0  10   1   29.52    0.99
   0  10  -1   29.13    0.98
   1 -10   1   16.57    0.65
   1 -10   1   16.93    0.61
  -1 -10  -1   17.24    0.63
  -1 -10  -1   16.29    0.60
  -1 -10  -1   15.29    0.65
   1 -10   1   16.69    0.64
  -1  10  -1   17.17    0.65
   1  10   1   16.49    0.62
  -1  10  -1   16.89    0.67
   1  10   1   17.41    0.60
   1  10   1   17.00    0.62
   1  10   1   15.99    0.69
   2 -10   1    2.44    0.20
  -2 -10  -1    1.88    0.20
  -2 -10  -1    1.78    0.14
   2 -10   1    1.95    0.15
   2 -10   1    1.86    0.18
   2  10   1    1.99    0.19
   2  10   1    2.24    0.23
  -2  10  -1    2.12    0.22
   2  10   1    2.13    0.14
  -2  10  -1    1.86    0.19
   2  10   1    2.09    0.18
   3 -10   1   12.25    0.54
   3 -10   1   11.99    0.53
  -3 -10  -1   11.93    0.56
   3 -10   1   12.18    0.46
  -3 -10  -1   11.82    0.48
   3  10   1   12.55    0.58
   3  10   1   12.52    0.51
  -3  10  -1   12.17    0.53
  -3  10  -1   12.18    0.56
   3  10   1   11.51    0.60
  -4 -10  -1   -0.10    0.10
   4 -10   1   -0.10    0.09
   4 -10   1   -0.07    0.07
   4 -10   1   -0.03    0.04
  -4  10  -1   -0.04    0.10
   4  10   1   -0.08    0.09
   4  10   1    0.06    0.11
   4  10   1   -0.06    0.08
  -4  10  -1    0.05    0.12
   5 -10   1    8.72    0.35
  -5 -10  -1    8.93    0.53
   5 -10   1    8.59    0.48
   5 -10   1    8.93    0.52
   5  10   1    9.15    0.56
   5  10   1    8.96    0.46
   5  10   1    9.79    0.58
  -5  10  -1    8.86    0.51
  -6 -10  -1    0.00    0.15
   6 -10   1    0.03    0.13
  -6 -10  -1    0.17    0.15
   6 -10   1    0.09    0.05
  -6  10  -1    0.14    0.16
   6  10   1    0.05    0.15
   6  10   1    0.20    0.12
   6  10   1    0.12    0.17
   7 -11  -1   -0.12    0.12
   7 -11  -1   -0.03    0.06
  -7 -11   1    0.01    0.13
   7 -11  -1   -0.10    0.12
  -7 -11   1   -0.02    0.14
  -7  11   1   -0.16    0.15
   7  11  -1    0.04    0.12
  -7  11   1    0.07    0.15
   7  11  -1    0.07    0.17
  -6 -11   1    0.66    0.21
  -6 -11   1    0.31    0.16
   6 -11  -1    0.51    0.10
   6 -11  -1    0.42    0.15
   6 -11  -1    0.40    0.14
   6  11  -1    0.36    0.12
  -6  11   1    0.59    0.21
   6  11  -1    0.72    0.23
  -5 -11   1    0.11    0.12
   5 -11  -1    0.00    0.05
   5 -11  -1   -0.13    0.09
  -5 -11   1    0.10    0.12
   5 -11  -1   -0.11    0.08
   5  11  -1    0.03    0.12
  -5  11   1    0.01    0.14
   5  11  -1   -0.07    0.08
   4 -11  -1    1.67    0.21
  -4 -11   1    1.13    0.20
   4 -11  -1    1.64    0.20
   4 -11  -1    1.48    0.14
  -4 -11   1    1.60    0.22
   4  11  -1    1.61    0.18
  -4  11   1    1.53    0.24
   4  11  -1    1.23    0.15
   4  11  -1    1.31    0.21
  -3 -11   1    0.10    0.10
   3 -11  -1    0.28    0.08
  -3 -11   1    0.24    0.11
   3 -11  -1    0.25    0.11
   3 -11  -1    0.25    0.11
   3 -11  -1    0.37    0.09
   3  11  -1    0.30    0.09
   3  11  -1    0.45    0.11
   3  11  -1    0.23    0.12
  -3  11   1    0.33    0.13
  -3  11   1    0.26    0.12
  -2 -11   1    4.56    0.29
   2 -11  -1    4.39    0.27
  -2 -11   1    4.38    0.25
   2 -11  -1    4.43    0.24
  -2 -11   1    4.24    0.22
   2 -11  -1    4.23    0.25
   2  11  -1    4.76    0.26
  -2  11   1    3.85    0.27
  -2  11   1    4.44    0.31
   2  11  -1    4.27    0.25
   2  11  -1    4.29    0.30
  -1 -11   1    6.94    0.32
   1 -11  -1    7.38    0.34
  -1 -11   1    7.38    0.34
  -1 -11   1    6.78    0.37
   1 -11  -1    7.15    0.35
   1 -11  -1    6.55    0.34
   1  11  -1    7.63    0.33
  -1  11   1    7.20    0.40
   1  11  -1    6.80    0.37
  -1  11   1    7.43    0.36
   1  11  -1    7.26    0.36
   0 -11  -1   35.11    1.19
   0 -11   1   34.79    1.23
   0 -11   1   35.22    1.19
   0 -11  -1   35.17    1.22
   0 -11  -1   34.72    1.19
   0 -11   1   35.55    1.19
   0  11   1   38.25    1.21
   0  11   1   34.53    1.26
   0  11  -1   36.64    1.24
   0  11   1   34.40    1.18
   0  11   1   35.90    1.14
  -1 -11  -1    0.77    0.12
  -1 -11  -1    0.49    0.10
   1 -11   1    0.48    0.12
  -1 -11  -1    0.62    0.13
   1 -11   1    0.47    0.09
   1 -11   1    0.49    0.12
   1  11   1    0.56    0.10
   1  11   1    0.65    0.12
   1  11   1    0.48    0.15
  -1  11  -1    0.56    0.13
   1  11   1    0.64    0.11
  -1  11  -1    0.44    0.12
  -2 -11  -1   11.32    0.44
   2 -11   1   10.99    0.45
   2 -11   1   10.62    0.50
  -2 -11  -1   11.44    0.53
   2 -11   1   11.23    0.50
  -2  11  -1   11.37    0.50
   2  11   1   11.31    0.43
  -2  11  -1   11.10    0.53
   2  11   1   11.48    0.48
   2  11   1   10.80    0.56
   2  11   1   11.75    0.51
   3 -11   1    1.32    0.19
   3 -11   1    1.44    0.14
   3 -11   1    1.50    0.18
  -3 -11  -1    1.71    0.22
   3  11   1    1.58    0.21
  -3  11  -1    1.57    0.21
   3  11   1    1.78    0.19
   3  11   1    1.45    0.23
  -3  11  -1    1.49    0.21
   4 -11   1    1.20    0.18
   4 -11   1    1.19    0.19
   4 -11   1    1.17    0.12
  -4 -11  -1    1.32    0.23
  -4  11  -1    1.27    0.22
   4  11   1    1.32    0.18
   4  11   1    1.41    0.24
   4  11   1    1.19    0.22
  -4  11  -1    1.38    0.20
   5 -11   1    0.13    0.07
   5 -11   1    0.10    0.12
  -5 -11  -1    0.11    0.13
  -5  11  -1    0.30    0.16
   5  11   1    0.32    0.13
   5  11   1   -0.02    0.14
   5  11   1    0.33    0.16
   6 -11   1    6.52    0.44
   6 -11   1    6.50    0.29
  -6 -11  -1    6.54    0.49
  -6 -11  -1    5.07    0.47
   6  11   1    6.25    0.51
   6  11   1    7.27    0.42
  -6  11  -1    6.56    0.47
  -7 -12   1    0.65    0.22
   7 -12  -1    0.58    0.11
   7 -12  -1    0.42    0.17
  -7 -12   1    0.68    0.22
  -7  12   1    0.65    0.22
  -7  12   1    0.41    0.22
   7  12  -1    0.53    0.24
   7  12  -1    0.44    0.17
   6 -12  -1   27.36    0.95
   6 -12  -1   27.27    1.09
  -6 -12   1   25.55    1.12
  -6  12   1   28.84    1.16
  -6  12   1   28.30    1.14
   6  12  -1   27.80    1.23
   6  12  -1   26.74    1.05
  -5 -12   1    0.05    0.13
  -5 -12   1    0.43    0.17
   5 -12  -1    0.42    0.14
   5 -12  -1    0.21    0.08
   5 -12  -1    0.36    0.14
   5  12  -1    0.19    0.15
  -5  12   1    0.31    0.16
  -5  12   1    0.21    0.15
   5  12  -1    0.15    0.11
   4 -12  -1    7.66    0.43
  -4 -12   1    8.02    0.47
   4 -12  -1    7.84    0.36
   4  12  -1    7.64    0.38
  -4  12   1    7.51    0.47
  -4  12   1    7.81    0.45
   4  12  -1    7.52    0.40
   4  12  -1    7.45    0.48
  -3 -12   1    5.27    0.35
   3 -12  -1    5.08    0.28
   3 -12  -1    5.15    0.32
   3 -12  -1    5.11    0.27
   3  12  -1    4.79    0.35
   3  12  -1    5.16    0.30
  -3  12   1    5.39    0.35
  -3  12   1    4.92    0.36
   2 -12  -1   30.50    1.08
  -2 -12   1   30.66    1.06
  -2 -12   1   31.47    1.01
   2 -12  -1   30.25    1.05
   2 -12  -1   30.13    1.04
  -2 -12   1   30.03    1.11
   2  12  -1   30.88    1.05
   2  12  -1   28.56    1.12
   2  12  -1   30.16    1.06
  -2  12   1   28.45    1.09
  -2  12   1   29.53    1.12
   1 -12  -1   10.52    0.46
   1 -12  -1   10.32    0.46
  -1 -12   1   10.91    0.46
   1 -12  -1   10.36    0.44
  -1 -12   1   10.42    0.43
  -1 -12   1   10.37    0.49
   1  12  -1    9.37    0.46
  -1  12   1   10.87    0.52
   1  12  -1   10.17    0.50
   0 -12  -1  101.40    3.07
   0 -12  -1   95.00    3.09
   0 -12  -1   95.02    3.05
   0 -12   1   95.30    3.10
   0 -12   1   96.95    3.06
   0 -12   1   97.59    3.06
   0  12   1  101.23    3.08
   0  12   1   99.46    3.15
   0  12  -1   95.24    3.10
   0  12  -1  100.73    3.11
   1 -12   1    3.50    0.25
   1 -12   1    3.23    0.24
   1 -12   1    3.39    0.22
  -1 -12  -1    3.40    0.23
  -1 -12  -1    3.45    0.26
  -1 -12  -1    3.17    0.21
   1  12   1    3.46    0.30
   1  12   1    3.05    0.21
  -1  12  -1    3.51    0.26
   1  12   1    3.19    0.23
   1  12   1    3.25    0.21
  -1  12  -1    3.05    0.25
  -2 -12  -1   17.44    0.75
   2 -12   1   18.47    0.73
   2 -12   1   18.44    0.68
   2 -12   1   17.29    0.73
  -2 -12  -1   18.29    0.66
   2  12   1   19.08    0.73
   2  12   1   19.89    0.82
  -2  12  -1   16.89    0.75
   2  12   1   19.01    0.71
   3 -12   1    2.77    0.19
   3 -12   1    3.08    0.25
   3 -12   1    2.85    0.25
  -3 -12  -1    2.94    0.27
   3  12   1    3.06    0.25
   3  12   1    2.93    0.30
   3  12   1    3.40    0.29
  -3  12  -1    2.98    0.27
  -3  12  -1    3.29    0.29
  -4 -12  -1    6.32    0.44
   4 -12   1    5.95    0.39
   4 -12   1    6.10    0.38
   4 -12   1    6.42    0.30
  -4  12  -1    6.22    0.46
   4  12   1    6.47    0.38
  -4  12  -1    6.30    0.42
   4  12   1    6.56    0.44
   4  12   1    6.57    0.46
  -5 -12  -1    2.18    0.31
  -5 -12  -1    2.32    0.31
   5 -12   1    2.15    0.17
   5 -12   1    2.37    0.27
   5  12   1    2.20    0.25
  -5  12  -1    2.77    0.31
   5  12   1    2.29    0.32
   5  12   1    2.52    0.34
  -6 -12  -1    4.86    0.45
   6 -12   1    6.13    0.44
   6 -12   1    5.65    0.28
  -6 -12  -1    6.48    0.51
  -6  12  -1    5.34    0.45
   6  12   1    6.78    0.41
   6  12   1    6.14    0.52
  -6 -13   1    0.13    0.15
  -6 -13   1    0.10    0.14
   6 -13  -1    0.20    0.15
   6 -13  -1    0.07    0.07
   6  13  -1   -0.01    0.14
  -6  13   1    0.10    0.16
  -6  13   1   -0.07    0.15
   6  13  -1    0.18    0.12
   5 -13  -1    8.08    0.38
  -5 -13   1    8.24    0.51
   5 -13  -1    8.42    0.48
   5  13  -1    8.11    0.55
  -5  13   1    8.71    0.53
  -5  13   1    8.43    0.51
   5  13  -1    7.76    0.44
  -4 -13   1    0.25    0.13
   4 -13  -1    0.37    0.10
   4 -13  -1    0.37    0.12
  -4 -13   1    0.37    0.14
   4  13  -1    0.33    0.11
  -4  13   1    0.55    0.18
  -4  13   1    0.29    0.14
   4  13  -1    0.21    0.13
   3 -13  -1   22.87    0.90
  -3 -13   1   22.11    0.93
   3 -13  -1   24.08    0.85
  -3  13   1   23.50    0.95
   3  13  -1   24.75    0.88
  -3  13   1   21.71    0.92
   3  13  -1   23.50    0.97
   2 -13  -1    1.34    0.17
   2 -13  -1    1.19    0.18
  -2 -13   1    1.03    0.13
  -2 -13   1    1.17    0.20
   2 -13  -1    1.18    0.15
  -2  13   1    0.74    0.17
   2  13  -1    1.05    0.16
  -2  13   1    0.79    0.16
   2  13  -1    1.12    0.19
  -1 -13   1   56.04    1.79
  -1 -13   1   57.04    1.82
   1 -13  -1   54.53    1.82
   1 -13  -1   53.89    1.82
   1 -13  -1   54.40    1.80
  -1 -13   1   55.41    1.87
   1  13  -1   53.74    1.83
   1  13  -1   54.70    1.87
  -1  13   1   57.53    1.86
  -1  13   1   54.67    1.90
   0 -13  -1   22.21    0.82
   0 -13  -1   23.29    0.83
   0 -13  -1   21.71    0.84
   0 -13   1   22.00    0.82
   0 -13   1   21.18    0.81
   0 -13   1   21.72    0.86
   0  13  -1   23.49    0.87
   0  13   1   21.02    0.89
   0  13  -1   23.06    0.87
   0  13   1   21.56    0.83
  -1 -13  -1   45.71    1.56
   1 -13   1   45.58    1.53
   1 -13   1   45.59    1.55
  -1 -13  -1   44.85    1.48
   1 -13   1   45.67    1.50
  -1  13  -1   47.14    1.55
  -1  13  -1   38.50    1.54
   1  13   1   45.60    1.49
   1  13   1   45.65    1.61
   2 -13   1    0.27    0.09
  -2 -13  -1    0.32    0.13
  -2 -13  -1    0.16    0.08
   2 -13   1    0.28    0.11
   2 -13   1    0.22    0.11
  -2  13  -1    0.15    0.11
  -2  13  -1    0.23    0.12
   2  13   1    0.40    0.12
   2  13   1    0.20    0.10
   2  13   1    0.08    0.12
   3 -13   1   12.33    0.51
   3 -13   1   12.92    0.60
  -3 -13  -1   12.60    0.62
   3 -13   1   12.69    0.58
  -3  13  -1   12.05    0.62
   3  13   1   11.74    0.65
   3  13   1   13.51    0.57
  -3  13  -1   12.74    0.59
   3  13   1   12.67    0.60
  -4 -13  -1    1.57    0.26
   4 -13   1    1.39    0.22
   4 -13   1    1.14    0.15
   4 -13   1    1.84    0.22
   4  13   1    1.71    0.27
   4  13   1    1.51    0.26
   4  13   1    1.32    0.21
  -4  13  -1    1.28    0.24
   5 -13   1    2.79    0.20
  -5 -13  -1    2.15    0.32
  -5 -13  -1    2.56    0.32
   5 -13   1    3.15    0.31
  -5  13  -1    2.36    0.31
   5  13   1    2.59    0.28
   5  13   1    3.39    0.38
   6 -13   1    5.79    0.29
  -6 -13  -1    4.74    0.46
  -6 -13  -1    5.86    0.49
   6 -13   1    6.23    0.45
   6  13   1    5.22    0.49
  -6  13  -1    5.26    0.45
   6  13   1    5.66    0.40
  -6 -14   1   -0.01    0.12
  -6 -14   1    0.27    0.17
   6 -14  -1   -0.06    0.06
   6 -14  -1    0.18    0.14
   6  14  -1    0.11    0.16
  -6  14   1    0.16    0.16
   6  14  -1    0.03    0.11
  -6  14   1   -0.17    0.15
  -5 -14   1   -0.03    0.13
  -5 -14   1   -0.05    0.12
   5 -14  -1   -0.08    0.05
   5 -14  -1    0.03    0.12
   5  14  -1    0.02    0.14
   5  14  -1    0.28    0.13
  -5  14   1    0.17    0.17
  -5  14   1    0.02    0.14
  -4 -14   1   16.13    0.79
   4 -14  -1   19.90    0.74
  -4 -14   1   18.79    0.85
   4 -14  -1   20.02    0.83
  -4  14   1   19.94    0.87
  -4  14   1   20.09    0.86
   4  14  -1   20.13    0.79
   4  14  -1   19.69    0.90
   3 -14  -1    0.15    0.09
   3 -14  -1    0.00    0.08
  -3 -14   1    0.01    0.09
   3  14  -1   -0.08    0.07
  -3  14   1   -0.02    0.13
   3  14  -1    0.00    0.10
  -3  14   1    0.38    0.14
   2 -14  -1    2.39    0.21
   2 -14  -1    1.87    0.21
  -2 -14   1    2.38    0.25
   2 -14  -1    2.01    0.20
  -2 -14   1    2.20    0.18
  -2  14   1    1.79    0.22
   2  14  -1    2.08    0.24
  -2  14   1    2.40    0.27
   2  14  -1    1.84    0.20
   1 -14  -1    0.63    0.14
  -1 -14   1    0.70    0.12
   1 -14  -1    0.32    0.10
  -1 -14   1    0.38    0.10
   1 -14  -1    0.56    0.13
  -1 -14   1    0.46    0.14
   1  14  -1    0.62    0.15
  -1  14   1    0.77    0.18
  -1  14   1    0.87    0.17
   1  14  -1    0.42    0.12
   0 -14  -1   13.61    0.55
   0 -14  -1   11.96    0.56
   0 -14   1   12.85    0.54
   0 -14   1   11.82    0.57
   0 -14  -1   12.00    0.52
   0 -14   1   11.91    0.53
   0  14   1   11.94    0.61
   0  14  -1   12.98    0.59
   0  14   1   14.01    0.57
   0  14  -1   10.07    0.54
  -1 -14  -1    3.20    0.23
   1 -14   1    3.35    0.24
   1 -14   1    2.96    0.25
  -1 -14  -1    3.09    0.28
   1 -14   1    2.87    0.26
  -1  14  -1    3.28    0.27
   1  14   1    3.27    0.31
   1  14   1    3.48    0.24
  -1  14  -1    3.01    0.28
   2 -14   1    2.91    0.27
   2 -14   1    2.50    0.21
   2 -14   1    2.93    0.26
  -2 -14  -1    2.75    0.20
  -2 -14  -1    3.26    0.29
   2  14   1    2.80    0.30
  -2  14  -1    2.67    0.26
  -2  14  -1    2.72    0.28
   3 -14   1    1.69    0.23
   3 -14   1    1.74    0.18
   3 -14   1    1.93    0.22
  -3 -14  -1    1.81    0.25
   3  14   1    1.89    0.23
   3  14   1    1.60    0.25
  -3  14  -1    2.22    0.28
   3  14   1    1.93    0.22
  -3  14  -1    1.59    0.23
   4 -14   1   12.14    0.61
  -4 -14  -1   11.39    0.63
   4 -14   1   12.01    0.50
   4  14   1   10.74    0.66
   4  14   1   12.00    0.57
   4  14   1   12.16    0.64
  -4  14  -1   11.41    0.63
  -5 -14  -1    0.86    0.21
   5 -14   1    0.66    0.18
   5 -14   1    1.00    0.15
  -5 -14  -1    0.49    0.18
  -5  14  -1    0.86    0.21
   5  14   1    1.01    0.24
   5  14   1    0.84    0.18
   6 -15  -1    0.02    0.14
  -6 -15   1   -0.06    0.15
   6 -15  -1   -0.02    0.06
  -6 -15   1    0.14    0.16
   6  15  -1   -0.03    0.12
  -6  15   1    0.27    0.19
  -6  15   1   -0.04    0.17
   6  15  -1   -0.01    0.17
  -5 -15   1    0.41    0.18
   5 -15  -1    0.57    0.17
   5 -15  -1    0.35    0.11
  -5 -15   1    0.11    0.14
   5  15  -1    0.31    0.20
  -5  15   1    0.27    0.17
  -5  15   1    0.45    0.20
   4 -15  -1    1.10    0.17
   4 -15  -1    0.94    0.18
  -4 -15   1    1.20    0.23
  -4  15   1    1.26    0.25
  -4  15   1    1.14    0.22
   4  15  -1    1.37    0.26
  -3 -15   1    3.38    0.32
   3 -15  -1    3.76    0.26
   3 -15  -1    3.57    0.31
   3  15  -1    3.35    0.26
  -3  15   1    3.60    0.32
  -3  15   1    3.47    0.34
   3  15  -1    4.09    0.36
  -2 -15   1    0.00    0.10
   2 -15  -1   -0.03    0.08
   2 -15  -1    0.06    0.08
   2 -15  -1    0.06    0.10
   2  15  -1    0.03    0.10
  -2  15   1    0.09    0.12
   2  15  -1    0.11    0.09
  -2  15   1    0.02    0.13
  -1 -15   1    9.78    0.46
   1 -15  -1    9.11    0.46
   1 -15  -1    9.16    0.45
  -1 -15   1    9.41    0.50
   1 -15  -1    9.04    0.46
  -1 -15   1    9.27    0.43
   1  15  -1    9.11    0.51
   1  15  -1    9.18    0.47
  -1  15   1    9.85    0.49
  -1  15   1    8.63    0.51
   0 -15  -1    0.61    0.14
   0 -15   1    0.48    0.13
   0 -15  -1    0.57    0.14
   0 -15  -1    0.39    0.12
   0 -15   1    0.50    0.15
   0 -15   1    0.42    0.12
   0  15  -1    0.40    0.14
   0  15   1    0.66    0.18
   0  15  -1    0.62    0.14
   0  15   1    0.38    0.13
   1 -15   1    8.46    0.41
   1 -15   1    8.56    0.44
   1 -15   1    9.07    0.47
  -1 -15  -1    8.51    0.47
  -1 -15  -1    8.44    0.40
   1  15   1    7.21    0.39
   1  15   1    8.63    0.51
  -1  15  -1    8.40    0.46
  -1  15  -1    8.83    0.49
   2 -15   1    3.63    0.30
   2 -15   1    3.29    0.29
  -2 -15  -1    3.12    0.31
   2 -15   1    3.45    0.25
  -2  15  -1    3.58    0.32
   2  15   1    3.01    0.33
  -2  15  -1    3.46    0.30
   3 -15   1    2.67    0.22
   3 -15   1    2.52    0.27
   3 -15   1    2.93    0.27
  -3 -15  -1    2.61    0.30
   3  15   1    2.77    0.32
  -3  15  -1    2.77    0.32
   4 -15   1    6.80    0.45
  -4 -15  -1    5.20    0.42
   4 -15   1    6.99    0.35
  -4 -15  -1    7.37    0.49
  -4  15  -1    6.02    0.45
   4  15   1    6.31    0.50
   4  15   1    6.69    0.41
   5 -15   1    0.50    0.17
   5 -15   1    0.61    0.12
  -5 -15  -1    0.78    0.22
  -5 -15  -1    0.10    0.13
   5  15   1    0.45    0.21
  -5  15  -1    0.34    0.19
   5  15   1    0.60    0.17
  -5 -16   1    0.23    0.17
   5 -16  -1    0.38    0.12
   5 -16  -1    0.34    0.17
   5  16  -1    0.36    0.20
  -5  16   1    0.55    0.19
  -5  16   1    0.20    0.19
   4 -16  -1    0.17    0.14
  -4 -16   1    0.13    0.13
   4 -16  -1    0.00    0.08
  -4  16   1    0.21    0.17
  -4  16   1    0.18    0.15
   4  16  -1    0.24    0.16
   3 -16  -1    0.55    0.13
  -3 -16   1    0.39    0.16
   3 -16  -1    0.78    0.18
   3  16  -1    0.51    0.17
  -3  16   1    0.48    0.18
  -3  16   1    0.40    0.16
   3  16  -1    0.50    0.18
   2 -16  -1    1.09    0.19
  -2 -16   1    0.73    0.18
   2 -16  -1    1.06    0.17
   2 -16  -1    1.08    0.18
   2  16  -1    1.03    0.18
   2  16  -1    1.37    0.24
  -2  16   1    0.89    0.21
  -2  16   1    1.23    0.22
  -1 -16   1    1.96    0.25
  -1 -16   1    2.15    0.28
  -1 -16   1    2.31    0.21
   1 -16  -1    2.07    0.23
   1 -16  -1    2.51    0.23
   1 -16  -1    2.03    0.23
  -1  16   1    1.91    0.22
  -1  16   1    2.75    0.30
   1  16  -1    1.99    0.26
   1  16  -1    2.22    0.24
   0 -16   1    0.46    0.13
   0 -16   1    0.04    0.10
   0 -16  -1    0.38    0.14
   0 -16  -1    0.21    0.10
   0 -16   1    0.21    0.13
   0 -16  -1    0.36    0.12
   0  16   1    0.25    0.10
   0  16   1    0.40    0.17
   0  16  -1    0.26    0.14
   0  16  -1    0.43    0.15
   1 -16   1    5.32    0.35
   1 -16   1    5.26    0.32
  -1 -16  -1    4.62    0.35
  -1 -16  -1    5.00    0.30
   1 -16   1    5.06    0.36
  -1  16  -1    5.03    0.36
  -1  16  -1    5.05    0.38
   1  16   1    4.81    0.39
   2 -16   1    0.06    0.11
   2 -16   1   -0.07    0.07
  -2 -16  -1   -0.08    0.11
   2 -16   1   -0.02    0.10
   2  16   1   -0.16    0.11
  -2  16  -1    0.06    0.11
  -2  16  -1   -0.11    0.09
   3 -16   1    3.29    0.26
  -3 -16  -1    3.38    0.34
   3 -16   1    3.33    0.30
   3 -16   1    3.72    0.33
  -3  16  -1    3.93    0.34
   3  16   1    3.96    0.40
  -4 -16  -1    0.47    0.19
   4 -16   1    0.38    0.11
   4 -16   1    0.29    0.15
   4  16   1    0.21    0.17
  -4  16  -1    0.41    0.18
  -5 -16  -1    1.34    0.28
   5 -16   1    1.20    0.17
   5 -16   1    1.81    0.28
  -5  16  -1    1.03    0.25
   5  16   1    1.40    0.32
   5 -17  -1    1.49    0.21
  -5 -17   1    1.99    0.31
   5 -17  -1    1.37    0.25
  -5  17   1    0.95    0.26
   5  17  -1    1.89    0.33
  -5  17   1    1.55    0.28
   4 -17  -1    1.21    0.22
  -4 -17   1    0.75    0.21
   4 -17  -1    0.75    0.16
  -4  17   1    0.63    0.22
  -4  17   1    0.70    0.21
   4  17  -1    0.74    0.23
   3 -17  -1    2.35    0.27
  -3 -17   1    2.54    0.30
   3 -17  -1    2.73    0.25
   3  17  -1    2.71    0.32
  -3  17   1    2.09    0.29
  -3  17   1    1.99    0.30
  -2 -17   1    7.38    0.47
   2 -17  -1    6.78    0.43
   2 -17  -1    7.35    0.41
  -2  17   1    5.43    0.42
  -2  17   1    7.67    0.50
   2  17  -1    8.22    0.43
   2  17  -1    7.47    0.49
  -1 -17   1    3.60    0.26
  -1 -17   1    3.28    0.31
   1 -17  -1    3.30    0.28
   1 -17  -1    3.41    0.29
   1 -17  -1    2.59    0.26
  -1  17   1    3.22    0.29
  -1  17   1    3.03    0.33
   1  17  -1    3.43    0.32
   1  17  -1    3.39    0.30
   0 -17   1    1.36    0.20
   0 -17   1    1.38    0.19
   0 -17  -1    1.38    0.22
   0 -17  -1    1.48    0.20
   0 -17   1    1.28    0.22
   0  17   1    0.87    0.21
   0  17  -1    1.39    0.23
   0  17  -1    0.83    0.17
   0  17   1    0.97    0.17
   1 -17   1    1.72    0.21
  -1 -17  -1    1.80    0.25
   1 -17   1    1.83    0.23
   1 -17   1    1.96    0.25
  -1 -17  -1    1.94    0.21
  -1  17  -1    2.02    0.27
   1  17   1    1.58    0.26
  -1  17  -1    1.33    0.22
   2 -17   1    1.36    0.23
   2 -17   1    1.45    0.24
   2 -17   1    1.33    0.20
  -2 -17  -1    1.34    0.25
   2  17   1    1.98    0.30
  -2  17  -1    1.34    0.25
   3 -17   1    2.01    0.40
   3 -17   1    2.04    0.22
   3 -17   1    2.16    0.28
  -3 -17  -1    1.67    0.28
  -3  17  -1    1.57    0.26
   3  17   1    1.38    0.29
  -4 -17  -1    4.06    0.40
   4 -17   1    4.40    0.31
   4 -17   1    4.64    0.39
  -4  17  -1    3.72    0.39
   4  17   1    3.96    0.44
   4 -18  -1   25.80    1.00
   4 -18  -1   27.49    1.10
  -4 -18   1   26.60    1.13
   4  18  -1   25.83    1.18
  -4  18   1   24.96    1.11
  -4  18   1   25.15    1.13
   3 -18  -1    0.56    0.18
   3 -18  -1    0.47    0.14
  -3 -18   1    0.53    0.19
  -3  18   1    0.41    0.18
  -3  18   1    0.70    0.22
   3  18  -1    0.55    0.20
  -2 -18   1   29.11    1.17
   2 -18  -1   29.60    1.09
   2 -18  -1   28.92    1.12
   2  18  -1   29.17    1.20
   2  18  -1   29.33    1.10
  -2  18   1   25.19    1.12
  -2  18   1   27.59    1.18
  -1 -18   1    1.34    0.18
   1 -18  -1    1.45    0.22
   1 -18  -1    1.50    0.22
  -1 -18   1    1.45    0.25
   1 -18  -1    1.57    0.22
  -1  18   1    1.75    0.24
   1  18  -1    1.19    0.25
  -1  18   1    1.04    0.24
   1  18  -1    1.20    0.22
   0 -18  -1   13.07    0.60
   0 -18   1   14.20    0.63
   0 -18   1   14.21    0.62
   0 -18  -1   13.92    0.65
   0 -18   1   13.04    0.65
   0  18  -1   13.44    0.68
   0  18  -1   10.23    0.60
   0  18   1   13.69    0.72
   0  18   1   11.71    0.59
  -1 -18  -1    0.22    0.14
   1 -18   1    0.32    0.15
   1 -18   1    0.18    0.11
  -1 -18  -1    0.11    0.11
   1 -18   1    0.08    0.12
   1  18   1    0.06    0.15
  -1  18  -1    0.07    0.13
  -1  18  -1    0.15    0.14
  -2 -18  -1   21.48    0.93
   2 -18   1   20.73    0.89
   2 -18   1   22.51    0.86
   2 -18   1   20.63    0.90
  -2  18  -1   16.78    0.89
   2  18   1   20.88    0.99
  -3 -18  -1    1.08    0.23
   3 -18   1    1.26    0.24
   3 -18   1    1.06    0.18
   3  18   1    1.31    0.29
  -3  18  -1    1.01    0.23
  -4 -18  -1    7.96    0.56
   4 -18   1    8.04    0.45
   4 -18   1    8.39    0.55
  -4  18  -1    7.40    0.54
   4  18   1    9.58    0.65
  -4 -19   1    0.49    0.22
   4 -19  -1    0.13    0.12
   4 -19  -1    0.55    0.20
   4  19  -1    0.23    0.19
  -4  19   1    0.59    0.19
  -4  19   1    0.73    0.23
  -3 -19   1    8.22    0.54
   3 -19  -1    7.64    0.44
   3 -19  -1    7.77    0.49
   3  19  -1    7.10    0.54
  -3  19   1    6.86    0.53
  -3  19   1    7.56    0.52
  -2 -19   1    0.05    0.13
   2 -19  -1    0.37    0.17
   2 -19  -1    0.55    0.15
  -2  19   1    0.16    0.14
  -2  19   1    0.32    0.18
   2  19  -1    0.12    0.12
   2  19  -1    0.36    0.17
  -1 -19   1    4.19    0.37
   1 -19  -1    3.90    0.32
   1 -19  -1    4.01    0.33
   1 -19  -1    3.83    0.32
  -1  19   1    4.17    0.40
   1  19  -1    2.41    0.29
  -1  19   1    2.54    0.30
   1  19  -1    4.05    0.38
   0 -19   1    0.03    0.12
   0 -19  -1    0.23    0.12
   0 -19  -1    0.40    0.15
   0 -19   1    0.11    0.14
   0 -19   1    0.19    0.14
   0  19  -1    0.00    0.11
   0  19   1    0.10    0.15
   0  19  -1   -0.05    0.12
   0  19   1    0.21    0.12
   1 -19   1   10.53    0.53
   1 -19   1   10.87    0.56
   1 -19   1   10.12    0.58
  -1 -19  -1    9.35    0.57
  -1  19  -1    9.74    0.57
   1  19   1    9.16    0.61
   2 -19   1    7.31    0.48
   2 -19   1    7.08    0.43
  -2 -19  -1    7.53    0.51
   2 -19   1    7.11    0.47
  -2  19  -1    7.47    0.52
   2  19   1    7.14    0.55
   3 -19   1    5.37    0.43
  -3 -19  -1    5.69    0.46
   3 -19   1    5.68    0.38
   3  19   1    6.09    0.53
  -3  19  -1    5.74    0.46
   3 -20  -1    1.58    0.25
   3 -20  -1    1.88    0.27
  -3 -20   1    1.45    0.29
  -3  20   1    1.60    0.31
  -3  20   1    1.01    0.22
   3  20  -1    1.33    0.28
  -2 -20   1    0.04    0.15
   2 -20  -1    0.07    0.11
   2 -20  -1    0.02    0.13
  -2  20   1    0.06    0.17
   2  20  -1   -0.16    0.12
  -2  20   1    0.15    0.15
  -1 -20   1    4.93    0.41
   1 -20  -1    4.53    0.37
  -1  20   1    4.28    0.36
  -1  20   1    4.42    0.43
   1  20  -1    3.66    0.38
   0 -20  -1    4.15    0.37
   0 -20   1    4.21    0.34
   0 -20   1    3.92    0.37
   0 -20  -1    3.96    0.33
   0  20  -1    3.19    0.33
   0  20   1    3.74    0.41
   0  20  -1    3.47    0.37
  -1 -20  -1    0.07    0.14
   1 -20   1   -0.09    0.11
   1 -20   1    0.21    0.13
   1 -20   1    0.22    0.15
  -1  20  -1    0.08    0.14
   1  20   1   -0.06    0.14
   2 -20   1    0.15    0.13
  -2 -20  -1   -0.05    0.14
   2 -20   1   -0.05    0.10
   2  20   1   -0.15    0.14
  -2  20  -1   -0.02    0.13
   2 -21  -1    0.38    0.15
  -2 -21   1    0.24    0.17
   2 -21  -1    0.37    0.16
   2  21  -1    0.15    0.17
  -2  21   1    0.39    0.17
  -2  21   1    0.08    0.18
  -1 -21   1   -0.17    0.13
   1 -21  -1   -0.04    0.13
   1  21  -1   -0.02    0.12
   1  21  -1    0.05    0.14
  -1  21   1    0.14    0.14
  -1  21   1   -0.04    0.15
   0 -21  -1    2.84    0.34
   0 -21   1    3.02    0.31
   0 -21  -1    2.61    0.30
   0 -21   1    3.17    0.34
   0  21   1    2.94    0.39
   1 -21   1    0.54    0.19
   1 -21   1    0.25    0.14
   1 -21   1    0.45    0.17
  -1 -21  -1    0.40    0.18
   1  21   1    0.26    0.19
  -1  21  -1    0.02    0.13
   8   0  -2   24.76    0.86
  -8   0   2   22.83    1.08
   8   0  -2   23.80    1.13
   8   0  -2   24.19    1.12
  -7   0   2    0.01    0.15
   7   0  -2    0.01    0.06
   7   0  -2    0.04    0.13
   7   0  -2    0.08    0.10
  -6   0   2   40.75    1.48
   6   0  -2   39.18    1.28
   6   0  -2   39.40    1.39
   6   0  -2   39.13    1.49
   5   0  -2   -0.01    0.07
  -5   0   2    0.03    0.06
  -5   0   2    0.07    0.13
   5   0  -2    0.03    0.10
   5   0  -2    0.01    0.04
  -4   0   2   13.37    0.46
   4   0  -2   12.60    0.55
   4   0  -2   12.48    0.50
   4   0  -2   12.63    0.43
  -4   0   2   13.04    0.55
   4   0  -2   11.92    0.44
   4   0  -2   12.23    0.45
   3   0  -2   -0.03    0.03
   3   0  -2   -0.01    0.03
   3   0  -2    0.03    0.05
  -3   0   2   -0.03    0.03
   3   0  -2   -0.04    0.06
   3   0  -2    0.01    0.04
  -3   0   2   -0.03    0.08
  -2   0   2  402.36   11.29
   2   0  -2  346.89   11.02
   2   0  -2  371.63   11.25
   2   0  -2  354.69   11.17
   2   0  -2  357.33   11.08
  -2   0   2  355.03   10.95
  -2   0   2  366.91   10.99
  -1   0   2    0.01    0.04
  -1   0   2   -0.03    0.03
   1   0  -2   -0.01    0.03
  -1   0   2   -0.03    0.05
   1   0  -2    0.01    0.04
   1   0  -2   -0.02    0.03
  -1   0   2    0.00    0.03
   0   0   2  645.58   18.99
   0   0   2  621.31   19.11
   0   0  -2  652.00   18.92
   0   0  -2  597.25   19.01
   0   0   2  600.85   18.89
   0   0   2  632.37   19.01
   0   0  -2  652.83   18.95
   1   0   2   -0.01    0.03
   1   0   2    0.05    0.05
   1   0   2   -0.02    0.04
  -1   0  -2    0.01    0.05
   1   0   2    0.01    0.03
  -1   0  -2   -0.05    0.03
   1   0   2   -0.01    0.02
  -2   0  -2   38.37    1.15
   2   0   2   35.32    1.21
  -2   0  -2   37.45    1.17
   2   0   2   36.40    1.19
   2   0   2   35.68    1.13
   2   0   2   35.67    1.13
   2   0   2   36.17    1.24
  -3   0  -2   -0.08    0.04
   3   0   2    0.05    0.03
   3   0   2    0.00    0.06
  -3   0  -2    0.07    0.06
   3   0   2    0.03    0.03
   3   0   2   -0.01    0.07
   3   0   2    0.09    0.09
  -4   0  -2    3.79    0.23
   4   0   2    3.93    0.17
  -4   0  -2    3.82    0.28
   4   0   2    3.79    0.27
   4   0   2    3.49    0.29
   4   0   2    3.76    0.19
  -5   0  -2   -0.22    0.09
   5   0   2    0.17    0.11
   5   0   2    0.08    0.13
  -5   0  -2    0.01    0.07
   5   0   2   -0.01    0.04
   6   0   2    0.64    0.18
   6   0   2    0.52    0.08
   6   0   2    0.92    0.22
  -6   0  -2    0.27    0.16
  -7   0  -2    0.12    0.14
   7   0   2   -0.08    0.05
   7   0   2    0.04    0.15
   8  -1  -2    3.47    0.41
   8  -1  -2    3.71    0.23
  -8  -1   2    3.98    0.43
   8  -1  -2    3.46    0.33
   8   1  -2    3.41    0.24
   8   1  -2    4.00    0.43
  -8   1   2    4.31    0.43
  -7  -1   2    5.09    0.44
   7  -1  -2    6.01    0.46
   7  -1  -2    5.74    0.38
   7  -1  -2    5.12    0.27
  -7   1   2    5.56    0.44
   7   1  -2    5.78    0.37
   7   1  -2    5.77    0.29
   7   1  -2    5.40    0.45
   6  -1  -2   12.29    0.56
  -6  -1   2   12.18    0.52
   6  -1  -2   12.25    0.46
   6  -1  -2   12.13    0.63
  -6  -1   2   12.91    0.65
   6   1  -2   11.56    0.63
   6   1  -2   11.72    0.47
  -6   1   2   13.10    0.63
   6   1  -2   12.62    0.56
   5  -1  -2   16.86    0.59
   5  -1  -2   16.11    0.73
   5  -1  -2   16.61    0.59
   5  -1  -2   17.45    0.68
  -5  -1   2   17.72    0.74
  -5  -1   2   17.49    0.64
  -5   1   2   16.96    0.72
  -5   1   2   17.69    0.62
   5   1  -2   16.32    0.60
   5   1  -2   17.28    0.74
   5   1  -2   16.96    0.67
  -4  -1   2    0.07    0.06
   4  -1  -2    0.03    0.04
   4  -1  -2    0.09    0.07
   4  -1  -2    0.07    0.04
   4  -1  -2    0.03    0.08
  -4  -1   2    0.10    0.10
   4  -1  -2    0.04    0.03
  -4   1   2    0.11    0.10
  -4   1   2    0.07    0.05
   4   1  -2   -0.05    0.07
   4   1  -2    0.03    0.04
   4   1  -2    0.02    0.03
   4   1  -2    0.03    0.03
   4   1  -2    0.04    0.06
   3  -1  -2   15.94    0.61
  -3  -1   2   17.11    0.62
   3  -1  -2   15.89    0.58
   3  -1  -2   14.79    0.52
   3  -1  -2   15.19    0.53
   3  -1  -2   15.33    0.53
   3   1  -2   15.61    0.53
   3   1  -2   15.00    0.53
   3   1  -2   15.36    0.60
   3   1  -2   15.62    0.50
  -3   1   2   17.88    0.62
   3   1  -2   15.62    0.57
  -2  -1   2  148.48    4.44
   2  -1  -2  142.96    4.39
   2  -1  -2  145.95    4.41
  -2  -1   2  145.12    4.38
   2  -1  -2  145.89    4.43
   2  -1  -2  143.15    4.38
  -2  -1   2  143.39    4.38
  -2   1   2  148.25    4.38
  -2   1   2  153.27    4.44
   2   1  -2  146.37    4.43
   2   1  -2  141.64    4.41
   2   1  -2  141.52    4.36
   2   1  -2  146.25    4.39
  -2   1   2  146.74    4.36
  -1  -1   2    0.08    0.05
  -1  -1   2    0.07    0.04
   1  -1  -2    0.13    0.04
  -1  -1   2    0.12    0.04
   1  -1  -2    0.09    0.04
   1  -1  -2    0.02    0.04
  -1   1   2    0.07    0.05
  -1   1   2    0.21    0.07
  -1   1   2    0.13    0.03
   1   1  -2    0.09    0.05
   1   1  -2    0.14    0.04
  -1   1   2    0.13    0.04
   1   1  -2    0.14    0.04
   1   1  -2    0.10    0.04
   0  -1  -2  953.21   27.76
   0  -1   2  936.61   27.97
   0  -1   2  922.55   27.87
   0  -1   2  901.42   27.73
   0  -1  -2  829.11   29.01
   0  -1  -2  948.48   27.81
   0  -1   2  879.69   28.09
   0   1   2  941.80   27.76
   0   1   2 1000.00   28.08
   0   1  -2  937.42   27.86
   0   1   2  904.42   27.81
   0   1   2  885.92   27.78
   0   1  -2  989.46   27.72
   0   1  -2  893.78   27.74
   1  -1   2    0.00    0.03
  -1  -1  -2   -0.01    0.02
   1  -1   2    0.08    0.06
   1  -1   2    0.02    0.05
   1  -1   2    0.02    0.02
   1  -1   2    0.01    0.03
  -1  -1  -2   -0.01    0.05
   1   1   2    0.02    0.03
  -1   1  -2    0.01    0.05
   1   1   2    0.06    0.06
   1   1   2    0.01    0.03
  -1   1  -2   -0.02    0.04
   1   1   2    0.09    0.05
   1   1   2    0.08    0.04
   2  -1   2   41.13    1.44
   2  -1   2   43.17    1.39
   2  -1   2   42.83    1.43
   2  -1   2   42.89    1.34
   2  -1   2   42.61    1.34
  -2  -1  -2   45.51    1.39
  -2  -1  -2   47.15    1.35
   2   1   2   42.59    1.45
  -2   1  -2   45.83    1.38
  -2   1  -2   45.99    1.40
   2   1   2   43.04    1.41
   2   1   2   42.93    1.43
   2   1   2   42.88    1.35
   2   1   2   42.52    1.35
   3  -1   2    5.34    0.30
   3  -1   2    4.79    0.31
  -3  -1  -2    5.35    0.31
   3  -1   2    5.04    0.28
   3  -1   2    5.18    0.20
   3  -1   2    5.22    0.20
  -3  -1  -2    5.49    0.26
   3   1   2    5.39    0.29
   3   1   2    4.94    0.32
   3   1   2    5.54    0.22
  -3   1  -2    5.99    0.27
   4  -1   2    0.05    0.10
   4  -1   2    0.10    0.09
   4  -1   2   -0.01    0.03
   4  -1   2    0.04    0.03
   4  -1   2    0.04    0.08
  -4  -1  -2    0.06    0.10
  -4  -1  -2   -0.07    0.06
   4   1   2    0.46    0.15
  -4   1  -2   -0.05    0.06
   4   1   2    0.11    0.09
  -4   1  -2    0.08    0.07
   4   1   2    0.04    0.04
   5  -1   2    1.63    0.25
   5  -1   2    1.92    0.11
  -5  -1  -2    1.74    0.20
   5  -1   2    2.08    0.23
  -5  -1  -2    1.86    0.23
  -5   1  -2    1.78    0.18
   5   1   2    1.99    0.27
   5   1   2    1.84    0.23
   5   1   2    2.08    0.14
  -5   1  -2    1.94    0.24
  -6  -1  -2   15.09    0.74
   6  -1   2   15.67    0.80
   6  -1   2   15.41    0.53
   6  -1   2   16.07    0.76
   6   1   2   15.42    0.56
   6   1   2   16.09    0.77
   6   1   2   14.95    0.80
  -6   1  -2   14.80    0.72
   7  -1   2    0.46    0.21
  -7  -1  -2    0.22    0.17
   7  -1   2    0.11    0.06
   7   1   2    0.19    0.18
  -7   1  -2    0.25    0.18
   7   1   2    0.22    0.08
   8  -2  -2    0.12    0.15
   8  -2  -2    0.11    0.13
  -8  -2   2    0.12    0.18
   8  -2  -2    0.15    0.08
   8   2  -2    0.17    0.09
   8   2  -2    0.09    0.18
  -8   2   2   -0.08    0.16
   7  -2  -2   -0.02    0.05
   7  -2  -2   -0.02    0.10
  -7  -2   2   -0.10    0.16
   7  -2  -2    0.09    0.13
  -7   2   2   -0.21    0.13
   7   2  -2   -0.02    0.05
   7   2  -2    0.06    0.10
   7   2  -2    0.12    0.14
   6  -2  -2    1.57    0.24
  -6  -2   2    2.23    0.29
   6  -2  -2    1.84    0.14
   6  -2  -2    1.62    0.20
  -6  -2   2    1.70    0.19
   6   2  -2    1.96    0.21
   6   2  -2    2.18    0.26
  -6   2   2    1.80    0.26
   6   2  -2    2.01    0.16
  -5  -2   2    5.71    0.37
   5  -2  -2    5.90    0.25
   5  -2  -2    5.29    0.32
   5  -2  -2    5.51    0.36
   5  -2  -2    5.73    0.26
  -5  -2   2    5.55    0.30
   5   2  -2    5.93    0.37
  -5   2   2    5.94    0.27
   5   2  -2    5.24    0.31
  -5   2   2    6.03    0.37
   5   2  -2    5.57    0.26
   4  -2  -2    5.12    0.23
   4  -2  -2    4.91    0.31
   4  -2  -2    4.92    0.27
   4  -2  -2    5.20    0.22
   4  -2  -2    4.97    0.21
  -4  -2   2    5.12    0.25
  -4  -2   2    5.18    0.32
   4   2  -2    5.08    0.23
   4   2  -2    5.07    0.31
   4   2  -2    4.96    0.27
   4   2  -2    5.02    0.17
   4   2  -2    4.84    0.23
  -4   2   2    5.54    0.31
  -3  -2   2   11.81    0.43
  -3  -2   2   12.58    0.50
   3  -2  -2   11.46    0.42
   3  -2  -2   11.74    0.41
   3  -2  -2   11.88    0.49
   3  -2  -2   11.95    0.41
   3  -2  -2   11.52    0.46
  -3   2   2   12.11    0.48
   3   2  -2   11.39    0.37
   3   2  -2   11.77    0.45
   3   2  -2   11.48    0.48
   3   2  -2   11.64    0.42
  -2  -2   2   18.61    0.62
   2  -2  -2   18.87    0.62
  -2  -2   2   18.29    0.61
  -2  -2   2   19.22    0.67
   2  -2  -2   18.83    0.61
   2  -2  -2   18.85    0.64
   2   2  -2   18.88    0.64
   2   2  -2   17.98    0.59
   2   2  -2   18.75    0.62
  -2   2   2   19.60    0.65
   2   2  -2   18.04    0.64
  -1  -2   2   33.77    1.06
   1  -2  -2   33.14    1.03
   1  -2  -2   31.65    1.03
  -1  -2   2   33.27    1.03
   1  -2  -2   32.27    1.03
  -1  -2   2   32.96    1.04
  -1   2   2   32.77    1.03
  -1   2   2   32.90    1.01
   1   2  -2   32.05    1.02
  -1   2   2   32.63    1.06
   1   2  -2   32.63    1.02
   1   2  -2   33.40    1.04
  -1   2   2   32.15    1.05
   0  -2   2    3.07    0.15
   0  -2  -2    2.96    0.12
   0  -2  -2    3.02    0.14
   0  -2   2    3.16    0.14
   0  -2   2    3.22    0.16
   0  -2  -2    3.40    0.16
   0  -2   2    3.24    0.17
   0   2   2    2.89    0.17
   0   2   2    2.98    0.16
   0   2   2    3.03    0.14
   0   2   2    3.11    0.16
   0   2  -2    3.18    0.16
   0   2  -2    3.09    0.16
   0   2  -2    3.22    0.13
   1  -2   2   32.12    1.07
  -1  -2  -2   34.50    1.04
   1  -2   2   32.51    1.01
  -1  -2  -2   32.03    1.07
   1  -2   2   31.83    1.01
   1  -2   2   32.51    1.07
   1  -2   2   31.42    1.00
   1   2   2   32.55    1.09
   1   2   2   32.51    1.02
   1   2   2   31.75    1.06
   1   2   2   31.73    1.02
  -1   2  -2   32.32    1.05
   1   2   2   32.92    1.06
  -1   2  -2   34.63    1.05
  -2  -2  -2    0.30    0.08
   2  -2   2    0.25    0.08
  -2  -2  -2    0.36    0.05
   2  -2   2    0.19    0.07
   2  -2   2    0.20    0.04
   2  -2   2    0.31    0.06
   2  -2   2    0.23    0.04
  -2  -2  -2    0.34    0.07
   2   2   2    0.21    0.05
   2   2   2    0.19    0.08
  -2   2  -2    0.18    0.06
   2   2   2    0.26    0.05
  -2   2  -2    0.20    0.06
   2   2   2    0.25    0.07
   3  -2   2   14.82    0.59
   3  -2   2   15.18    0.49
   3  -2   2   15.25    0.49
  -3  -2  -2   16.12    0.56
  -3  -2  -2   15.67    0.63
   3  -2   2   14.98    0.63
   3  -2   2   14.64    0.61
   3   2   2   14.97    0.53
  -3   2  -2   16.14    0.57
   3   2   2   15.57    0.62
   3   2   2   15.03    0.52
  -3   2  -2   15.71    0.58
   3   2   2   15.83    0.66
  -4  -2  -2    0.01    0.10
   4  -2   2   -0.10    0.07
   4  -2   2    0.01    0.08
   4  -2   2   -0.07    0.07
  -4  -2  -2    0.02    0.06
   4  -2   2    0.03    0.03
   4  -2   2    0.03    0.03
  -4   2  -2    0.39    0.10
   4   2   2   -0.01    0.04
  -4   2  -2    0.16    0.08
   4   2   2   -0.08    0.07
   4   2   2   -0.05    0.07
   5  -2   2   10.12    0.56
  -5  -2  -2   11.07    0.55
   5  -2   2    9.64    0.35
   5  -2   2   10.05    0.52
   5   2   2   10.08    0.39
   5   2   2    9.81    0.58
  -5   2  -2    9.80    0.52
   5   2   2   10.40    0.55
  -5   2  -2    9.98    0.45
  -6  -2  -2    0.32    0.17
   6  -2   2    0.41    0.18
   6  -2   2    0.44    0.07
   6  -2   2    0.22    0.23
   6   2   2    0.16    0.17
   6   2   2    0.46    0.17
   6   2   2    0.78    0.12
  -6   2  -2    0.42    0.16
   7  -2   2    1.83    0.13
   7  -2   2    1.88    0.33
  -7  -2  -2    2.20    0.33
  -7   2  -2    1.94    0.33
   7   2   2    1.51    0.16
   7   2   2    1.68    0.33
   7   2   2    1.51    0.28
  -7   2  -2    1.87    0.30
  -8  -3   2    0.52    0.23
   8  -3  -2    0.66    0.11
   8  -3  -2    0.49    0.16
   8  -3  -2    0.75    0.23
   8   3  -2    1.01    0.16
  -8   3   2    0.73    0.23
  -8   3   2    0.95    0.26
   8   3  -2    0.96    0.26
   7  -3  -2    0.38    0.16
   7  -3  -2    0.34    0.14
  -7  -3   2    0.71    0.23
   7  -3  -2    0.49    0.09
  -7   3   2    0.64    0.21
   7   3  -2    0.41    0.13
   7   3  -2    0.52    0.18
   7   3  -2    0.38    0.10
  -6  -3   2    3.53    0.35
   6  -3  -2    3.60    0.29
   6  -3  -2    3.74    0.19
  -6  -3   2    4.20    0.27
   6  -3  -2    3.60    0.33
  -6   3   2    3.54    0.33
   6   3  -2    3.29    0.22
   6   3  -2    4.01    0.35
   6   3  -2    3.16    0.26
   5  -3  -2    0.32    0.12
   5  -3  -2    0.55    0.12
  -5  -3   2    0.52    0.12
   5  -3  -2    0.47    0.08
  -5  -3   2    0.39    0.15
   5  -3  -2    0.43    0.09
   5   3  -2    0.55    0.15
   5   3  -2    0.47    0.09
   5   3  -2    0.47    0.11
  -5   3   2    0.56    0.15
  -4  -3   2    7.62    0.35
  -4  -3   2    8.00    0.42
   4  -3  -2    7.97    0.37
   4  -3  -2    7.73    0.32
   4  -3  -2    7.72    0.40
   4  -3  -2    7.27    0.30
   4  -3  -2    7.98    0.30
   4   3  -2    7.91    0.36
  -4   3   2    8.28    0.39
   4   3  -2    7.19    0.32
  -4   3   2    8.01    0.29
   4   3  -2    7.91    0.40
   3  -3  -2    6.98    0.29
   3  -3  -2    6.75    0.27
   3  -3  -2    6.96    0.27
  -3  -3   2    7.72    0.36
  -3  -3   2    7.28    0.31
   3  -3  -2    6.70    0.31
  -3   3   2    6.45    0.35
   3   3  -2    7.35    0.34
  -3   3   2    7.23    0.33
   3   3  -2    7.13    0.31
   3   3  -2    7.23    0.29
  -2  -3   2    5.01    0.25
   2  -3  -2    4.79    0.20
  -2  -3   2    4.69    0.21
   2  -3  -2    4.93    0.23
  -2  -3   2    5.01    0.22
   2  -3  -2    4.92    0.21
   2   3  -2    4.71    0.17
   2   3  -2    4.59    0.23
   2   3  -2    4.66    0.22
  -2   3   2    5.17    0.24
   2   3  -2    4.92    0.21
  -2   3   2    5.16    0.26
   1  -3  -2   37.95    1.20
  -1  -3   2   39.28    1.21
  -1  -3   2   38.49    1.23
   1  -3  -2   39.63    1.20
  -1  -3   2   39.38    1.22
   1  -3  -2   36.49    1.18
   1  -3  -2   38.39    1.21
  -1   3   2   38.91    1.22
   1   3  -2   38.04    1.19
  -1   3   2   38.34    1.24
   1   3  -2   38.99    1.20
  -1   3   2   39.38    1.20
   1   3  -2   37.97    1.22
   1   3  -2   36.72    1.19
   0  -3  -2   15.42    0.50
   0  -3  -2   16.32    0.54
   0  -3  -2   15.75    0.53
   0  -3   2   15.88    0.54
   0  -3   2   15.72    0.54
   0  -3   2   16.07    0.52
   0  -3   2   16.61    0.56
   0  -3  -2   16.63    0.54
   0   3  -2   13.91    0.53
   0   3   2   15.68    0.53
   0   3   2   15.35    0.55
   0   3  -2   16.19    0.55
   0   3   2   15.42    0.56
  -1  -3  -2    1.76    0.14
   1  -3   2    1.70    0.14
   1  -3   2    1.57    0.09
   1  -3   2    1.79    0.10
   1  -3   2    1.59    0.13
   1  -3   2    2.03    0.13
  -1  -3  -2    1.93    0.13
  -1   3  -2    1.90    0.13
   1   3   2    1.75    0.14
   1   3   2    1.77    0.11
   1   3   2    1.87    0.16
  -2  -3  -2   40.39    1.20
   2  -3   2   35.72    1.21
   2  -3   2   38.05    1.24
   2  -3   2   35.24    1.23
   2  -3   2   35.84    1.14
   2  -3   2   36.32    1.13
  -2  -3  -2   35.73    1.24
   2  -3   2   36.69    1.19
   2   3   2   36.85    1.27
   2   3   2   36.40    1.24
  -2   3  -2   38.52    1.21
   2   3   2   37.48    1.17
   2   3   2   36.89    1.18
  -2   3  -2   38.16    1.21
   3  -3   2    2.21    0.10
   3  -3   2    2.30    0.20
   3  -3   2    2.04    0.17
  -3  -3  -2    1.98    0.19
  -3  -3  -2    2.29    0.15
   3  -3   2    2.18    0.19
   3  -3   2    2.10    0.10
   3   3   2    2.13    0.19
   3   3   2    1.97    0.13
  -3   3  -2    2.39    0.18
  -3   3  -2    2.06    0.17
   3   3   2    2.11    0.21
   4  -3   2   21.84    0.69
   4  -3   2   22.06    0.69
   4  -3   2   22.32    0.89
  -4  -3  -2   22.77    0.77
   4  -3   2   21.38    0.85
  -4  -3  -2   23.09    0.88
   4  -3   2   21.81    0.84
  -4   3  -2   21.43    0.80
   4   3   2   22.04    0.92
   4   3   2   22.52    0.89
  -4   3  -2   23.16    0.82
   4   3   2   21.27    0.75
  -5  -3  -2    0.84    0.18
   5  -3   2    0.99    0.20
   5  -3   2    0.64    0.15
   5  -3   2    0.75    0.07
   5  -3   2    1.03    0.19
  -5   3  -2    1.08    0.17
   5   3   2    0.76    0.19
  -5   3  -2    1.13    0.20
   5   3   2    0.67    0.10
   5   3   2    1.08    0.21
   6  -3   2    7.60    0.51
  -6  -3  -2    7.99    0.51
   6  -3   2    7.59    0.27
   6   3   2    8.02    0.56
   6   3   2    7.49    0.35
   6   3   2    7.30    0.49
  -6   3  -2    6.88    0.46
  -7  -3  -2    0.21    0.17
   7   3   2    0.14    0.08
   7   3   2    0.18    0.17
  -7   3  -2    0.15    0.16
  -7   3  -2    0.20    0.20
   7   3   2   -0.04    0.16
   8  -4  -2    6.23    0.29
   8  -4  -2    6.02    0.44
  -8  -4   2    5.47    0.50
  -8   4   2    6.30    0.48
  -8   4   2    5.68    0.51
   8   4  -2    7.41    0.56
   8   4  -2    6.12    0.35
   7  -4  -2    0.92    0.11
  -7  -4   2    0.96    0.26
   7  -4  -2    0.75    0.18
  -7   4   2    0.58    0.21
   7   4  -2    1.34    0.27
   7   4  -2    0.98    0.18
   7   4  -2    0.62    0.12
  -7   4   2    0.70    0.20
   6  -4  -2   12.48    0.47
  -6  -4   2   12.87    0.66
   6  -4  -2   12.67    0.60
  -6  -4   2   13.17    0.57
   6  -4  -2   12.66    0.66
  -6   4   2   12.56    0.65
   6   4  -2   12.84    0.57
  -6   4   2   13.97    0.63
   6   4  -2   13.22    0.67
   6   4  -2   12.54    0.52
  -5  -4   2    5.36    0.30
  -5  -4   2    5.23    0.37
   5  -4  -2    4.90    0.31
   5  -4  -2    5.08    0.27
   5  -4  -2    4.87    0.22
   5  -4  -2    4.60    0.34
   5   4  -2    5.35    0.36
   5   4  -2    5.25    0.26
  -5   4   2    5.18    0.34
   5   4  -2    4.86    0.29
  -5   4   2    5.05    0.36
   4  -4  -2    3.82    0.18
   4  -4  -2    3.68    0.24
   4  -4  -2    3.84    0.21
  -4  -4   2    4.06    0.28
   4  -4  -2    4.02    0.18
  -4  -4   2    4.00    0.24
   4   4  -2    4.12    0.27
  -4   4   2    4.06    0.29
   4   4  -2    3.74    0.23
  -4   4   2    3.97    0.26
  -4   4   2    4.05    0.17
   4   4  -2    4.08    0.21
  -3  -4   2   15.99    0.57
   3  -4  -2   15.13    0.52
   3  -4  -2   14.94    0.58
   3  -4  -2   14.82    0.55
  -3  -4   2   15.59    0.61
  -3  -4   2   15.46    0.53
   3  -4  -2   15.23    0.52
  -3   4   2   16.01    0.58
   3   4  -2   15.44    0.57
  -3   4   2   15.55    0.62
   3   4  -2   15.62    0.60
   3   4  -2   15.44    0.55
  -3   4   2   15.01    0.48
  -2  -4   2    4.60    0.24
   2  -4  -2    4.48    0.19
  -2  -4   2    4.34    0.20
   2  -4  -2    4.44    0.21
  -2  -4   2    4.09    0.22
   2  -4  -2    4.32    0.22
   2   4  -2    4.55    0.17
  -2   4   2    4.96    0.26
  -2   4   2    4.49    0.22
   2   4  -2    4.39    0.20
   2   4  -2    4.32    0.22
   2   4  -2    4.38    0.22
   1  -4  -2   14.43    0.48
   1  -4  -2   13.18    0.48
  -1  -4   2   13.46    0.50
  -1  -4   2   13.71    0.47
   1  -4  -2   14.00    0.46
  -1  -4   2   13.89    0.48
  -1  -4   2   14.33    0.50
   1  -4  -2   13.82    0.48
   1   4  -2   13.94    0.48
   1   4  -2   13.78    0.50
  -1   4   2   14.91    0.53
   1   4  -2   13.78    0.47
  -1   4   2   13.80    0.49
   1   4  -2   14.06    0.47
  -1   4   2   14.23    0.48
   0  -4  -2    4.82    0.22
   0  -4   2    4.51    0.23
   0  -4   2    4.57    0.21
   0  -4  -2    4.50    0.17
   0  -4   2    4.52    0.19
   0  -4  -2    4.75    0.21
   0  -4   2    4.62    0.21
   0  -4  -2    4.61    0.20
   0   4   2    4.45    0.23
   0   4   2    4.67    0.20
   0   4  -2    5.02    0.23
   0   4  -2    4.58    0.17
   0   4   2    4.95    0.23
   1  -4   2    5.29    0.21
   1  -4   2    5.61    0.26
  -1  -4  -2    5.72    0.27
   1  -4   2    5.24    0.20
  -1  -4  -2    5.26    0.23
   1  -4   2    5.28    0.25
  -1  -4  -2    5.11    0.22
   1  -4   2    4.94    0.24
   1   4   2    5.22    0.26
   1   4   2    4.78    0.22
  -1   4  -2    5.21    0.25
   1   4   2    5.25    0.27
   2  -4   2    4.53    0.18
   2  -4   2    4.64    0.24
  -2  -4  -2    4.58    0.26
   2  -4   2    4.74    0.26
  -2  -4  -2    5.15    0.23
   2  -4   2    4.70    0.18
   2  -4   2    4.54    0.25
   2   4   2    4.67    0.28
   2   4   2    4.58    0.22
  -2   4  -2    4.84    0.25
   2   4   2    4.46    0.26
   2   4   2    4.56    0.21
   3  -4   2    3.34    0.24
   3  -4   2    3.30    0.23
  -3  -4  -2    3.14    0.24
   3  -4   2    3.23    0.13
   3  -4   2    3.41    0.21
   3  -4   2    3.34    0.22
  -3  -4  -2    3.48    0.19
   3  -4   2    3.46    0.13
   3   4   2    3.34    0.18
   3   4   2    3.10    0.27
  -3   4  -2    3.69    0.23
   3   4   2    3.35    0.25
   4  -4   2    7.61    0.39
   4  -4   2    7.86    0.42
  -4  -4  -2    7.35    0.33
   4  -4   2    7.39    0.25
   4  -4   2    7.68    0.41
  -4  -4  -2    7.88    0.43
   4  -4   2    7.28    0.25
  -4   4  -2    7.88    0.38
  -4   4  -2    7.33    0.37
   4   4   2    7.15    0.42
   4   4   2    7.38    0.32
   4   4   2    7.28    0.46
   5  -4   2    3.42    0.28
   5  -4   2    3.39    0.30
   5  -4   2    3.03    0.13
   5  -4   2    3.02    0.28
  -5  -4  -2    2.97    0.30
   5   4   2    3.39    0.31
   5   4   2    2.93    0.20
  -5   4  -2    3.09    0.25
   5   4   2    2.48    0.32
  -5   4  -2    3.11    0.24
  -6  -4  -2   -0.01    0.14
   6  -4   2    0.53    0.17
   6   4   2    0.26    0.14
   6   4   2    0.28    0.09
  -6   4  -2    0.27    0.15
   6   4   2    0.31    0.19
  -7  -4  -2    1.82    0.29
   7   4   2    1.55    0.19
   7   4   2    2.51    0.38
   7   4   2    2.04    0.32
   8  -5  -2    0.61    0.19
   8  -5  -2    0.37    0.08
  -8  -5   2    0.56    0.25
   8   5  -2    0.31    0.11
   8   5  -2    0.53    0.22
  -8   5   2    0.24    0.19
  -7  -5   2    1.19    0.26
   7  -5  -2    1.32    0.12
  -7  -5   2    1.23    0.25
   7  -5  -2    0.98    0.21
  -7   5   2    0.77    0.22
   7   5  -2    0.76    0.14
  -7   5   2    1.11    0.23
   7   5  -2    0.92    0.23
   6  -5  -2    1.11    0.11
  -6  -5   2    1.04    0.19
   6  -5  -2    1.25    0.20
   6  -5  -2    0.93    0.15
  -6  -5   2    1.02    0.22
   6   5  -2    1.27    0.22
  -6   5   2    1.17    0.24
   6   5  -2    1.05    0.16
   6   5  -2    1.17    0.15
  -6   5   2    0.96    0.19
  -5  -5   2   -0.08    0.11
   5  -5  -2    0.06    0.04
   5  -5  -2    0.01    0.08
   5  -5  -2    0.01    0.07
  -5  -5   2    0.02    0.08
   5   5  -2    0.02    0.09
   5   5  -2    0.09    0.06
  -5   5   2    0.03    0.10
   5   5  -2    0.10    0.08
  -5   5   2    0.03    0.12
  -4  -5   2   29.39    1.08
   4  -5  -2   29.09    0.93
  -4  -5   2   28.99    1.01
   4  -5  -2   28.59    0.98
   4  -5  -2   28.02    1.02
   4  -5  -2   27.46    0.93
  -4   5   2   29.55    1.07
  -4   5   2   30.36    1.02
   4   5  -2   28.45    0.97
   4   5  -2   27.60    1.06
  -4   5   2   29.96    0.91
   4   5  -2   28.81    1.00
   3  -5  -2   37.96    1.19
  -3  -5   2   39.66    1.29
   3  -5  -2   39.45    1.27
   3  -5  -2   38.74    1.30
   3  -5  -2   38.45    1.23
  -3  -5   2   39.87    1.25
   3  -5  -2   38.49    1.23
   3   5  -2   38.50    1.26
   3   5  -2   41.22    1.33
  -3   5   2   39.66    1.28
  -3   5   2   38.21    1.33
   3   5  -2   38.64    1.28
  -2  -5   2   38.38    1.28
   2  -5  -2   39.01    1.19
   2  -5  -2   38.42    1.27
  -2  -5   2   38.52    1.24
   2  -5  -2   39.86    1.24
  -2  -5   2   40.23    1.28
   2  -5  -2   39.03    1.26
  -2   5   2   40.66    1.32
  -2   5   2   39.71    1.25
   2   5  -2   37.10    1.26
   2   5  -2   39.33    1.28
   2   5  -2   38.72    1.25
   2   5  -2   38.77    1.20
  -1  -5   2  153.53    4.69
   1  -5  -2  155.29    4.68
   1  -5  -2  153.77    4.65
   1  -5  -2  158.31    4.67
  -1  -5   2  156.38    4.66
   1  -5  -2  154.24    4.67
  -1  -5   2  149.93    4.67
  -1  -5   2  157.98    4.70
   1   5  -2  154.00    4.67
  -1   5   2  158.25    4.66
   1   5  -2  155.68    4.70
  -1   5   2  149.58    4.67
  -1   5   2  152.24    4.72
   1   5  -2  154.52    4.67
   0  -5   2    2.90    0.15
   0  -5   2    3.11    0.17
   0  -5   2    3.09    0.16
   0  -5  -2    2.85    0.16
   0  -5   2    2.76    0.17
   0  -5  -2    2.89    0.13
   0  -5  -2    2.79    0.16
   0  -5  -2    3.34    0.18
   0   5   2    3.03    0.19
   0   5   2    3.09    0.16
   0   5  -2    2.68    0.13
   0   5  -2    3.13    0.18
   0   5   2    2.92    0.18
   1  -5   2    5.96    0.29
   1  -5   2    5.86    0.24
  -1  -5  -2    6.10    0.29
  -1  -5  -2    6.09    0.26
   1  -5   2    5.56    0.27
   1  -5   2    5.87    0.26
  -1  -5  -2    5.97    0.25
   1  -5   2    6.05    0.23
   1   5   2    6.04    0.30
  -1   5  -2    6.22    0.29
   1   5   2    6.08    0.30
   1   5   2    5.85    0.25
   2  -5   2   63.02    1.95
   2  -5   2   61.42    2.03
   2  -5   2   64.03    1.95
  -2  -5  -2   66.49    1.99
   2  -5   2   62.52    2.02
   2  -5   2   62.41    2.04
  -2  -5  -2   62.15    2.06
  -2   5  -2   68.17    2.00
   2   5   2   64.77    2.07
   2   5   2   63.77    2.09
   2   5   2   61.70    1.99
  -2   5  -2   66.11    2.04
   3  -5   2    2.31    0.11
   3  -5   2    2.14    0.19
   3  -5   2    2.29    0.11
  -3  -5  -2    2.50    0.16
  -3  -5  -2    2.34    0.22
   3  -5   2    2.55    0.20
   3  -5   2    2.55    0.21
   3   5   2    2.63    0.23
   3   5   2    2.35    0.16
  -3   5  -2    2.51    0.19
  -3   5  -2    2.34    0.20
   3   5   2    2.32    0.24
  -4  -5  -2   21.88    0.87
   4  -5   2   20.81    0.81
   4  -5   2   20.74    0.66
   4  -5   2   21.10    0.84
   4  -5   2   20.53    0.83
   4  -5   2   20.71    0.66
  -4  -5  -2   21.61    0.74
   4   5   2   20.34    0.74
   4   5   2   20.85    0.90
   4   5   2   21.08    0.87
  -4   5  -2   20.63    0.79
  -4   5  -2   23.15    0.82
  -4   5  -2   21.55    0.81
  -5  -5  -2    9.67    0.54
   5  -5   2    9.42    0.51
   5  -5   2    9.29    0.52
  -5   5  -2    9.09    0.47
   5   5   2    9.71    0.55
  -5   5  -2    9.87    0.46
   5   5   2    9.39    0.58
   5   5   2    9.11    0.41
  -6  -5  -2    2.29    0.31
   6  -5   2    2.10    0.29
  -6   5  -2    1.87    0.27
   6   5   2    2.19    0.20
   6   5   2    2.06    0.33
  -6   5  -2    2.36    0.24
   6   5   2    2.31    0.31
  -7  -5  -2    0.32    0.18
   7   5   2    0.67    0.23
   7   5   2    0.42    0.23
   7   5   2    0.37    0.12
   8  -6  -2    0.29    0.08
  -8  -6   2    0.45    0.22
   8  -6  -2    0.36    0.17
   8   6  -2    0.43    0.22
  -8   6   2    0.29    0.19
   8   6  -2    0.36    0.13
   7  -6  -2    4.64    0.24
  -7  -6   2    4.35    0.35
  -7  -6   2    5.43    0.46
   7  -6  -2    4.74    0.38
   7   6  -2    5.21    0.44
  -7   6   2    4.67    0.42
   7   6  -2    5.34    0.32
  -7   6   2    5.30    0.47
   6  -6  -2   12.18    0.53
   6  -6  -2   12.51    0.60
  -6  -6   2   11.48    0.64
   6  -6  -2   11.84    0.45
   6   6  -2   12.10    0.65
  -6   6   2   12.37    0.64
   6   6  -2   12.07    0.54
   6   6  -2   12.83    0.53
  -6   6   2   12.10    0.58
   5  -6  -2   14.73    0.64
  -5  -6   2   14.66    0.68
   5  -6  -2   13.97    0.51
   5  -6  -2   14.98    0.59
   5   6  -2   14.79    0.59
  -5   6   2   14.74    0.62
   5   6  -2   14.09    0.67
  -5   6   2   14.04    0.67
   5   6  -2   13.98    0.57
   4  -6  -2  111.11    3.48
   4  -6  -2  109.04    3.42
   4  -6  -2  109.06    3.53
  -4  -6   2  112.84    3.51
   4   6  -2  111.85    3.49
   4   6  -2  111.00    3.47
  -4   6   2  115.19    3.57
   4   6  -2  111.53    3.57
  -4   6   2  120.06    3.51
  -3  -6   2    0.56    0.10
   3  -6  -2    0.39    0.07
  -3  -6   2    0.41    0.08
   3  -6  -2    0.35    0.09
   3  -6  -2    0.41    0.07
  -3  -6   2    0.52    0.12
   3  -6  -2    0.36    0.05
   3  -6  -2    0.40    0.09
  -3   6   2    0.54    0.13
   3   6  -2    0.37    0.09
   3   6  -2    0.30    0.08
  -3   6   2    0.39    0.09
   3   6  -2    0.57    0.09
  -2  -6   2   78.60    2.43
   2  -6  -2   78.06    2.42
   2  -6  -2   74.59    2.40
  -2  -6   2   77.81    2.35
   2  -6  -2   75.83    2.35
   2  -6  -2   73.27    2.38
  -2   6   2   79.22    2.39
   2   6  -2   79.10    2.42
   2   6  -2   78.28    2.43
  -2   6   2   79.37    2.46
   2   6  -2   77.16    2.40
  -1  -6   2    0.48    0.07
   1  -6  -2    0.35    0.07
  -1  -6   2    0.30    0.07
   1  -6  -2    0.48    0.07
  -1  -6   2    0.57    0.09
   1  -6  -2    0.43    0.08
   1  -6  -2    0.42    0.07
  -1  -6   2    0.50    0.09
   1   6  -2    0.51    0.08
  -1   6   2    0.44    0.07
  -1   6   2    0.56    0.11
  -1   6   2    0.49    0.08
   1   6  -2    0.69    0.11
   1   6  -2    0.51    0.08
   0  -6   2   18.57    0.68
   0  -6   2   19.44    0.66
   0  -6   2   19.46    0.64
   0  -6  -2   19.90    0.67
   0  -6   2   18.45    0.63
   0  -6  -2   19.00    0.65
   0  -6  -2   19.43    0.62
   0  -6  -2   18.42    0.65
   0   6  -2   18.71    0.68
   0   6   2   18.78    0.67
   0   6   2   18.47    0.64
   0   6   2   19.12    0.70
   0   6  -2   18.72    0.63
   0   6   2   18.72    0.62
   1  -6   2   37.23    1.18
   1  -6   2   35.94    1.22
  -1  -6  -2   34.71    1.22
   1  -6   2   36.48    1.16
   1  -6   2   36.88    1.21
   1  -6   2   37.86    1.16
  -1  -6  -2   36.71    1.18
  -1  -6  -2   37.37    1.18
   1   6   2   36.75    1.25
   1   6   2   36.63    1.12
   1   6   2   36.70    1.18
   1   6   2   37.31    1.24
  -1   6  -2   36.65    1.22
   2  -6   2   38.41    1.20
   2  -6   2   38.08    1.27
   2  -6   2   37.73    1.25
  -2  -6  -2   38.67    1.23
   2  -6   2   38.09    1.20
   2  -6   2   36.56    1.29
  -2  -6  -2   35.20    1.31
   2   6   2   39.86    1.24
  -2   6  -2   40.47    1.30
   2   6   2   37.97    1.32
   2   6   2   39.93    1.33
  -3  -6  -2    8.79    0.35
   3  -6   2    8.38    0.40
   3  -6   2    8.34    0.39
  -3  -6  -2    8.24    0.44
   3  -6   2    8.45    0.30
   3  -6   2    8.21    0.30
   3  -6   2    8.42    0.41
   3   6   2    7.69    0.44
  -3   6  -2    8.66    0.41
  -3   6  -2    8.66    0.38
   3   6   2    8.74    0.45
   3   6   2    8.22    0.36
   4  -6   2   12.85    0.56
   4  -6   2   12.93    0.58
   4  -6   2   12.43    0.42
   4  -6   2   12.62    0.42
  -4  -6  -2   13.49    0.63
   4  -6   2   12.39    0.58
   4   6   2   12.44    0.62
   4   6   2   12.09    0.50
   4   6   2   12.37    0.64
  -4   6  -2   13.27    0.56
  -4   6  -2   13.03    0.57
   5  -6   2    2.61    0.26
   5  -6   2    2.28    0.11
   5  -6   2    2.27    0.25
  -5  -6  -2    2.66    0.29
   5   6   2    2.26    0.20
   5   6   2    2.64    0.33
  -5   6  -2    2.12    0.22
   5   6   2    2.62    0.29
  -5   6  -2    2.10    0.25
   6  -6   2    4.34    0.36
  -6  -6  -2    4.71    0.41
   6   6   2    4.46    0.43
   6   6   2    4.50    0.41
   6   6   2    4.49    0.29
  -6   6  -2    4.15    0.31
  -7  -6  -2    0.48    0.19
   8  -7  -2    0.12    0.15
  -8  -7   2    0.26    0.22
   8  -7  -2    0.05    0.06
   8   7  -2    0.10    0.10
   8   7  -2    0.25    0.20
  -8   7   2    0.20    0.19
  -7  -7   2    1.13    0.21
  -7  -7   2    1.15    0.27
   7  -7  -2    1.30    0.13
   7  -7  -2    1.26    0.23
   7   7  -2    1.07    0.24
  -7   7   2    1.38    0.28
   7   7  -2    1.13    0.19
   6  -7  -2    1.39    0.22
  -6  -7   2    1.63    0.26
   6  -7  -2    1.65    0.14
   6  -7  -2    1.70    0.20
  -6  -7   2    2.11    0.24
   6   7  -2    1.53    0.18
  -6   7   2    1.65    0.22
   6   7  -2    1.78    0.27
  -6   7   2    2.02    0.29
   6   7  -2    1.83    0.19
   5  -7  -2   11.43    0.50
   5  -7  -2   10.66    0.42
  -5  -7   2   11.01    0.52
  -5  -7   2   11.34    0.58
   5  -7  -2   11.17    0.53
  -5   7   2   10.37    0.56
   5   7  -2   12.61    0.61
   5   7  -2   11.36    0.48
   5   7  -2   11.09    0.49
  -5   7   2   10.88    0.50
   4  -7  -2   77.97    2.44
  -4  -7   2   78.88    2.54
   4  -7  -2   78.60    2.51
   4  -7  -2   79.08    2.55
   4   7  -2   79.50    2.59
   4   7  -2   79.03    2.51
  -4   7   2   79.51    2.50
  -4   7   2   79.68    2.60
   4   7  -2   80.12    2.49
   3  -7  -2    0.01    0.05
   3  -7  -2    0.02    0.04
  -3  -7   2    0.05    0.08
   3  -7  -2   -0.03    0.03
  -3  -7   2   -0.06    0.04
   3  -7  -2    0.02    0.06
   3  -7  -2    0.04    0.03
  -3  -7   2   -0.02    0.06
   3   7  -2   -0.08    0.05
   3   7  -2    0.01    0.07
   3   7  -2   -0.02    0.05
  -3   7   2    0.01    0.05
   3   7  -2    0.00    0.02
  -3   7   2    0.03    0.08
  -2  -7   2  114.83    3.50
  -2  -7   2  119.61    3.55
   2  -7  -2  113.93    3.53
   2  -7  -2  115.63    3.52
   2  -7  -2  109.65    3.49
  -2  -7   2  115.81    3.46
   2  -7  -2  115.62    3.46
  -2   7   2  115.18    3.57
   2   7  -2  114.88    3.54
   2   7  -2  112.59    3.51
   2   7  -2  110.91    3.52
  -2   7   2  113.12    3.48
  -1  -7   2    3.59    0.19
   1  -7  -2    3.72    0.20
   1  -7  -2    3.75    0.19
   1  -7  -2    3.85    0.21
   1  -7  -2    3.67    0.19
  -1  -7   2    3.80    0.22
  -1  -7   2    3.67    0.18
   1   7  -2    3.94    0.22
  -1   7   2    3.75    0.24
   1   7  -2    3.77    0.19
   1   7  -2    3.62    0.20
  -1   7   2    3.81    0.19
  -1   7   2    3.65    0.18
   0  -7   2   11.38    0.42
   0  -7  -2   11.38    0.44
   0  -7   2   11.34    0.43
   0  -7  -2   11.18    0.43
   0  -7   2   11.20    0.46
   0  -7   2   11.10    0.40
   0  -7  -2   10.84    0.43
   0   7   2   11.55    0.41
   0   7   2   11.14    0.42
   0   7   2   11.24    0.44
   0   7  -2   11.91    0.46
   0   7  -2   11.53    0.42
   0   7   2   11.44    0.49
  -1  -7  -2   18.12    0.78
   1  -7   2   21.00    0.79
  -1  -7  -2   23.36    0.76
  -1  -7  -2   23.03    0.77
   1  -7   2   22.66    0.74
   1  -7   2   23.00    0.79
   1  -7   2   22.51    0.74
   1  -7   2   22.65    0.74
   1   7   2   22.00    0.83
   1   7   2   22.19    0.76
  -1   7  -2   22.51    0.81
   1   7   2   23.74    0.81
   1   7   2   22.50    0.70
   2  -7   2   67.81    2.07
  -2  -7  -2   68.87    2.20
   2  -7   2   63.17    2.16
  -2  -7  -2   67.98    2.10
   2  -7   2   64.61    2.08
   2  -7   2   66.93    2.11
   2  -7   2   66.45    2.15
   2   7   2   67.42    2.21
  -2   7  -2   69.61    2.12
  -2   7  -2   70.46    2.18
   2   7   2   68.09    2.20
   2   7   2   67.15    2.12
  -3  -7  -2    1.01    0.18
   3  -7   2    0.95    0.08
   3  -7   2    0.97    0.15
   3  -7   2    0.75    0.14
  -3  -7  -2    1.03    0.12
   3  -7   2    0.73    0.13
   3  -7   2    0.97    0.09
   3   7   2    1.07    0.18
   3   7   2    0.90    0.13
  -3   7  -2    1.21    0.15
  -3   7  -2    1.06    0.17
   3   7   2    1.15    0.19
  -4  -7  -2   50.26    1.85
   4  -7   2   52.20    1.66
   4  -7   2   53.38    1.81
   4  -7   2   53.57    1.83
   4  -7   2   53.23    1.81
   4   7   2   54.84    1.75
   4   7   2   54.64    1.92
  -4   7  -2   60.27    2.00
   4   7   2   52.60    1.89
  -4   7  -2   54.79    1.82
   5  -7   2   21.76    0.86
  -5  -7  -2   20.50    0.92
   5  -7   2   21.29    0.88
   5  -7   2   20.70    0.67
   5   7   2   20.57    0.94
   5   7   2   21.39    0.79
  -5   7  -2   20.94    0.83
  -5   7  -2   21.26    0.86
   5   7   2   20.89    0.98
  -6  -7  -2    1.00    0.24
   6  -7   2    0.87    0.20
  -6   7  -2    1.18    0.20
   6   7   2    1.20    0.18
   6   7   2    1.01    0.23
   6   7   2    1.23    0.29
   8  -8  -2    0.60    0.10
   8  -8  -2    0.98    0.23
  -8  -8   2    0.54    0.23
   8   8  -2    0.40    0.22
  -8   8   2    0.47    0.22
   8   8  -2    0.56    0.15
   7  -8  -2    0.17    0.14
  -7  -8   2   -0.06    0.12
   7  -8  -2    0.18    0.07
  -7  -8   2    0.02    0.15
   7   8  -2    0.10    0.16
  -7   8   2    0.01    0.16
   7   8  -2    0.06    0.10
   6  -8  -2    0.33    0.14
   6  -8  -2    0.35    0.08
  -6  -8   2    0.25    0.13
   6  -8  -2    0.52    0.13
  -6  -8   2    0.40    0.16
  -6   8   2    0.31    0.15
   6   8  -2    0.33    0.11
   6   8  -2    0.24    0.14
   6   8  -2    0.52    0.13
  -5  -8   2    3.82    0.34
  -5  -8   2    3.89    0.29
   5  -8  -2    3.94    0.27
   5  -8  -2    3.91    0.21
   5  -8  -2    3.79    0.30
   5   8  -2    3.81    0.25
   5   8  -2    4.01    0.26
  -5   8   2    3.48    0.33
   5   8  -2    3.62    0.32
  -5   8   2    3.94    0.29
  -4  -8   2    5.40    0.36
  -4  -8   2    4.78    0.31
   4  -8  -2    4.70    0.31
   4  -8  -2    4.86    0.24
   4  -8  -2    5.16    0.30
   4   8  -2    5.06    0.28
   4   8  -2    4.73    0.28
  -4   8   2    5.26    0.36
  -4   8   2    5.33    0.28
   4   8  -2    5.36    0.35
   3  -8  -2    3.74    0.24
   3  -8  -2    3.75    0.20
  -3  -8   2    3.44    0.21
  -3  -8   2    3.84    0.26
   3  -8  -2    3.87    0.25
  -3  -8   2    3.06    0.25
  -3  -8   2    3.74    0.15
   3  -8  -2    3.79    0.17
   3   8  -2    4.20    0.18
   3   8  -2    3.54    0.26
  -3   8   2    4.00    0.21
   3   8  -2    4.04    0.24
   3   8  -2    3.82    0.22
  -3   8   2    4.21    0.29
   2  -8  -2    9.84    0.42
  -2  -8   2   10.31    0.44
  -2  -8   2    9.81    0.40
   2  -8  -2   10.20    0.39
  -2  -8   2    9.31    0.35
   2  -8  -2    9.97    0.37
   2  -8  -2    9.82    0.41
  -2   8   2   10.34    0.46
   2   8  -2    9.82    0.42
   2   8  -2    9.41    0.42
  -2   8   2    9.52    0.37
  -1  -8   2   45.76    1.50
   1  -8  -2   47.49    1.50
  -1  -8   2   46.29    1.55
  -1  -8   2   46.86    1.49
   1  -8  -2   46.67    1.51
   1  -8  -2   44.51    1.49
   1  -8  -2   47.50    1.51
  -1   8   2   47.10    1.48
  -1   8   2   46.02    1.57
   1   8  -2   47.98    1.52
   1   8  -2   48.37    1.50
  -1   8   2   48.12    1.49
   1   8  -2   47.65    1.54
   0  -8   2    0.43    0.10
   0  -8   2    0.52    0.09
   0  -8   2    0.38    0.08
   0  -8   2    0.45    0.07
   0  -8  -2    0.49    0.10
   0  -8  -2    0.50    0.09
   0  -8  -2    0.41    0.08
   0   8   2    0.57    0.10
   0   8  -2    0.53    0.09
   0   8  -2    0.56    0.11
   0   8   2    0.42    0.07
   0   8  -2    0.50    0.11
   0   8   2    0.58    0.09
   0   8   2    0.63    0.13
   1  -8   2   40.96    1.28
  -1  -8  -2   41.91    1.33
   1  -8   2   41.40    1.30
  -1  -8  -2   41.02    1.37
   1  -8   2   40.09    1.36
   1  -8   2   39.57    1.34
   1  -8   2   40.40    1.30
  -1  -8  -2   41.07    1.32
   1   8   2   40.98    1.32
  -1   8  -2   41.40    1.31
   1   8   2   39.92    1.40
  -1   8  -2   37.59    1.36
   1   8   2   42.76    1.37
   1   8   2   40.41    1.27
   2  -8   2    0.04    0.05
   2  -8   2   -0.01    0.07
   2  -8   2   -0.05    0.07
  -2  -8  -2   -0.04    0.05
   2  -8   2    0.05    0.05
  -2  -8  -2   -0.02    0.07
   2   8   2    0.02    0.08
  -2   8  -2    0.00    0.08
   2   8   2    0.03    0.06
   2   8   2    0.03    0.09
  -2   8  -2   -0.10    0.05
   3  -8   2   17.94    0.69
  -3  -8  -2   18.14    0.76
  -3  -8  -2   18.32    0.65
   3  -8   2   17.88    0.72
   3  -8   2   18.08    0.62
   3  -8   2   18.05    0.73
   3   8   2   18.04    0.78
   3   8   2   18.23    0.78
  -3   8  -2   18.89    0.70
   3   8   2   17.38    0.67
  -3   8  -2   20.35    0.76
   4  -8   2   -0.22    0.08
   4  -8   2   -0.04    0.08
  -4  -8  -2    0.18    0.12
   4  -8   2    0.12    0.05
  -4   8  -2   -0.07    0.10
   4   8   2    0.11    0.08
   4   8   2    0.08    0.11
   4   8   2   -0.07    0.11
  -5  -8  -2    2.67    0.31
   5  -8   2    2.20    0.27
   5  -8   2    2.72    0.14
   5  -8   2    2.53    0.27
  -5   8  -2    2.63    0.27
   5   8   2    2.41    0.30
   5   8   2    2.38    0.32
   5   8   2    2.99    0.24
  -6  -8  -2   -0.10    0.13
  -6   8  -2    0.05    0.12
   6   8   2    0.14    0.17
   6   8   2   -0.03    0.09
   6   8   2    0.11    0.15
   7  -9  -2   10.32    0.42
  -7  -9   2    8.92    0.54
   7  -9  -2    9.09    0.57
  -7  -9   2    8.67    0.61
   7   9  -2    9.88    0.65
  -7   9   2   10.27    0.63
   7   9  -2   10.70    0.52
   6  -9  -2    1.88    0.15
   6  -9  -2    1.67    0.21
  -6  -9   2    1.72    0.24
   6  -9  -2    1.68    0.24
  -6  -9   2    1.76    0.29
  -6   9   2    1.91    0.30
   6   9  -2    1.72    0.28
   6   9  -2    1.66    0.21
   5  -9  -2   21.06    0.88
   5  -9  -2   21.62    0.84
   5  -9  -2   21.32    0.75
  -5  -9   2   20.94    0.86
   5   9  -2   21.84    0.82
   5   9  -2   21.05    0.81
   5   9  -2   21.80    0.93
  -5   9   2   21.91    0.93
  -4  -9   2    5.75    0.35
   4  -9  -2    5.63    0.26
   4  -9  -2    5.55    0.32
   4  -9  -2    5.10    0.33
   4   9  -2    5.07    0.29
   4   9  -2    5.17    0.30
   4   9  -2    5.16    0.35
  -4   9   2    5.50    0.38
   3  -9  -2    7.85    0.33
   3  -9  -2    7.80    0.37
  -3  -9   2    7.36    0.39
   3  -9  -2    7.58    0.30
   3  -9  -2    7.71    0.38
   3   9  -2    7.49    0.37
  -3   9   2    7.84    0.32
   3   9  -2    7.47    0.35
  -3   9   2    7.16    0.42
   3   9  -2    8.32    0.41
   2  -9  -2   21.60    0.78
   2  -9  -2   20.90    0.77
  -2  -9   2   19.26    0.76
  -2  -9   2   20.94    0.71
   2  -9  -2   21.00    0.74
   2  -9  -2   20.88    0.72
  -2  -9   2   21.71    0.81
  -2  -9   2   20.97    0.75
   2   9  -2   21.88    0.80
  -2   9   2   21.71    0.71
   2   9  -2   21.50    0.78
  -2   9   2   22.19    0.83
  -1  -9   2    1.38    0.13
   1  -9  -2    1.64    0.15
  -1  -9   2    1.45    0.17
   1  -9  -2    1.55    0.14
   1  -9  -2    1.59    0.14
   1  -9  -2    1.26    0.13
  -1  -9   2    1.46    0.12
  -1   9   2    1.75    0.13
  -1   9   2    1.46    0.12
   1   9  -2    1.71    0.16
   1   9  -2    1.32    0.14
  -1   9   2    1.65    0.15
   1   9  -2    1.21    0.12
  -1   9   2    1.52    0.18
   0  -9  -2   15.66    0.58
   0  -9   2   15.60    0.52
   0  -9   2   15.54    0.57
   0  -9   2   15.59    0.58
   0  -9   2   15.04    0.61
   0  -9  -2   15.26    0.57
   0  -9  -2   15.57    0.60
   0   9   2   15.41    0.65
   0   9  -2   15.57    0.58
   0   9   2   15.38    0.57
   0   9   2   14.92    0.56
   0   9   2   15.59    0.57
   0   9  -2   16.46    0.62
  -1  -9  -2    8.66    0.38
   1  -9   2    8.67    0.32
   1  -9   2    8.92    0.37
   1  -9   2    9.04    0.40
  -1  -9  -2    8.84    0.37
  -1  -9  -2    8.91    0.42
   1  -9   2    8.57    0.42
  -1   9  -2    9.14    0.43
   1   9   2    8.99    0.38
  -1   9  -2    9.43    0.38
   1   9   2    8.87    0.33
   1   9   2    9.09    0.46
   1   9   2    8.82    0.41
   2  -9   2    3.06    0.23
  -2  -9  -2    2.58    0.18
  -2  -9  -2    2.97    0.24
   2  -9   2    2.71    0.17
   2  -9   2    2.97    0.23
  -2   9  -2    2.86    0.25
   2   9   2    2.77    0.20
   2   9   2    2.99    0.25
  -2   9  -2    3.03    0.20
   2   9   2    2.46    0.24
  -3  -9  -2    0.22    0.07
  -3  -9  -2    0.28    0.11
   3  -9   2    0.42    0.11
   3  -9   2    0.24    0.10
   3  -9   2    0.26    0.07
  -3   9  -2    0.13    0.11
   3   9   2    0.09    0.11
  -3   9  -2    0.16    0.09
   3   9   2    0.21    0.13
   3   9   2    0.34    0.10
   4  -9   2    4.36    0.31
   4  -9   2    4.41    0.21
   4  -9   2    4.38    0.31
  -4  -9  -2    4.25    0.35
   4   9   2    4.91    0.29
   4   9   2    4.30    0.36
  -4   9  -2    4.21    0.33
   4   9   2    5.02    0.39
   5  -9   2    3.57    0.30
   5  -9   2    3.42    0.31
  -5  -9  -2    3.30    0.34
   5  -9   2    3.27    0.17
   5   9   2    3.15    0.26
   5   9   2    3.10    0.35
   5   9   2    3.25    0.37
  -5   9  -2    3.15    0.31
   6  -9   2    7.70    0.29
  -6  -9  -2    7.89    0.54
   6   9   2    7.88    0.57
   6   9   2    8.73    0.45
  -6   9  -2    7.21    0.45
   6   9   2    8.39    0.61
  -6   9  -2    8.04    0.50
  -7 -10   2    3.03    0.34
   7 -10  -2    2.87    0.20
   7 -10  -2    3.45    0.35
  -7 -10   2    3.28    0.38
  -7  10   2    2.77    0.37
   7  10  -2    2.67    0.37
   7  10  -2    3.32    0.30
  -6 -10   2    4.88    0.38
   6 -10  -2    5.07    0.27
  -6 -10   2    4.40    0.41
   6 -10  -2    4.79    0.34
   6 -10  -2    4.99    0.39
  -6  10   2    5.20    0.43
   6  10  -2    5.53    0.44
   6  10  -2    5.25    0.34
   5 -10  -2    0.78    0.16
   5 -10  -2    0.94    0.12
   5 -10  -2    0.72    0.17
  -5 -10   2    0.35    0.16
  -5 -10   2    1.21    0.21
   5  10  -2    0.83    0.20
   5  10  -2    1.07    0.16
  -5  10   2    1.04    0.23
   5  10  -2    1.05    0.16
   4 -10  -2   17.96    0.75
   4 -10  -2   18.24    0.72
  -4 -10   2   17.62    0.74
   4 -10  -2   17.72    0.65
  -4  10   2   17.07    0.77
   4  10  -2   18.18    0.70
   4  10  -2   16.89    0.77
   4  10  -2   18.26    0.70
   3 -10  -2    0.00    0.08
  -3 -10   2    0.18    0.11
   3 -10  -2    0.21    0.09
  -3 -10   2    0.05    0.08
   3 -10  -2    0.08    0.06
   3  10  -2   -0.03    0.07
   3  10  -2    0.04    0.08
   3  10  -2    0.08    0.08
  -3  10   2    0.11    0.12
  -2 -10   2   20.90    0.71
   2 -10  -2   20.76    0.78
   2 -10  -2   20.62    0.77
  -2 -10   2   21.10    0.76
  -2 -10   2   20.48    0.80
   2 -10  -2   20.65    0.73
   2 -10  -2   20.91    0.75
   2  10  -2   20.60    0.75
  -2  10   2   21.19    0.83
   2  10  -2   21.01    0.80
  -2  10   2   20.89    0.69
   2  10  -2   21.09    0.78
  -1 -10   2    0.04    0.06
   1 -10  -2   -0.07    0.06
   1 -10  -2    0.01    0.06
  -1 -10   2   -0.02    0.05
  -1 -10   2   -0.01    0.05
   1 -10  -2    0.10    0.06
  -1 -10   2    0.11    0.08
  -1  10   2   -0.04    0.08
   1  10  -2   -0.03    0.06
  -1  10   2   -0.06    0.04
  -1  10   2   -0.01    0.04
   1  10  -2    0.01    0.05
  -1  10   2    0.02    0.06
   1  10  -2    0.04    0.06
   0 -10   2   17.66    0.65
   0 -10  -2   17.64    0.67
   0 -10  -2   17.83    0.65
   0 -10  -2   17.99    0.65
   0 -10   2   17.32    0.65
   0 -10   2   17.64    0.58
   0 -10   2   17.73    0.69
   0  10  -2   16.85    0.68
   0  10  -2   16.72    0.65
   0  10   2   17.28    0.72
   0  10   2   17.73    0.64
   0  10   2   17.99    0.64
   0  10   2   17.56    0.64
   1 -10   2    1.65    0.19
  -1 -10  -2    1.63    0.15
   1 -10   2    1.32    0.14
  -1 -10  -2    1.42    0.17
   1 -10   2    1.49    0.16
  -1 -10  -2    1.33    0.15
   1  10   2    1.47    0.12
  -1  10  -2    1.62    0.16
   1  10   2    1.65    0.17
   1  10   2    1.64    0.20
  -1  10  -2    1.56    0.19
   1  10   2    1.51    0.15
  -2 -10  -2    7.96    0.34
   2 -10   2    7.22    0.39
  -2 -10  -2    7.30    0.40
   2 -10   2    7.23    0.38
   2 -10   2    7.61    0.33
   2  10   2    7.55    0.44
  -2  10  -2    7.58    0.41
   2  10   2    7.66    0.36
   2  10   2    7.47    0.41
  -3 -10  -2    2.48    0.25
   3 -10   2    1.71    0.21
   3 -10   2    2.16    0.22
   3 -10   2    1.44    0.14
  -3 -10  -2    2.18    0.17
  -3  10  -2    1.85    0.24
   3  10   2    2.13    0.25
   3  10   2    2.09    0.26
   3  10   2    2.32    0.20
  -4 -10  -2    0.45    0.15
   4 -10   2    0.57    0.14
   4 -10   2    0.40    0.08
   4 -10   2    0.73    0.16
   4  10   2    0.41    0.17
  -4  10  -2    0.40    0.16
   4  10   2    0.55    0.17
   4  10   2    0.58    0.13
   5 -10   2   -0.13    0.10
  -5 -10  -2    0.06    0.14
   5 -10   2   -0.06    0.10
   5 -10   2   -0.08    0.04
   5  10   2   -0.04    0.15
   5  10   2   -0.07    0.13
  -5  10  -2   -0.18    0.11
   5  10   2    0.01    0.10
   6 -10   2    0.29    0.07
  -6 -10  -2   -0.04    0.16
   6 -10   2    0.06    0.14
   6  10   2   -0.06    0.14
  -6  10  -2    0.30    0.17
  -6  10  -2    0.25    0.14
   6  10   2    0.53    0.23
   6  10   2    0.32    0.13
   7 -11  -2    0.51    0.17
   7 -11  -2    0.29    0.09
   7 -11  -2    0.46    0.18
  -7 -11   2    0.13    0.16
  -7 -11   2    0.38    0.17
  -7  11   2    0.36    0.23
   7  11  -2    0.41    0.15
   7  11  -2    0.12    0.16
  -6 -11   2    0.47    0.18
   6 -11  -2    0.45    0.10
   6 -11  -2    0.19    0.12
   6 -11  -2    0.44    0.14
  -6 -11   2    0.46    0.18
  -6  11   2    0.34    0.20
   6  11  -2    0.32    0.17
   6  11  -2    0.23    0.13
   5 -11  -2    9.42    0.50
   5 -11  -2   10.06    0.54
   5 -11  -2    9.77    0.42
  -5 -11   2    9.69    0.53
   5  11  -2   10.08    0.48
   5  11  -2    9.99    0.57
  -5  11   2   10.23    0.58
   5  11  -2    9.75    0.47
   4 -11  -2    1.98    0.22
   4 -11  -2    2.32    0.23
   4 -11  -2    2.25    0.18
  -4 -11   2    1.28    0.21
  -4 -11   2    2.14    0.25
   4  11  -2    1.72    0.22
   4  11  -2    1.79    0.19
   4  11  -2    2.21    0.20
  -4  11   2    2.05    0.27
   3 -11  -2    4.60    0.30
   3 -11  -2    4.55    0.25
   3 -11  -2    4.35    0.29
  -3 -11   2    4.62    0.32
   3  11  -2    4.64    0.29
   3  11  -2    4.44    0.27
   3  11  -2    4.68    0.32
  -3  11   2    4.41    0.34
   2 -11  -2    1.94    0.19
  -2 -11   2    2.25    0.18
  -2 -11   2    1.86    0.21
  -2 -11   2    1.29    0.16
   2 -11  -2    2.50    0.20
   2 -11  -2    1.96    0.17
   2 -11  -2    2.20    0.17
  -2 -11   2    2.25    0.15
   2  11  -2    1.98    0.19
  -2  11   2    1.97    0.20
  -2  11   2    1.92    0.23
   2  11  -2    2.29    0.21
   1 -11  -2    1.97    0.17
   1 -11  -2    1.97    0.17
  -1 -11   2    2.21    0.17
  -1 -11   2    2.04    0.18
  -1 -11   2    2.21    0.20
   1 -11  -2    2.07    0.18
  -1  11   2    1.97    0.23
   1  11  -2    1.91    0.19
   1  11  -2    2.50    0.21
  -1  11   2    1.85    0.18
  -1  11   2    1.91    0.14
   0 -11   2   -0.02    0.06
   0 -11   2    0.07    0.08
   0 -11  -2    0.08    0.08
   0 -11   2    0.01    0.06
   0 -11  -2    0.01    0.06
   0 -11  -2   -0.08    0.06
   0  11   2    0.01    0.06
   0  11  -2    0.06    0.07
   0  11  -2    0.08    0.08
   0  11   2    0.05    0.10
   0  11   2    0.18    0.08
   0  11   2    0.11    0.07
   1 -11   2   37.06    1.30
   1 -11   2   36.54    1.27
  -1 -11  -2   37.56    1.30
   1 -11   2   35.35    1.23
  -1 -11  -2   37.07    1.24
   1  11   2   38.11    1.27
   1  11   2   37.49    1.20
  -1  11  -2   36.77    1.31
   1  11   2   36.58    1.24
  -1  11  -2   37.21    1.25
   1  11   2   37.13    1.36
   2 -11   2    3.26    0.27
  -2 -11  -2    3.75    0.29
   2 -11   2    3.50    0.22
   2 -11   2    3.64    0.27
  -2 -11  -2    3.46    0.22
   2  11   2    3.30    0.28
   2  11   2    3.73    0.24
   2  11   2    3.59    0.31
  -2  11  -2    3.79    0.29
   3 -11   2   12.93    0.51
   3 -11   2   13.44    0.61
  -3 -11  -2   13.28    0.64
   3 -11   2   12.66    0.60
   3  11   2   13.58    0.65
   3  11   2   12.93    0.67
  -3  11  -2   15.04    0.66
   3  11   2   13.23    0.57
  -4 -11  -2    1.07    0.23
   4 -11   2    0.98    0.12
   4 -11   2    0.88    0.18
   4 -11   2    1.09    0.20
   4  11   2    1.17    0.24
   4  11   2    0.95    0.16
  -4  11  -2    0.90    0.21
   4  11   2    0.98    0.22
  -5 -11  -2    0.07    0.15
   5 -11   2    0.41    0.16
   5 -11   2    0.38    0.08
   5 -11   2    0.30    0.13
   5  11   2    0.47    0.20
  -5  11  -2    0.16    0.16
   5  11   2    0.28    0.16
   5  11   2    0.27    0.13
   6 -11   2   -0.05    0.12
  -6 -11  -2    0.17    0.18
   6 -11   2    0.23    0.07
   6  11   2    0.22    0.20
   6  11   2    0.17    0.17
  -6  11  -2    0.25    0.17
   6  11   2    0.05    0.11
  -7 -12   2    1.01    0.24
   7 -12  -2    1.63    0.26
   7 -12  -2    1.32    0.27
   7 -12  -2    1.58    0.17
  -7 -12   2    0.73    0.23
   7  12  -2    1.51    0.33
   7  12  -2    1.54    0.24
  -7  12   2    1.00    0.27
  -6 -12   2    4.85    0.40
   6 -12  -2    5.43    0.29
   6 -12  -2    4.75    0.37
   6 -12  -2    4.90    0.41
   6  12  -2    5.18    0.36
   6  12  -2    5.01    0.45
  -6  12   2    5.00    0.44
  -5 -12   2    0.28    0.14
   5 -12  -2    0.49    0.15
   5 -12  -2    0.41    0.10
  -5 -12   2    0.27    0.15
   5 -12  -2    0.56    0.15
   5  12  -2    0.26    0.11
  -5  12   2    0.21    0.16
   5  12  -2    0.25    0.16
   5  12  -2    0.30    0.11
   4 -12  -2    5.14    0.36
  -4 -12   2    4.63    0.35
   4 -12  -2    4.70    0.33
   4 -12  -2    5.32    0.28
   4  12  -2    5.41    0.32
   4  12  -2    4.95    0.31
  -4  12   2    4.40    0.38
   4  12  -2    5.30    0.38
   3 -12  -2   33.32    1.13
  -3 -12   2   32.77    1.21
   3 -12  -2   32.31    1.20
   3 -12  -2   33.53    1.18
   3  12  -2   33.29    1.17
   3  12  -2   34.50    1.16
  -3  12   2   31.35    1.24
   3  12  -2   32.74    1.23
  -2 -12   2    9.93    0.40
   2 -12  -2    9.97    0.42
  -2 -12   2    9.77    0.49
   2 -12  -2   10.07    0.46
   2 -12  -2    9.52    0.43
  -2 -12   2   10.13    0.45
  -2  12   2    9.43    0.51
   2  12  -2    9.65    0.48
  -2  12   2   10.07    0.47
   2  12  -2    9.55    0.46
   1 -12  -2   27.35    0.95
  -1 -12   2   27.52    0.96
  -1 -12   2   27.44    1.01
   1 -12  -2   27.06    0.95
  -1 -12   2   26.89    0.93
   1 -12  -2   27.07    0.96
  -1  12   2   26.03    1.04
   1  12  -2   26.79    0.99
   1  12  -2   27.74    0.99
  -1  12   2   24.03    0.96
   0 -12  -2   13.06    0.58
   0 -12  -2   14.35    0.57
   0 -12   2   13.60    0.56
   0 -12   2   14.47    0.61
   0 -12   2   14.79    0.57
   0 -12  -2   13.30    0.56
   0  12   2   14.12    0.54
   0  12   2   12.75    0.63
   0  12  -2   15.27    0.62
   0  12  -2   14.04    0.58
   0  12   2   13.28    0.55
   1 -12   2    1.46    0.19
  -1 -12  -2    2.10    0.18
   1 -12   2    2.11    0.22
  -1 -12  -2    1.79    0.21
   1 -12   2    1.94    0.18
  -1  12  -2    1.76    0.22
   1  12   2    2.08    0.19
  -1  12  -2    1.86    0.19
   1  12   2    1.82    0.25
   1  12   2    2.03    0.19
  -2 -12  -2    8.40    0.47
   2 -12   2    8.84    0.39
  -2 -12  -2    9.00    0.39
   2 -12   2    8.33    0.45
   2 -12   2    8.27    0.44
   2  12   2    8.87    0.46
  -2  12  -2    8.69    0.47
   2  12   2    8.26    0.41
   2  12   2    7.96    0.49
  -3 -12  -2    7.67    0.46
   3 -12   2    7.84    0.36
   3 -12   2    7.24    0.43
   3 -12   2    7.80    0.44
   3  12   2    7.81    0.50
   3  12   2    7.91    0.41
  -3  12  -2    7.53    0.46
   3  12   2    7.68    0.47
   4 -12   2    3.41    0.32
  -4 -12  -2    3.54    0.35
   4 -12   2    3.88    0.23
   4 -12   2    4.01    0.32
   4  12   2    3.51    0.36
   4  12   2    3.64    0.36
  -4  12  -2    3.53    0.34
   4  12   2    4.18    0.31
   5 -12   2    4.68    0.39
  -5 -12  -2    4.84    0.43
   5 -12   2    5.29    0.27
   5  12   2    5.62    0.38
   5  12   2    4.97    0.46
  -5  12  -2    5.78    0.44
   5  12   2    5.86    0.48
   7 -13  -2    0.08    0.13
   7 -13  -2   -0.06    0.06
   7 -13  -2    0.09    0.13
  -7  13   2    0.00    0.17
   7  13  -2    0.01    0.13
  -7  13   2   -0.01    0.16
   7  13  -2   -0.08    0.16
   6 -13  -2    2.86    0.32
  -6 -13   2    2.75    0.33
  -6 -13   2    2.75    0.34
   6 -13  -2    2.90    0.31
   6 -13  -2    2.62    0.22
   6  13  -2    3.20    0.38
   6  13  -2    3.46    0.31
  -6  13   2    2.44    0.34
   5 -13  -2    6.01    0.43
  -5 -13   2    6.44    0.45
   5 -13  -2    6.42    0.34
  -5 -13   2    5.20    0.42
   5 -13  -2    6.87    0.42
   5  13  -2    6.38    0.47
   5  13  -2    7.15    0.41
  -5  13   2    5.87    0.46
  -4 -13   2    2.93    0.29
   4 -13  -2    3.24    0.28
   4 -13  -2    3.37    0.23
   4 -13  -2    3.09    0.29
   4  13  -2    3.38    0.26
  -4  13   2    2.93    0.29
  -4  13   2    2.62    0.32
   4  13  -2    3.33    0.26
   4  13  -2    2.94    0.31
  -3 -13   2    1.36    0.22
   3 -13  -2    1.07    0.16
   3 -13  -2    0.96    0.17
  -3  13   2    0.85    0.17
   3  13  -2    1.16    0.18
   3  13  -2    0.99    0.19
  -3  13   2    0.91    0.21
  -2 -13   2   11.86    0.47
  -2 -13   2   11.72    0.52
   2 -13  -2   11.83    0.50
   2 -13  -2   11.31    0.52
  -2 -13   2   11.83    0.57
   2 -13  -2   11.78    0.51
   2  13  -2   12.03    0.54
   2  13  -2   11.90    0.56
  -2  13   2   12.78    0.56
  -2  13   2   11.43    0.60
  -1 -13   2    3.51    0.28
   1 -13  -2    3.40    0.25
  -1 -13   2    3.19    0.24
  -1 -13   2    3.01    0.22
   1 -13  -2    3.57    0.25
  -1  13   2    3.27    0.29
  -1  13   2    3.14    0.25
   1  13  -2    2.96    0.25
   1  13  -2    3.18    0.27
   0 -13   2   33.87    1.17
   0 -13   2   32.31    1.17
   0 -13  -2   33.86    1.19
   0 -13   2   33.23    1.22
   0 -13  -2   32.84    1.16
   0 -13  -2   33.96    1.17
   0  13  -2   34.95    1.19
   0  13  -2   32.27    1.21
   0  13   2   32.61    1.26
   0  13   2   34.17    1.15
   1 -13   2   34.74    1.21
   1 -13   2   33.08    1.17
   1 -13   2   32.97    1.23
  -1 -13  -2   33.57    1.16
  -1 -13  -2   33.37    1.23
  -1  13  -2   34.56    1.19
   1  13   2   33.87    1.30
   1  13   2   34.43    1.19
   2 -13   2   26.35    0.93
  -2 -13  -2   24.53    0.91
  -2 -13  -2   25.05    1.02
   2 -13   2   26.44    1.01
   2 -13   2   26.36    1.00
   2  13   2   26.35    0.97
   2  13   2   27.99    1.01
  -2  13  -2   25.74    1.03
   2  13   2   25.12    1.07
   3 -13   2   10.08    0.53
   3 -13   2    9.84    0.52
   3 -13   2   10.58    0.45
  -3 -13  -2    9.60    0.55
   3  13   2    9.99    0.59
   3  13   2    9.83    0.49
  -3  13  -2   10.06    0.55
   3  13   2   10.13    0.55
   4 -13   2    8.22    0.38
   4 -13   2    8.53    0.49
   4 -13   2    8.54    0.49
  -4 -13  -2    8.58    0.53
   4  13   2    8.16    0.55
   4  13   2    8.91    0.47
  -4  13  -2    7.52    0.50
   4  13   2    8.01    0.53
  -5 -13  -2    1.29    0.26
   5 -13   2    0.99    0.20
   5 -13   2    1.53    0.16
   5  13   2    2.11    0.34
  -5  13  -2    1.75    0.30
   5  13   2    1.86    0.26
   5  13   2    1.45    0.27
  -6 -14   2    0.54    0.19
   6 -14  -2    1.00    0.22
   6 -14  -2    0.66    0.14
  -6 -14   2    0.90    0.24
  -6  14   2    0.54    0.20
   6  14  -2    0.85    0.19
   6  14  -2    1.10    0.27
  -6  14   2    0.62    0.22
  -5 -14   2    6.65    0.47
   5 -14  -2    7.09    0.37
   5 -14  -2    7.38    0.45
   5  14  -2    6.87    0.50
   5  14  -2    7.27    0.46
  -5  14   2    6.76    0.47
  -5  14   2    6.07    0.49
  -4 -14   2    1.88    0.26
   4 -14  -2    1.85    0.19
   4 -14  -2    2.08    0.24
  -4  14   2    2.47    0.31
   4  14  -2    1.79    0.26
  -4  14   2    1.82    0.26
   4  14  -2    1.81    0.21
  -3 -14   2    3.17    0.30
   3 -14  -2    2.44    0.24
   3 -14  -2    3.16    0.24
  -3  14   2    3.18    0.33
   3  14  -2    2.51    0.27
  -3  14   2    1.89    0.24
   3  14  -2    2.52    0.24
   2 -14  -2    2.75    0.24
  -2 -14   2    2.44    0.25
   2 -14  -2    2.54    0.22
  -2 -14   2    2.81    0.19
   2 -14  -2    2.92    0.22
  -2  14   2    2.54    0.25
   2  14  -2    2.64    0.26
   2  14  -2    2.35    0.23
  -2  14   2    2.28    0.28
  -1 -14   2    1.12    0.17
  -1 -14   2    0.83    0.18
   1 -14  -2    1.02    0.16
  -1 -14   2    1.04    0.15
   1 -14  -2    0.79    0.16
   1 -14  -2    1.01    0.16
   1  14  -2    0.87    0.17
  -1  14   2    0.65    0.15
   1  14  -2    1.03    0.17
  -1  14   2    0.75    0.19
   0 -14  -2    2.78    0.25
   0 -14   2    3.37    0.29
   0 -14   2    3.21    0.25
   0 -14  -2    3.62    0.26
   0 -14  -2    2.58    0.23
   0 -14   2    2.99    0.24
   0  14   2    3.16    0.24
   0  14  -2    3.02    0.27
   0  14  -2    3.30    0.26
   0  14   2    3.59    0.33
  -1 -14  -2    6.14    0.34
   1 -14   2    6.33    0.38
  -1 -14  -2    5.95    0.39
   1 -14   2    6.37    0.35
   1 -14   2    6.50    0.40
   1  14   2    6.46    0.43
  -1  14  -2    6.46    0.41
  -1  14  -2    6.75    0.39
  -2 -14  -2    0.88    0.15
   2 -14   2    0.86    0.17
   2 -14   2    1.06    0.16
   2 -14   2    1.35    0.21
  -2 -14  -2    1.39    0.23
  -2  14  -2    1.17    0.21
   2  14   2    1.28    0.20
   2  14   2    1.30    0.24
   3 -14   2    5.19    0.37
  -3 -14  -2    5.08    0.40
   3 -14   2    5.32    0.31
   3 -14   2    5.13    0.37
   3  14   2    5.49    0.39
   3  14   2    5.35    0.43
   3  14   2    5.60    0.36
  -3  14  -2    5.27    0.39
   4 -14   2   -0.09    0.06
   4 -14   2    0.01    0.12
  -4 -14  -2    0.23    0.15
   4 -14   2    0.06    0.11
   4  14   2    0.23    0.16
   4  14   2    0.00    0.14
  -4  14  -2   -0.05    0.12
   4  14   2   -0.07    0.11
  -5 -14  -2    2.99    0.38
   5 -14   2    2.32    0.21
   5 -14   2    2.82    0.32
   5  14   2    2.45    0.36
   5  14   2    3.25    0.32
   5  14   2    3.08    0.38
  -5  14  -2    2.97    0.35
  -6 -15   2    1.12    0.25
   6 -15  -2    1.21    0.24
   6 -15  -2    1.15    0.18
  -6 -15   2    1.35    0.26
  -6  15   2    1.70    0.34
   6  15  -2    1.69    0.32
  -6  15   2    1.18    0.24
  -5 -15   2    5.70    0.44
   5 -15  -2    5.42    0.40
   5 -15  -2    5.36    0.33
  -5  15   2    5.62    0.43
  -5  15   2    5.50    0.46
   5  15  -2    5.34    0.46
   4 -15  -2    1.21    0.21
   4 -15  -2    1.15    0.17
  -4 -15   2    1.41    0.25
  -4  15   2    1.00    0.21
  -4  15   2    0.86    0.23
   4  15  -2    0.93    0.21
   4  15  -2    0.83    0.16
  -3 -15   2   27.16    1.07
   3 -15  -2   26.77    1.03
   3 -15  -2   26.94    0.98
  -3  15   2   25.04    1.03
  -3  15   2   25.80    1.09
   3  15  -2   25.83    1.07
   3  15  -2   25.24    0.99
   2 -15  -2    2.21    0.24
   2 -15  -2    2.37    0.23
  -2 -15   2    2.77    0.28
   2  15  -2    2.42    0.24
   2  15  -2    2.30    0.26
  -2  15   2    2.35    0.29
  -2  15   2    2.13    0.24
  -1 -15   2   14.49    0.60
  -1 -15   2   14.59    0.62
  -1 -15   2   13.51    0.66
   1 -15  -2   14.57    0.62
   1 -15  -2   14.45    0.62
   1 -15  -2   14.36    0.62
   1  15  -2   14.05    0.65
  -1  15   2   15.08    0.72
   1  15  -2   14.58    0.66
  -1  15   2   13.68    0.63
   0 -15   2    9.48    0.46
   0 -15   2    9.14    0.50
   0 -15  -2    8.74    0.44
   0 -15  -2    9.17    0.47
   0 -15   2    9.35    0.45
   0  15   2    8.44    0.43
   0  15   2    9.43    0.54
   0  15  -2    8.89    0.47
   0  15  -2    8.94    0.49
  -1 -15  -2    0.29    0.11
   1 -15   2    0.21    0.12
   1 -15   2    0.35    0.11
  -1 -15  -2    0.35    0.15
   1 -15   2    0.29    0.12
  -1  15  -2    0.46    0.16
   1  15   2    0.45    0.16
  -2 -15  -2    6.77    0.44
   2 -15   2    6.82    0.42
   2 -15   2    6.26    0.41
   2 -15   2    6.32    0.35
  -2 -15  -2    6.06    0.46
  -2  15  -2    5.24    0.40
   2  15   2    6.70    0.47
   3 -15   2   -0.15    0.09
  -3 -15  -2   -0.12    0.13
   3 -15   2   -0.06    0.11
   3 -15   2    0.02    0.08
   3  15   2    0.00    0.12
  -3  15  -2    0.10    0.14
   4 -15   2    1.65    0.25
   4 -15   2    1.46    0.18
   4 -15   2    1.85    0.27
  -4 -15  -2    1.88    0.30
   4  15   2    1.45    0.29
   4  15   2    1.72    0.26
  -4  15  -2    2.05    0.30
   4  15   2    1.38    0.27
   5 -15   2    1.12    0.17
   5 -15   2    0.42    0.19
   5  15   2    0.89    0.25
  -5  15  -2    1.10    0.24
   5  15   2    1.10    0.28
   5  15   2    0.59    0.18
   5 -16  -2    0.28    0.16
   5 -16  -2    0.52    0.14
  -5 -16   2    0.54    0.19
  -5  16   2    0.43    0.21
   5  16  -2    0.54    0.22
  -5  16   2    0.20    0.17
   4 -16  -2    6.76    0.43
   4 -16  -2    6.83    0.38
  -4 -16   2    6.54    0.46
  -4  16   2    5.61    0.47
   4  16  -2    6.47    0.48
  -4  16   2    5.76    0.43
  -3 -16   2   -0.06    0.12
   3 -16  -2   -0.07    0.08
   3 -16  -2    0.19    0.13
   3  16  -2   -0.05    0.11
   3  16  -2    0.06    0.10
  -3  16   2   -0.02    0.11
  -3  16   2   -0.01    0.12
   2 -16  -2   11.67    0.52
   2 -16  -2   10.78    0.54
  -2 -16   2   11.03    0.58
   2  16  -2   11.09    0.58
   2  16  -2   10.53    0.53
  -2  16   2    8.85    0.52
  -2  16   2   10.24    0.60
  -1 -16   2    0.00    0.08
  -1 -16   2   -0.01    0.08
   1 -16  -2    0.00    0.09
  -1 -16   2    0.02    0.11
   1 -16  -2    0.07    0.09
   1 -16  -2   -0.16    0.08
   1  16  -2    0.00    0.10
  -1  16   2   -0.02    0.12
   1  16  -2   -0.07    0.10
  -1  16   2   -0.08    0.09
   0 -16  -2   10.44    0.53
   0 -16   2   10.33    0.55
   0 -16  -2   10.55    0.50
   0 -16   2   10.96    0.51
   0 -16   2   10.86    0.51
   0  16  -2    9.69    0.54
   0  16  -2   10.03    0.52
   0  16   2    9.58    0.59
  -1 -16  -2    2.64    0.28
   1 -16   2    2.70    0.29
   1 -16   2    2.67    0.25
   1 -16   2    2.87    0.28
  -1 -16  -2    2.98    0.24
   1  16   2    2.74    0.32
  -1  16  -2    3.01    0.30
   2 -16   2    3.57    0.27
   2 -16   2    3.47    0.31
   2 -16   2    3.77    0.33
  -2 -16  -2    3.18    0.33
   2  16   2    2.92    0.34
  -2  16  -2    3.35    0.33
   3 -16   2    5.09    0.32
  -3 -16  -2    4.50    0.39
   3 -16   2    4.27    0.36
   3 -16   2    5.42    0.40
  -3  16  -2    5.08    0.41
   3  16   2    4.83    0.43
  -4 -16  -2    0.79    0.23
   4 -16   2    0.56    0.14
   4 -16   2    0.72    0.20
   4  16   2    0.55    0.22
  -4  16  -2    0.31    0.19
   5 -17  -2    0.13    0.13
  -5 -17   2   -0.18    0.13
   5 -17  -2    0.07    0.10
  -5  17   2    0.12    0.19
   5  17  -2    0.13    0.17
  -5  17   2    0.20    0.17
   4 -17  -2    2.58    0.26
  -4 -17   2    2.23    0.32
   4 -17  -2    2.45    0.29
  -4  17   2    2.70    0.36
   4  17  -2    2.53    0.34
  -4  17   2    2.86    0.33
  -3 -17   2    1.12    0.23
   3 -17  -2    0.92    0.19
   3 -17  -2    0.94    0.18
   3  17  -2    1.09    0.23
   3  17  -2    1.14    0.20
  -3  17   2    0.91    0.24
  -3  17   2    0.38    0.18
  -2 -17   2    5.39    0.40
   2 -17  -2    5.51    0.35
   2 -17  -2    4.65    0.35
   2  17  -2    5.52    0.40
  -2  17   2    5.13    0.43
  -2  17   2    4.63    0.37
   2  17  -2    4.87    0.35
   1 -17  -2    3.62    0.30
  -1 -17   2    3.08    0.32
  -1 -17   2    3.56    0.27
   1 -17  -2    4.03    0.31
   1 -17  -2    3.91    0.30
  -1  17   2    4.22    0.31
   1  17  -2    3.16    0.31
   1  17  -2    3.92    0.33
  -1  17   2    3.66    0.37
   0 -17  -2    2.02    0.22
   0 -17   2    1.34    0.21
   0 -17  -2    1.86    0.23
   0 -17   2    1.77    0.23
   0 -17   2    2.00    0.26
   0  17   2    1.50    0.26
   0  17  -2    1.43    0.22
   1 -17   2    1.04    0.21
   1 -17   2    0.65    0.17
  -1 -17  -2    0.56    0.17
  -1 -17  -2    0.57    0.13
   1 -17   2    0.51    0.14
   1  17   2    1.00    0.24
  -1  17  -2    0.85    0.19
   2 -17   2    2.96    0.26
  -2 -17  -2    2.93    0.33
   2 -17   2    2.73    0.29
   2 -17   2    2.70    0.30
   2  17   2    2.84    0.36
  -2  17  -2    2.30    0.30
   3 -17   2    3.25    0.33
   3 -17   2    3.94    0.29
  -3 -17  -2    3.32    0.36
   3 -17   2    4.01    0.36
  -3  17  -2    3.71    0.39
   3  17   2    3.79    0.41
  -4 -17  -2    2.34    0.34
   4 -17   2    2.07    0.23
   4 -17   2    2.65    0.34
   4  17   2    2.00    0.35
  -4  17  -2    2.50    0.34
   4 -18  -2    0.37    0.17
   4 -18  -2    0.66    0.16
  -4 -18   2    0.39    0.18
  -4  18   2    0.21    0.19
   4  18  -2    0.66    0.22
  -4  18   2    0.32    0.17
  -3 -18   2    1.91    0.28
   3 -18  -2    1.42    0.23
   3 -18  -2    2.11    0.27
  -3  18   2    1.69    0.29
   3  18  -2    1.61    0.23
   3  18  -2    2.04    0.30
  -3  18   2    1.82    0.28
  -2 -18   2    0.67    0.20
   2 -18  -2    0.62    0.18
   2 -18  -2    0.67    0.17
  -2  18   2    0.90    0.24
   2  18  -2    0.73    0.17
   2  18  -2    0.99    0.22
  -2  18   2    0.72    0.18
   1 -18  -2    6.33    0.41
  -1 -18   2    6.69    0.46
  -1 -18   2    6.40    0.38
   1  18  -2    6.09    0.44
  -1  18   2    6.33    0.49
   1  18  -2    6.77    0.45
  -1  18   2    6.80    0.42
   0 -18   2    1.81    0.24
   0 -18  -2    1.72    0.24
   0 -18  -2    2.29    0.24
   0 -18   2    1.71    0.23
   0 -18   2    1.71    0.26
   0  18  -2    2.23    0.28
   0  18   2    1.81    0.31
   1 -18   2   17.05    0.74
  -1 -18  -2   15.52    0.68
   1 -18   2   16.45    0.71
   1 -18   2   16.38    0.77
  -1 -18  -2   15.14    0.74
   1  18   2   15.17    0.82
  -1  18  -2   15.60    0.76
  -2 -18  -2   -0.06    0.12
   2 -18   2    0.06    0.13
   2 -18   2    0.03    0.11
   2 -18   2   -0.04    0.13
  -2  18  -2    0.23    0.18
   2  18   2    0.37    0.20
   3 -18   2    6.81    0.42
  -3 -18  -2    7.29    0.52
   3 -18   2    7.21    0.49
   3 -18   2    7.15    0.49
   3  18   2    7.26    0.58
  -3  18  -2    7.03    0.53
   4 -19  -2    0.30    0.16
  -4 -19   2    0.23    0.18
   4 -19  -2    0.40    0.15
  -4  19   2    0.33    0.17
  -4  19   2    0.57    0.24
   4  19  -2    0.24    0.17
   3 -19  -2    7.02    0.46
  -3 -19   2    5.98    0.47
   3 -19  -2    7.53    0.44
   3  19  -2    7.11    0.46
  -3  19   2    6.16    0.47
  -3  19   2    5.82    0.50
   3  19  -2    6.23    0.49
   2 -19  -2    1.97    0.27
   2 -19  -2    2.36    0.29
  -2 -19   2    2.89    0.33
  -2  19   2    2.37    0.30
   2  19  -2    2.60    0.28
  -2  19   2    2.54    0.35
   2  19  -2    2.66    0.32
   1 -19  -2   14.76    0.69
  -1 -19   2   15.35    0.76
  -1  19   2   14.90    0.79
   0 -19   2    9.66    0.52
   0 -19   2    9.88    0.57
   0 -19  -2    9.09    0.49
   0 -19   2    9.91    0.51
   0 -19  -2    8.72    0.52
   0  19  -2    7.20    0.51
   0  19   2    8.85    0.61
   1 -19   2    0.22    0.14
   1 -19   2    0.16    0.16
   1 -19   2    0.13    0.13
  -1 -19  -2    0.23    0.15
   1  19   2    0.00    0.14
  -1  19  -2    0.06    0.14
   2 -19   2    1.22    0.24
  -2 -19  -2    0.87    0.24
   2 -19   2    0.79    0.18
   2 -19   2    0.75    0.21
  -2  19  -2    0.97    0.23
   2  19   2    0.87    0.26
  -3 -20   2    0.13    0.14
   3 -20  -2    0.07    0.14
   3 -20  -2   -0.15    0.11
  -3  20   2    0.07    0.12
  -3  20   2    0.35    0.21
   3  20  -2    0.40    0.19
   2 -20  -2    0.55    0.19
   2 -20  -2    0.56    0.18
  -2 -20   2    0.87    0.23
  -2  20   2    0.88    0.25
  -2  20   2    0.88    0.21
   2  20  -2    0.55    0.18
  -1 -20   2    2.20    0.31
   1 -20  -2    2.22    0.27
   1  20  -2    2.16    0.29
  -1  20   2    2.71    0.36
   0 -20   2    1.76    0.26
   0 -20  -2    1.47    0.24
   0 -20  -2    1.50    0.26
   0 -20   2    1.48    0.27
   0  20   2    1.59    0.32
   0  20  -2    1.83    0.28
   1 -20   2    0.64    0.18
  -1 -20  -2    0.20    0.16
   1 -20   2    0.20    0.17
   1 -20   2    0.38    0.14
   1  20   2    0.62    0.22
  -1  20  -2    0.25    0.17
   2 -20   2    0.77    0.21
  -2 -20  -2    0.65    0.21
   2 -20   2    0.72    0.21
   2 -20   2    0.84    0.19
  -2  20  -2    0.72    0.21
   2  20   2    0.97    0.24
  -2 -21   2    1.53    0.29
   2 -21  -2    1.62    0.26
   2  21  -2    0.87    0.21
  -2  21   2    0.88    0.22
  -2  21   2    0.58    0.21
  -1 -21   2    2.27    0.32
   1 -21  -2    2.51    0.29
   1  21  -2    1.73    0.27
  -1  21   2    2.73    0.38
   0 -21   2    0.17    0.14
   0 -21  -2    0.02    0.13
   0 -21   2    0.21    0.16
   0  21  -2   -0.06    0.14
   0  21   2    0.42    0.22
  -8   0   3   -0.26    0.16
   8   0  -3   -0.15    0.10
   8   0  -3    0.02    0.07
   8   0  -3   -0.04    0.13
   7   0  -3   18.17    0.88
   7   0  -3   18.54    0.79
  -7   0   3   17.26    0.84
   7   0  -3   17.50    0.67
   6   0  -3   -0.01    0.06
   6   0  -3    0.00    0.10
  -6   0   3    0.04    0.14
   6   0  -3   -0.02    0.09
  -5   0   3   23.27    0.90
   5   0  -3   21.64    0.84
  -5   0   3   22.55    0.76
   5   0  -3   21.48    0.89
   5   0  -3   21.32    0.76
   4   0  -3   -0.08    0.06
  -4   0   3   -0.08    0.08
   4   0  -3   -0.02    0.05
   4   0  -3   -0.06    0.04
  -4   0   3   -0.08    0.04
   4   0  -3   -0.08    0.06
   3   0  -3   71.86    2.28
  -3   0   3   72.20    2.20
   3   0  -3   71.57    2.21
  -3   0   3   72.07    2.28
   3   0  -3   71.76    2.19
   3   0  -3   70.98    2.25
  -3   0   3   69.41    2.17
   2   0  -3   -0.02    0.04
  -2   0   3    0.00    0.07
  -2   0   3    0.01    0.04
  -2   0   3    0.05    0.06
   2   0  -3    0.04    0.04
   2   0  -3   -0.02    0.04
  -2   0   3   -0.03    0.03
   1   0  -3  166.68    4.71
   1   0  -3  152.44    4.71
  -1   0   3  157.42    4.70
  -1   0   3  137.75    4.69
   1   0  -3  156.92    4.70
  -1   0   3  157.70    4.70
  -1   0   3  159.86    4.75
   0   0  -3   -0.18    0.04
   0   0  -3   -0.17    0.04
   0   0   3   -0.12    0.05
   0   0   3   -0.12    0.06
   0   0  -3   -0.19    0.03
   0   0   3   -0.17    0.04
   0   0   3   -0.17    0.03
   1   0   3  310.56    9.40
   1   0   3  303.55    9.23
  -1   0  -3  321.05    9.26
   1   0   3  305.96    9.30
  -1   0  -3  303.01    9.27
   1   0   3  310.93    9.23
   1   0   3  301.89    9.32
   2   0   3   -0.05    0.06
   2   0   3    0.04    0.04
  -2   0  -3   -0.02    0.06
  -2   0  -3   -0.05    0.03
   2   0   3    0.10    0.08
   2   0   3    0.00    0.04
   2   0   3    0.00    0.05
   3   0   3   93.22    2.89
   3   0   3   93.55    3.07
   3   0   3   94.63    3.03
   3   0   3   94.10    2.98
  -3   0  -3   97.60    2.96
   4   0   3   -0.05    0.07
  -4   0  -3    0.14    0.09
   4   0   3   -0.03    0.11
  -4   0  -3    0.02    0.10
   5   0   3    5.66    0.25
  -5   0  -3    4.88    0.38
  -5   0  -3    5.19    0.33
   5   0   3    6.01    0.44
  -6   0  -3   -0.10    0.12
   6   0   3    0.09    0.15
   6   0   3    0.15    0.07
  -8  -1   3   -0.03    0.18
   8  -1  -3    0.07    0.12
   8  -1  -3   -0.05    0.06
   8  -1  -3    0.05    0.14
   8   1  -3   -0.06    0.10
   8   1  -3    0.04    0.15
  -8   1   3    0.14    0.19
   8   1  -3    0.00    0.07
   7  -1  -3   -0.05    0.11
   7  -1  -3    0.04    0.10
   7  -1  -3    0.01    0.06
  -7  -1   3   -0.14    0.14
  -7   1   3    0.06    0.16
   7   1  -3    0.08    0.14
   7   1  -3   -0.11    0.10
   7   1  -3    0.04    0.07
   6  -1  -3    2.35    0.17
  -6  -1   3    2.29    0.29
   6  -1  -3    2.24    0.26
   6  -1  -3    2.57    0.24
   6   1  -3    2.30    0.23
  -6   1   3    2.41    0.29
   6   1  -3    2.45    0.18
   6   1  -3    2.26    0.26
   5  -1  -3   15.67    0.70
   5  -1  -3   15.67    0.64
  -5  -1   3   15.41    0.57
  -5  -1   3   16.05    0.70
   5  -1  -3   15.59    0.54
   5  -1  -3   15.82    0.56
  -5   1   3   15.33    0.67
   5   1  -3   14.36    0.63
   5   1  -3   14.86    0.57
   5   1  -3   15.31    0.69
   4  -1  -3   33.62    1.09
   4  -1  -3   33.92    1.21
   4  -1  -3   34.67    1.11
   4  -1  -3   33.62    1.17
  -4  -1   3   34.56    1.21
  -4  -1   3   33.92    1.10
  -4   1   3   33.65    1.06
   4   1  -3   33.59    1.11
   4   1  -3   34.28    1.07
  -4   1   3   36.50    1.21
   4   1  -3   33.26    1.16
   4   1  -3   33.03    1.20
   3  -1  -3   21.00    0.75
  -3  -1   3   21.27    0.76
  -3  -1   3   19.44    0.67
   3  -1  -3   20.12    0.72
   3  -1  -3   20.13    0.68
  -3  -1   3   19.87    0.66
   3  -1  -3   20.73    0.67
   3   1  -3   19.79    0.73
   3   1  -3   19.60    0.72
  -3   1   3   19.72    0.63
  -3   1   3   19.75    0.74
   3   1  -3   20.10    0.68
   3   1  -3   19.55    0.65
   2  -1  -3   37.01    1.18
  -2  -1   3   36.05    1.16
  -2  -1   3   36.49    1.22
   2  -1  -3   35.51    1.16
   2  -1  -3   35.58    1.16
  -2  -1   3   36.30    1.15
  -2   1   3   37.11    1.21
   2   1  -3   36.94    1.15
   2   1  -3   37.28    1.19
  -2   1   3   36.26    1.13
  -2   1   3   36.29    1.16
   2   1  -3   36.25    1.17
  -2   1   3   38.84    1.21
   2   1  -3   36.29    1.18
  -1  -1   3    5.32    0.26
  -1  -1   3    5.05    0.23
  -1  -1   3    5.38    0.23
   1  -1  -3    5.24    0.24
   1  -1  -3    5.46    0.23
   1  -1  -3    5.65    0.23
  -1   1   3    5.59    0.27
  -1   1   3    5.50    0.24
  -1   1   3    5.46    0.22
  -1   1   3    5.24    0.23
   1   1  -3    5.20    0.22
   1   1  -3    4.95    0.23
   1   1  -3    5.41    0.24
   0  -1  -3    1.12    0.11
   0  -1  -3    1.27    0.09
   0  -1  -3    1.33    0.10
   0  -1   3    1.23    0.12
   0  -1   3    1.24    0.13
   0  -1   3    1.09    0.10
   0  -1   3    1.16    0.07
   0   1  -3    1.14    0.09
   0   1   3    1.07    0.10
   0   1   3    1.16    0.10
   0   1   3    1.22    0.12
   0   1  -3    1.27    0.12
   0   1   3    1.49    0.14
   0   1  -3    1.20    0.10
   1  -1   3  164.28    4.96
  -1  -1  -3  164.56    4.93
   1  -1   3  160.91    4.98
  -1  -1  -3  167.31    4.87
   1  -1   3  156.21    4.89
   1  -1   3  157.38    4.88
   1  -1   3  156.58    4.89
  -1   1  -3  168.81    4.94
   1   1   3  167.98    4.99
  -1   1  -3  163.69    4.90
   1   1   3  159.09    4.90
   1   1   3  162.88    4.91
   1   1   3  158.72    4.95
   1   1   3  162.25    4.90
   2  -1   3    6.00    0.25
   2  -1   3    5.74    0.24
   2  -1   3    6.20    0.34
   2  -1   3    5.54    0.32
  -2  -1  -3    6.05    0.29
   2  -1   3    6.19    0.27
   2   1   3    5.85    0.32
   2   1   3    6.38    0.30
   2   1   3    6.13    0.25
   2   1   3    6.07    0.35
  -2   1  -3    6.62    0.27
  -2   1  -3    5.89    0.29
   2   1   3    5.71    0.25
   3  -1   3   15.77    0.55
  -3  -1  -3   15.82    0.68
  -3  -1  -3   16.42    0.62
   3  -1   3   15.86    0.68
   3  -1   3   16.14    0.70
   3  -1   3   16.21    0.63
   3   1   3   16.25    0.57
   3   1   3   16.28    0.68
   3   1   3   16.55    0.65
   3   1   3   15.29    0.70
  -3   1  -3   16.58    0.63
  -3   1  -3   17.16    0.59
   4  -1   3    9.03    0.49
   4  -1   3    8.72    0.45
  -4  -1  -3    9.30    0.42
  -4  -1  -3    8.69    0.48
   4  -1   3    9.47    0.52
   4  -1   3    9.00    0.35
   4   1   3    8.90    0.46
   4   1   3    9.68    0.54
  -4   1  -3    9.20    0.43
   4   1   3    9.01    0.36
   5  -1   3    1.21    0.11
  -5  -1  -3    1.32    0.21
  -5  -1  -3    1.60    0.24
   5  -1   3    1.23    0.24
   5   1   3    1.47    0.13
   5   1   3    1.26    0.21
  -5   1  -3    1.37    0.23
   5   1   3    1.43    0.24
  -5   1  -3    1.27    0.19
   6  -1   3    2.86    0.18
   6  -1   3    3.36    0.38
  -6  -1  -3    2.52    0.33
   6   1   3    2.91    0.20
   6   1   3    2.95    0.37
  -6   1  -3    3.25    0.35
   8  -2  -3    0.42    0.10
   8  -2  -3    0.47    0.18
  -8  -2   3    0.54    0.23
   8  -2  -3    0.28    0.15
   8   2  -3    0.33    0.11
   8   2  -3    0.57    0.22
  -8   2   3    0.33    0.20
   8   2  -3    0.22    0.13
  -7  -2   3    1.24    0.28
   7  -2  -3    1.14    0.14
   7  -2  -3    0.96    0.18
   7  -2  -3    1.10    0.24
   7   2  -3    0.95    0.15
   7   2  -3    0.75    0.20
  -7   2   3    1.30    0.25
   7   2  -3    0.99    0.19
   6  -2  -3    2.68    0.18
   6  -2  -3    2.56    0.24
  -6  -2   3    3.12    0.32
   6  -2  -3    2.93    0.30
   6   2  -3    2.65    0.24
   6   2  -3    2.67    0.29
   6   2  -3    2.63    0.19
  -6   2   3    2.63    0.29
   5  -2  -3    1.04    0.19
  -5  -2   3    1.48    0.23
  -5  -2   3    1.34    0.15
   5  -2  -3    1.40    0.13
   5  -2  -3    1.34    0.18
   5  -2  -3    1.46    0.13
  -5   2   3    1.77    0.23
   5   2  -3    1.11    0.19
   5   2  -3    1.44    0.17
   5   2  -3    1.37    0.14
  -4  -2   3    9.26    0.38
   4  -2  -3    8.99    0.45
   4  -2  -3    9.16    0.42
  -4  -2   3   10.24    0.48
   4  -2  -3    9.42    0.37
   4  -2  -3    9.53    0.37
   4   2  -3    9.78    0.45
  -4   2   3    9.59    0.45
  -4   2   3    9.26    0.31
   4   2  -3    9.53    0.32
   4   2  -3    9.02    0.38
   4   2  -3    9.43    0.42
  -3  -2   3    0.31    0.07
  -3  -2   3    0.30    0.06
   3  -2  -3    0.34    0.07
   3  -2  -3    0.36    0.07
  -3  -2   3    0.36    0.11
   3  -2  -3    0.27    0.08
   3   2  -3    0.39    0.05
  -3   2   3    0.41    0.11
  -3   2   3    0.12    0.08
   3   2  -3    0.42    0.08
   3   2  -3    0.40    0.09
   3   2  -3    0.45    0.09
   2  -2  -3    2.56    0.15
  -2  -2   3    2.70    0.20
   2  -2  -3    2.63    0.16
  -2  -2   3    2.53    0.15
   2  -2  -3    2.32    0.14
  -2   2   3    2.71    0.19
   2   2  -3    2.33    0.16
  -2   2   3    2.51    0.18
   2   2  -3    2.40    0.15
  -2   2   3    2.40    0.14
  -2   2   3    2.45    0.11
   2   2  -3    2.59    0.16
   2   2  -3    2.51    0.13
  -1  -2   3   23.80    0.80
  -1  -2   3   21.57    0.73
  -1  -2   3   22.31    0.76
  -1  -2   3   22.71    0.77
   1  -2  -3   23.06    0.77
   1  -2  -3   23.00    0.76
   1  -2  -3   22.09    0.75
  -1   2   3   23.89    0.76
  -1   2   3   23.99    0.81
   1   2  -3   23.14    0.76
   1   2  -3   23.04    0.78
  -1   2   3   23.30    0.75
   1   2  -3   23.39    0.76
  -1   2   3   23.24    0.78
   0  -2  -3    1.19    0.10
   0  -2  -3    1.20    0.08
   0  -2   3    1.25    0.13
   0  -2   3    1.31    0.13
   0  -2  -3    1.27    0.12
   0  -2   3    1.46    0.11
   0   2   3    1.43    0.14
   0   2   3    1.30    0.12
   0   2  -3    1.32    0.11
   0   2   3    1.33    0.11
   0   2  -3    1.18    0.12
   0   2   3    1.17    0.10
   1  -2   3   11.83    0.50
  -1  -2  -3   13.04    0.47
   1  -2   3   11.97    0.43
  -1  -2  -3   11.89    0.39
   1  -2   3   11.86    0.49
   1  -2   3   12.46    0.41
   1  -2   3   12.42    0.43
  -1   2  -3   12.36    0.45
   1   2   3   12.45    0.52
   1   2   3   12.49    0.47
   1   2   3   12.11    0.44
  -1   2  -3   12.93    0.47
   1   2   3   11.72    0.48
   1   2   3   12.25    0.44
   2  -2   3    0.10    0.04
   2  -2   3    0.07    0.05
   2  -2   3    0.12    0.08
  -2  -2  -3    0.11    0.03
   2  -2   3   -0.04    0.06
   2  -2   3    0.12    0.04
  -2  -2  -3    0.12    0.08
  -2  -2  -3    0.06    0.07
  -2   2  -3    0.04    0.07
   2   2   3    0.01    0.04
  -2   2  -3    0.16    0.06
   2   2   3    0.10    0.05
   2   2   3    0.04    0.07
   2   2   3    0.09    0.08
   2   2   3    0.06    0.06
   3  -2   3    2.11    0.22
   3  -2   3    1.80    0.16
  -3  -2  -3    2.12    0.18
   3  -2   3    1.96    0.12
   3  -2   3    1.72    0.21
  -3  -2  -3    1.75    0.21
  -3   2  -3    2.21    0.18
  -3   2  -3    2.02    0.16
   3   2   3    1.99    0.23
   3   2   3    2.02    0.14
   3   2   3    1.73    0.18
   4  -2   3    0.35    0.14
  -4  -2  -3    0.43    0.15
   4  -2   3    0.40    0.14
   4  -2   3    0.39    0.07
  -4  -2  -3    0.35    0.11
   4   2   3    0.47    0.15
   4   2   3    0.28    0.07
  -4   2  -3    0.53    0.12
   4   2   3    0.43    0.12
   5  -2   3    0.93    0.21
  -5  -2  -3    1.47    0.24
   5  -2   3    1.23    0.11
   5   2   3    1.14    0.21
  -5   2  -3    1.26    0.23
   5   2   3    1.17    0.13
   5   2   3    1.23    0.23
  -5   2  -3    1.28    0.19
  -6  -2  -3    0.05    0.15
   6  -2   3   -0.06    0.05
   6  -2   3    0.01    0.14
  -6   2  -3   -0.10    0.13
   6   2   3   -0.03    0.13
   6   2   3   -0.07    0.05
   8  -3  -3    0.52    0.11
  -8  -3   3    0.52    0.24
   8  -3  -3    0.37    0.16
  -8   3   3    0.59    0.22
   8   3  -3    0.40    0.15
   8   3  -3    0.39    0.11
   8   3  -3    0.81    0.24
  -8   3   3    0.31    0.20
  -7  -3   3   12.65    0.70
   7  -3  -3   11.74    0.62
   7  -3  -3   12.77    0.50
   7  -3  -3   12.43    0.70
   7   3  -3   12.31    0.53
  -7   3   3   13.68    0.68
   7   3  -3   12.61    0.70
  -7   3   3   11.56    0.68
   7   3  -3   12.44    0.60
   6  -3  -3   -0.10    0.10
  -6  -3   3   -0.13    0.10
   6  -3  -3    0.02    0.09
   6  -3  -3    0.07    0.06
   6   3  -3   -0.02    0.08
  -6   3   3    0.03    0.12
   6   3  -3   -0.05    0.06
   6   3  -3    0.08    0.11
  -6   3   3   -0.02    0.12
   5  -3  -3   15.92    0.68
  -5  -3   3   16.66    0.74
  -5  -3   3   17.00    0.64
   5  -3  -3   17.46    0.62
   5  -3  -3   15.90    0.60
   5  -3  -3   15.64    0.73
   5   3  -3   17.28    0.68
  -5   3   3   17.73    0.76
   5   3  -3   16.17    0.73
  -5   3   3   17.89    0.72
   5   3  -3   16.38    0.62
   4  -3  -3    1.61    0.13
   4  -3  -3    1.83    0.14
   4  -3  -3    1.53    0.16
  -4  -3   3    1.82    0.15
  -4  -3   3    1.85    0.21
  -4   3   3    1.32    0.20
   4   3  -3    1.60    0.18
  -4   3   3    1.96    0.20
   4   3  -3    1.46    0.15
   4   3  -3    1.63    0.14
  -3  -3   3   33.81    1.22
  -3  -3   3   34.31    1.15
   3  -3  -3   35.45    1.15
   3  -3  -3   36.08    1.19
  -3  -3   3   35.01    1.16
   3  -3  -3   35.52    1.15
   3   3  -3   34.82    1.10
   3   3  -3   35.60    1.16
  -3   3   3   37.69    1.21
   3   3  -3   36.24    1.20
  -3   3   3   37.16    1.24
   3   3  -3   35.88    1.19
   2  -3  -3    1.33    0.11
  -2  -3   3    1.19    0.11
   2  -3  -3    0.93    0.06
   2  -3  -3    1.15    0.11
   2  -3  -3    0.98    0.11
  -2  -3   3    1.13    0.11
  -2  -3   3    0.78    0.13
  -2   3   3    1.00    0.10
   2   3  -3    1.24    0.11
  -2   3   3    0.71    0.13
  -2   3   3    1.12    0.14
   2   3  -3    0.95    0.09
   2   3  -3    1.15    0.11
   2   3  -3    0.98    0.12
  -1  -3   3   20.39    0.71
   1  -3  -3   20.34    0.70
   1  -3  -3   21.02    0.69
  -1  -3   3   20.49    0.73
  -1  -3   3   20.50    0.70
   1  -3  -3   20.76    0.70
   1  -3  -3   20.96    0.69
   1   3  -3   20.49    0.69
  -1   3   3   20.47    0.74
   1   3  -3   19.91    0.69
   1   3  -3   21.46    0.66
  -1   3   3   20.89    0.73
   1   3  -3   20.82    0.71
   0  -3   3    5.09    0.25
   0  -3  -3    4.80    0.21
   0  -3   3    4.70    0.25
   0  -3  -3    4.59    0.18
   0  -3  -3    5.40    0.24
   0  -3  -3    5.03    0.24
   0  -3   3    4.83    0.22
   0   3  -3    4.75    0.23
   0   3   3    4.46    0.22
   0   3   3    4.90    0.23
   0   3   3    4.58    0.24
   0   3   3    4.68    0.26
   0   3  -3    4.93    0.23
   1  -3   3    1.09    0.14
   1  -3   3    1.15    0.13
   1  -3   3    0.97    0.09
  -1  -3  -3    1.32    0.13
  -1  -3  -3    1.18    0.14
   1  -3   3    1.18    0.09
  -1   3  -3    1.23    0.12
   1   3   3    1.12    0.12
  -1   3  -3    1.39    0.14
   1   3   3    1.16    0.14
   2  -3   3    5.38    0.31
   2  -3   3    5.32    0.23
   2  -3   3    5.65    0.25
   2  -3   3    5.67    0.32
   2  -3   3    5.71    0.24
  -2  -3  -3    6.22    0.29
  -2  -3  -3    5.47    0.31
  -2   3  -3    6.60    0.29
   2   3   3    5.43    0.30
   2   3   3    5.72    0.34
  -2   3  -3    5.89    0.29
   2   3   3    5.74    0.26
   3  -3   3    5.30    0.22
   3  -3   3    5.38    0.33
  -3  -3  -3    4.89    0.32
  -3  -3  -3    5.55    0.28
   3  -3   3    5.19    0.27
   3  -3   3    4.88    0.33
  -3   3  -3    5.12    0.28
  -3   3  -3    5.42    0.29
   3   3   3    5.33    0.36
   3   3   3    4.86    0.24
   3   3   3    5.05    0.31
  -4  -3  -3    0.22    0.09
  -4  -3  -3    0.31    0.13
   4  -3   3    0.54    0.15
   4  -3   3    0.39    0.06
   4  -3   3    0.33    0.14
   4   3   3    0.36    0.13
   4   3   3    0.46    0.16
   4   3   3    0.56    0.09
  -4   3  -3    0.41    0.12
   5  -3   3    1.35    0.11
   5  -3   3    1.68    0.26
  -5  -3  -3    1.46    0.25
   5  -3   3    1.19    0.22
   5   3   3    1.68    0.27
  -5   3  -3    1.72    0.21
   5   3   3    1.34    0.14
   5   3   3    1.29    0.22
  -6  -3  -3    0.11    0.15
   6  -3   3    0.12    0.15
   6  -3   3    0.04    0.05
   6   3   3    0.03    0.15
  -6   3  -3    0.03    0.14
   6   3   3    0.01    0.07
   8  -4  -3    0.73    0.20
  -8  -4   3    0.79    0.25
   8  -4  -3    1.12    0.14
  -8   4   3    0.59    0.23
   8   4  -3    0.97    0.25
   8   4  -3    1.36    0.19
  -8   4   3    0.86    0.23
  -7  -4   3    0.31    0.20
   7  -4  -3    0.23    0.08
   7  -4  -3    0.28    0.13
   7   4  -3    0.39    0.17
   7   4  -3    0.53    0.12
  -7   4   3    0.76    0.20
  -7   4   3    0.30    0.19
   7   4  -3    0.28    0.12
  -6  -4   3    4.61    0.39
   6  -4  -3    4.55    0.33
  -6  -4   3    4.49    0.29
   6  -4  -3    4.49    0.23
  -6   4   3    3.71    0.34
   6   4  -3    4.48    0.36
  -6   4   3    4.38    0.34
   6   4  -3    4.05    0.29
   6   4  -3    4.35    0.26
   5  -4  -3    9.98    0.39
  -5  -4   3   10.18    0.44
   5  -4  -3    9.84    0.42
   5  -4  -3   10.07    0.48
  -5  -4   3    8.27    0.50
   5   4  -3   10.23    0.47
   5   4  -3    9.76    0.51
   5   4  -3    9.93    0.42
  -5   4   3   10.54    0.50
  -5   4   3    9.81    0.53
   4  -4  -3    1.43    0.14
  -4  -4   3    1.43    0.15
   4  -4  -3    1.37    0.12
   4  -4  -3    1.35    0.16
  -4  -4   3    1.49    0.20
   4   4  -3    1.41    0.14
  -4   4   3    1.45    0.17
   4   4  -3    1.41    0.15
   4   4  -3    1.18    0.16
  -4   4   3    1.19    0.17
  -3  -4   3   53.02    1.65
   3  -4  -3   53.93    1.65
  -3  -4   3   52.65    1.67
   3  -4  -3   54.44    1.70
   3  -4  -3   53.06    1.66
  -3  -4   3   52.86    1.73
  -3   4   3   55.17    1.71
  -3   4   3   44.12    1.71
   3   4  -3   52.44    1.70
   3   4  -3   52.75    1.66
   3   4  -3   50.76    1.69
   2  -4  -3    1.47    0.12
  -2  -4   3    1.27    0.15
  -2  -4   3    1.40    0.13
   2  -4  -3    1.53    0.12
   2  -4  -3    1.21    0.07
   2  -4  -3    1.27    0.12
  -2  -4   3    1.33    0.12
   2   4  -3    1.29    0.11
   2   4  -3    1.40    0.12
   2   4  -3    1.15    0.09
  -2   4   3    1.50    0.16
  -2   4   3    1.42    0.14
   2   4  -3    1.52    0.13
  -2   4   3    1.39    0.11
  -1  -4   3   24.79    0.82
   1  -4  -3   23.85    0.81
  -1  -4   3   24.35    0.84
  -1  -4   3   24.77    0.84
   1  -4  -3   24.75    0.82
   1  -4  -3   24.11    0.80
   1  -4  -3   22.52    0.79
  -1   4   3   25.26    0.86
   1   4  -3   24.28    0.83
   1   4  -3   25.00    0.77
   1   4  -3   23.55    0.80
  -1   4   3   24.48    0.85
   1   4  -3   25.27    0.81
  -1   4   3   25.03    0.81
   0  -4  -3    0.25    0.07
   0  -4  -3    0.43    0.08
   0  -4   3    0.39    0.08
   0  -4  -3    0.33    0.06
   0  -4   3    0.31    0.06
   0  -4  -3    0.29    0.05
   0  -4   3    0.35    0.08
   0   4   3    0.32    0.08
   0   4   3    0.37    0.09
   0   4   3    0.53    0.08
   0   4  -3    0.38    0.08
   0   4  -3    0.39    0.08
  -1  -4  -3   15.29    0.55
   1  -4   3   14.75    0.51
  -1  -4  -3   14.95    0.58
   1  -4   3   15.04    0.57
   1  -4   3   14.10    0.58
   1  -4   3   14.97    0.51
  -1   4  -3   14.94    0.55
   1   4   3   14.71    0.57
   1   4   3   14.48    0.53
  -1   4  -3   14.88    0.56
   1   4   3   14.91    0.60
  -2  -4  -3    0.01    0.06
   2  -4   3   -0.04    0.03
   2  -4   3   -0.01    0.07
   2  -4   3   -0.01    0.04
   2  -4   3    0.05    0.07
  -2  -4  -3    0.06    0.08
   2   4   3    0.05    0.05
  -2   4  -3    0.12    0.08
  -2   4  -3   -0.01    0.05
  -2   4  -3   -0.06    0.06
   2   4   3   -0.06    0.08
   2   4   3    0.01    0.07
   3  -4   3    8.98    0.46
  -3  -4  -3    9.70    0.40
  -3  -4  -3    8.72    0.45
   3  -4   3    9.02    0.34
   3  -4   3    8.25    0.45
   3   4   3    8.88    0.49
   3   4   3    8.76    0.37
  -3   4  -3    9.28    0.41
   3   4   3    8.96    0.45
  -3   4  -3    9.19    0.42
   4  -4   3    0.21    0.12
  -4  -4  -3    0.09    0.08
   4  -4   3    0.12    0.05
   4  -4   3    0.31    0.13
  -4  -4  -3    0.25    0.14
   4   4   3    0.13    0.12
   4   4   3    0.16    0.07
  -4   4  -3    0.35    0.11
   4   4   3    0.16    0.11
  -4   4  -3    0.28    0.11
   5  -4   3    0.59    0.19
   5  -4   3    0.73    0.19
  -5  -4  -3    0.74    0.19
   5  -4   3    0.54    0.08
  -5   4  -3    0.50    0.14
   5   4   3    0.61    0.19
   5   4   3    0.50    0.17
   5   4   3    0.66    0.11
   6  -4   3   -0.06    0.04
   6  -4   3    0.02    0.14
  -6  -4  -3    0.27    0.16
   6   4   3    0.19    0.17
   6   4   3    0.23    0.09
  -6   4  -3    0.03    0.12
   8  -5  -3    0.22    0.09
   8  -5  -3    0.17    0.16
  -8  -5   3   -0.06    0.19
   8   5  -3    0.43    0.21
  -8   5   3    0.13    0.18
  -8   5   3    0.32    0.19
   8   5  -3    0.54    0.14
   7  -5  -3    3.92    0.23
  -7  -5   3    4.03    0.40
   7  -5  -3    4.42    0.36
   7   5  -3    3.63    0.31
  -7   5   3    4.12    0.36
   7   5  -3    3.89    0.27
  -7   5   3    3.51    0.36
   7   5  -3    4.48    0.41
   6  -5  -3    4.48    0.24
   6  -5  -3    4.40    0.27
  -6  -5   3    4.35    0.30
  -6  -5   3    4.39    0.37
   6  -5  -3    4.48    0.33
   6   5  -3    4.55    0.31
   6   5  -3    4.81    0.38
  -6   5   3    4.04    0.33
   6   5  -3    4.78    0.28
  -6   5   3    4.42    0.37
   5  -5  -3   23.12    0.90
  -5  -5   3   23.97    0.86
   5  -5  -3   22.97    0.83
   5  -5  -3   22.57    0.79
  -5  -5   3   24.04    0.96
  -5   5   3   22.97    0.94
   5   5  -3   23.11    0.93
  -5   5   3   22.14    0.88
   5   5  -3   22.94    0.83
   5   5  -3   22.96    0.87
  -4  -5   3   42.71    1.61
   4  -5  -3   47.57    1.50
   4  -5  -3   47.77    1.58
   4  -5  -3   48.67    1.54
  -4  -5   3   47.31    1.55
  -4   5   3   49.98    1.57
  -4   5   3   46.38    1.62
   4   5  -3   46.85    1.56
   4   5  -3   46.92    1.53
   4   5  -3   45.97    1.60
  -3  -5   3   10.84    0.46
   3  -5  -3   11.63    0.48
  -3  -5   3   11.60    0.44
   3  -5  -3   11.52    0.44
   3  -5  -3   10.84    0.45
  -3  -5   3   11.86    0.51
   3   5  -3   12.01    0.45
   3   5  -3   12.11    0.48
   3   5  -3   11.50    0.39
  -3   5   3   11.52    0.52
   3   5  -3   11.96    0.49
  -3   5   3   11.70    0.47
  -2  -5   3   60.27    1.91
  -2  -5   3   58.62    1.88
   2  -5  -3   56.80    1.82
  -2  -5   3   58.95    1.92
   2  -5  -3   59.33    1.88
   2  -5  -3   58.60    1.89
   2  -5  -3   60.03    1.89
  -2   5   3   61.80    1.87
  -2   5   3   61.63    1.95
   2   5  -3   61.90    1.88
   2   5  -3   61.61    1.92
   2   5  -3   60.61    1.89
   2   5  -3   58.49    1.85
  -2   5   3   60.70    1.91
  -1  -5   3   59.82    1.92
   1  -5  -3   62.44    1.90
   1  -5  -3   61.69    1.88
  -1  -5   3   59.50    1.88
   1  -5  -3   60.31    1.87
  -1  -5   3   59.26    1.91
  -1   5   3   59.66    1.91
  -1   5   3   60.30    1.94
   1   5  -3   60.57    1.91
   1   5  -3   60.97    1.85
   1   5  -3   58.93    1.87
  -1   5   3   61.30    1.88
   1   5  -3   58.70    1.88
   0  -5   3   43.82    1.43
   0  -5   3   44.86    1.46
   0  -5   3   43.99    1.41
   0  -5  -3   43.60    1.41
   0  -5  -3   45.04    1.43
   0  -5  -3   45.77    1.44
   0  -5  -3   43.72    1.36
   0   5   3   44.34    1.41
   0   5  -3   47.49    1.45
   0   5   3   44.37    1.46
   0   5  -3   42.70    1.42
   0   5   3   42.54    1.46
  -1  -5  -3    3.41    0.20
  -1  -5  -3    3.10    0.18
   1  -5   3    3.46    0.18
  -1  -5  -3    3.30    0.23
   1  -5   3    3.30    0.17
   1  -5   3    3.11    0.22
   1  -5   3    3.52    0.21
  -1   5  -3    3.70    0.21
   1   5   3    3.47    0.19
  -1   5  -3    3.50    0.22
   1   5   3    3.20    0.23
   1   5   3    3.15    0.22
   2  -5   3   72.80    2.32
   2  -5   3   71.55    2.22
   2  -5   3   72.09    2.33
  -2  -5  -3   75.31    2.27
  -2  -5  -3   70.65    2.34
   2  -5   3   70.96    2.22
  -2   5  -3   71.27    2.29
  -2   5  -3   75.00    2.30
   2   5   3   70.66    2.25
   2   5   3   71.19    2.33
   2   5   3   71.79    2.37
   3  -5   3    1.00    0.18
  -3  -5  -3    1.24    0.15
   3  -5   3    1.11    0.17
   3  -5   3    1.00    0.10
  -3  -5  -3    0.66    0.15
  -3   5  -3    0.79    0.14
   3   5   3    0.87    0.12
   3   5   3    1.04    0.17
   3   5   3    1.05    0.20
  -3   5  -3    1.01    0.16
  -4  -5  -3   19.92    0.74
   4  -5   3   19.31    0.84
   4  -5   3   19.55    0.84
  -4  -5  -3   20.77    0.86
   4  -5   3   19.42    0.66
  -4   5  -3   20.12    0.78
   4   5   3   20.16    0.85
   4   5   3   19.23    0.90
   4   5   3   20.20    0.73
  -4   5  -3   20.83    0.79
  -5  -5  -3    9.21    0.55
   5  -5   3   10.15    0.56
   5  -5   3    8.63    0.54
   5  -5   3    9.30    0.35
  -5   5  -3    9.29    0.47
   5   5   3    8.87    0.59
   5   5   3    9.52    0.43
   5   5   3    9.84    0.56
  -6  -5  -3    0.53    0.18
   6   5   3    0.14    0.09
   6   5   3    0.14    0.15
  -6   5  -3    0.06    0.15
   6   5   3    0.13    0.18
  -6   5  -3    0.21    0.14
   8  -6  -3    0.15    0.08
  -8  -6   3   -0.24    0.17
   8  -6  -3    0.11    0.15
  -8   6   3   -0.11    0.16
   8   6  -3   -0.02    0.16
   8   6  -3   -0.09    0.09
  -7  -6   3   11.39    0.68
   7  -6  -3   13.09    0.50
   7  -6  -3   13.56    0.66
   7   6  -3   12.96    0.60
   7   6  -3   12.15    0.71
  -7   6   3   12.30    0.69
  -7   6   3   11.20    0.62
   7   6  -3   12.46    0.56
   6  -6  -3    0.64    0.16
   6  -6  -3    0.67    0.11
   6  -6  -3    0.49    0.12
  -6  -6   3    0.84    0.16
  -6  -6   3    0.65    0.19
  -6   6   3    0.76    0.20
  -6   6   3    0.84    0.18
   6   6  -3    0.90    0.15
   6   6  -3    0.54    0.17
   6   6  -3    0.82    0.16
   5  -6  -3   50.93    1.73
  -5  -6   3   49.84    1.78
   5  -6  -3   50.09    1.61
   5  -6  -3   49.83    1.66
  -5  -6   3   52.03    1.69
  -5   6   3   48.81    1.76
  -5   6   3   52.91    1.71
   5   6  -3   50.60    1.77
   5   6  -3   48.25    1.65
   5   6  -3   50.32    1.69
   4  -6  -3    4.79    0.24
  -4  -6   3    5.19    0.29
   4  -6  -3    4.96    0.30
   4  -6  -3    4.97    0.28
  -4  -6   3    4.69    0.33
   4   6  -3    4.86    0.32
  -4   6   3    4.62    0.33
  -4   6   3    5.10    0.30
   4   6  -3    5.22    0.27
   4   6  -3    4.97    0.29
   3  -6  -3   88.49    2.70
  -3  -6   3   74.74    2.76
  -3  -6   3   89.14    2.71
   3  -6  -3   88.96    2.75
   3  -6  -3   84.82    2.72
  -3  -6   3   88.71    2.75
   3   6  -3   89.71    2.64
   3   6  -3   89.92    2.76
   3   6  -3   89.92    2.72
  -3   6   3   83.38    2.80
  -3   6   3   90.21    2.73
   3   6  -3   87.55    2.74
  -2  -6   3    8.14    0.35
  -2  -6   3    8.47    0.38
  -2  -6   3    8.72    0.39
   2  -6  -3    8.64    0.36
   2  -6  -3    8.32    0.36
   2  -6  -3    8.17    0.30
   2  -6  -3    8.44    0.34
  -2   6   3    7.68    0.39
   2   6  -3    8.68    0.32
  -2   6   3    8.38    0.33
   2   6  -3    8.50    0.35
   2   6  -3    8.22    0.37
   2   6  -3    8.31    0.35
  -2   6   3    8.47    0.36
   1  -6  -3  104.58    3.19
   1  -6  -3  105.98    3.22
   1  -6  -3  104.01    3.20
  -1  -6   3  104.96    3.23
  -1  -6   3  106.59    3.25
  -1  -6   3  103.43    3.21
   1  -6  -3  104.52    3.21
  -1   6   3  105.65    3.20
   1   6  -3  103.82    3.20
  -1   6   3  102.22    3.27
   1   6  -3  103.82    3.17
  -1   6   3  103.54    3.23
   1   6  -3  104.32    3.19
   1   6  -3  104.27    3.24
   0  -6   3    8.70    0.37
   0  -6  -3    8.69    0.31
   0  -6  -3    8.59    0.36
   0  -6  -3    8.80    0.36
   0  -6   3    9.12    0.39
   0  -6   3    8.45    0.36
   0  -6   3    8.79    0.35
   0  -6  -3    7.78    0.37
   0   6  -3    8.75    0.39
   0   6   3    9.16    0.41
   0   6   3    8.26    0.35
   0   6  -3    8.65    0.29
   0   6   3    9.50    0.40
  -1  -6  -3   32.07    1.09
   1  -6   3   33.03    1.15
   1  -6   3   32.95    1.12
  -1  -6  -3   33.74    1.15
   1  -6   3   32.85    1.07
   1  -6   3   32.99    1.11
  -1  -6  -3   33.92    1.10
   1  -6   3   32.12    1.07
   1   6   3   34.54    1.17
  -1   6  -3   33.53    1.13
   1   6   3   32.00    1.09
   1   6   3   32.96    1.16
  -1   6  -3   33.55    1.03
   2  -6   3    1.89    0.13
  -2  -6  -3    1.94    0.16
   2  -6   3    1.65    0.18
   2  -6   3    1.85    0.17
   2  -6   3    1.90    0.19
  -2  -6  -3    1.79    0.20
  -2   6  -3    2.21    0.20
  -2   6  -3    1.82    0.18
   2   6   3    1.72    0.15
   2   6   3    2.02    0.20
   2   6   3    2.12    0.22
   3  -6   3   35.21    1.28
  -3  -6  -3   37.90    1.20
  -3  -6  -3   36.15    1.30
   3  -6   3   35.73    1.14
   3  -6   3   34.47    1.26
  -3   6  -3   34.57    1.24
   3   6   3   36.26    1.35
  -3   6  -3   36.45    1.25
   3   6   3   35.69    1.20
   3   6   3   35.25    1.30
   4  -6   3    4.14    0.32
  -4  -6  -3    4.42    0.35
   4  -6   3    3.89    0.19
   4  -6   3    4.33    0.34
   4   6   3    4.31    0.26
   4   6   3    3.82    0.33
  -4   6  -3    4.70    0.31
   4   6   3    4.15    0.36
  -4   6  -3    4.22    0.30
  -5  -6  -3   44.63    1.67
   5  -6   3   44.53    1.64
   5  -6   3   45.06    1.40
   5   6   3   46.40    1.51
  -5   6  -3   43.34    1.55
   5   6   3   44.59    1.74
   5   6   3   43.79    1.67
  -6  -6  -3    0.98    0.24
   6  -6   3    0.69    0.20
   6  -6   3    0.78    0.09
  -6   6  -3    1.46    0.27
   6   6   3    0.99    0.24
   6   6   3    0.87    0.16
   6   6   3    1.06    0.28
  -6   6  -3    1.20    0.20
  -8  -7   3    3.36    0.41
   8  -7  -3    3.09    0.22
   8  -7  -3    3.49    0.36
   8   7  -3    3.31    0.39
   8   7  -3    3.09    0.28
   7  -7  -3   -0.09    0.10
  -7  -7   3    0.25    0.19
   7  -7  -3    0.22    0.08
  -7   7   3    0.27    0.18
   7   7  -3    0.19    0.16
   7   7  -3    0.18    0.11
   7   7  -3    0.18    0.11
   6  -7  -3    0.72    0.12
  -6  -7   3    0.72    0.16
  -6  -7   3    0.93    0.23
   6  -7  -3    0.57    0.17
   6  -7  -3    0.80    0.15
   6   7  -3    0.62    0.14
  -6   7   3    1.03    0.19
  -6   7   3    0.48    0.17
   6   7  -3    0.79    0.14
   6   7  -3    0.80    0.20
  -5  -7   3    1.09    0.18
   5  -7  -3    1.02    0.12
   5  -7  -3    0.90    0.17
   5  -7  -3    0.94    0.15
  -5  -7   3    0.50    0.16
   5   7  -3    0.94    0.15
   5   7  -3    0.75    0.17
  -5   7   3    0.68    0.18
  -5   7   3    1.15    0.18
   5   7  -3    0.99    0.15
  -4  -7   3   31.15    1.09
   4  -7  -3   31.31    1.07
   4  -7  -3   29.11    1.02
   4  -7  -3   30.35    1.10
  -4   7   3   31.05    1.07
  -4   7   3   30.62    1.16
   4   7  -3   30.99    1.06
   4   7  -3   30.05    1.12
   4   7  -3   30.82    1.08
   3  -7  -3   19.18    0.72
   3  -7  -3   19.02    0.67
  -3  -7   3   19.25    0.72
   3  -7  -3   17.92    0.69
  -3  -7   3   18.91    0.69
  -3   7   3   18.99    0.69
  -3   7   3   19.39    0.77
   3   7  -3   19.42    0.73
   3   7  -3   20.05    0.69
   3   7  -3   18.54    0.71
   3   7  -3   18.14    0.61
  -2  -7   3    5.55    0.29
   2  -7  -3    5.33    0.25
  -2  -7   3    4.90    0.26
   2  -7  -3    5.04    0.21
   2  -7  -3    5.27    0.26
  -2  -7   3    4.96    0.28
   2  -7  -3    5.24    0.27
  -2   7   3    5.37    0.24
   2   7  -3    4.80    0.27
  -2   7   3    4.40    0.30
   2   7  -3    5.29    0.26
  -2   7   3    5.09    0.26
   2   7  -3    5.22    0.25
   2   7  -3    5.33    0.23
   1  -7  -3   26.62    0.89
  -1  -7   3   26.99    0.89
   1  -7  -3   27.44    0.92
  -1  -7   3   26.20    0.91
   1  -7  -3   26.75    0.90
  -1  -7   3   26.02    0.90
  -1  -7   3   26.26    0.94
   1  -7  -3   26.77    0.89
   1   7  -3   26.35    0.89
   1   7  -3   27.19    0.87
  -1   7   3   27.03    0.89
   1   7  -3   26.79    0.93
  -1   7   3   26.45    0.97
  -1   7   3   26.03    0.91
   0  -7   3   24.59    0.84
   0  -7  -3   24.46    0.85
   0  -7   3   25.01    0.86
   0  -7   3   24.65    0.84
   0  -7   3   25.73    0.90
   0  -7  -3   26.02    0.80
   0  -7  -3   25.00    0.85
   0  -7  -3   21.63    0.86
   0   7   3   23.93    0.91
   0   7  -3   23.70    0.79
   0   7  -3   25.74    0.89
   0   7   3   25.55    0.85
   0   7   3   25.12    0.89
   1  -7   3    1.48    0.17
   1  -7   3    1.27    0.15
   1  -7   3    1.69    0.13
  -1  -7  -3    1.87    0.15
   1  -7   3    1.61    0.14
   1   7   3    1.70    0.19
   1   7   3    1.59    0.18
   1   7   3    1.72    0.14
  -1   7  -3    1.61    0.17
  -1   7  -3    1.79    0.11
  -2  -7  -3    1.15    0.13
   2  -7   3    0.96    0.16
   2  -7   3    0.86    0.16
   2  -7   3    0.88    0.10
   2  -7   3    1.16    0.14
  -2  -7  -3    1.03    0.17
   2   7   3    1.21    0.19
  -2   7  -3    1.07    0.18
   2   7   3    1.15    0.14
   2   7   3    1.15    0.17
  -3  -7  -3    3.80    0.31
  -3  -7  -3    2.84    0.20
   3  -7   3    3.29    0.26
   3  -7   3    3.35    0.25
   3  -7   3    2.95    0.26
   3  -7   3    3.05    0.17
   3   7   3    3.17    0.30
   3   7   3    2.79    0.27
  -3   7  -3    2.99    0.26
   3   7   3    3.08    0.21
  -3   7  -3    2.94    0.23
   4  -7   3    1.74    0.12
  -4  -7  -3    1.35    0.25
   4  -7   3    1.39    0.22
   4   7   3    1.63    0.18
  -4   7  -3    1.85    0.22
   4   7   3    1.54    0.25
  -4   7  -3    1.33    0.22
   4   7   3    1.49    0.23
   5  -7   3   10.11    0.56
   5  -7   3    9.01    0.35
  -5  -7  -3    9.20    0.56
   5   7   3    9.31    0.57
   5   7   3    9.25    0.61
   5   7   3    9.39    0.45
  -5   7  -3    9.45    0.49
   6  -7   3    2.41    0.13
   6  -7   3    2.72    0.34
  -6  -7  -3    2.30    0.34
   6   7   3    2.79    0.35
   6   7   3    2.46    0.37
  -6   7  -3    2.01    0.26
   6   7   3    2.24    0.24
   8  -8  -3    2.30    0.19
  -8  -8   3    2.03    0.36
   8  -8  -3    2.40    0.32
   8   8  -3    2.27    0.37
   8   8  -3    2.27    0.26
  -8   8   3    2.29    0.34
   7  -8  -3    0.09    0.12
   7  -8  -3   -0.14    0.05
  -7  -8   3    0.10    0.18
  -7  -8   3   -0.10    0.11
  -7   8   3   -0.02    0.15
   7   8  -3    0.08    0.10
   7   8  -3   -0.06    0.13
   7   8  -3    0.00    0.09
  -6  -8   3    0.73    0.20
  -6  -8   3    1.49    0.22
   6  -8  -3    1.19    0.14
   6  -8  -3    1.18    0.21
   6  -8  -3    1.39    0.20
  -6   8   3    1.04    0.25
   6   8  -3    1.22    0.19
   6   8  -3    1.47    0.20
   6   8  -3    1.64    0.24
   5  -8  -3   -0.05    0.07
  -5  -8   3   -0.08    0.10
   5  -8  -3    0.00    0.05
   5  -8  -3   -0.04    0.09
  -5  -8   3   -0.09    0.09
   5   8  -3    0.10    0.11
  -5   8   3    0.06    0.12
  -5   8   3   -0.03    0.09
   5   8  -3    0.06    0.08
   5   8  -3   -0.03    0.07
   4  -8  -3    1.11    0.17
  -4  -8   3    0.31    0.12
   4  -8  -3    0.58    0.10
   4  -8  -3    0.71    0.13
  -4  -8   3    0.76    0.14
  -4   8   3    0.88    0.14
   4   8  -3    0.91    0.16
   4   8  -3    0.69    0.13
   4   8  -3    0.88    0.14
  -4   8   3    0.86    0.19
   3  -8  -3    0.11    0.06
  -3  -8   3    0.03    0.08
  -3  -8   3    0.03    0.08
  -3  -8   3    0.06    0.06
   3  -8  -3    0.01    0.07
   3  -8  -3    0.02    0.07
   3   8  -3   -0.07    0.06
   3   8  -3    0.02    0.04
  -3   8   3   -0.01    0.09
   3   8  -3   -0.06    0.05
   3   8  -3   -0.01    0.07
  -3   8   3    0.05    0.06
   2  -8  -3   10.96    0.44
  -2  -8   3   11.04    0.44
   2  -8  -3   10.31    0.42
   2  -8  -3   10.03    0.38
   2  -8  -3   10.54    0.44
  -2  -8   3    9.93    0.46
  -2   8   3   10.16    0.42
   2   8  -3   10.35    0.42
   2   8  -3   10.78    0.40
   2   8  -3   10.17    0.45
  -2   8   3   11.12    0.50
   2   8  -3    9.59    0.43
  -2   8   3   10.40    0.43
   1  -8  -3    0.15    0.07
  -1  -8   3    0.26    0.08
   1  -8  -3    0.18    0.06
  -1  -8   3    0.16    0.07
  -1  -8   3    0.18    0.07
   1  -8  -3    0.17    0.07
  -1  -8   3    0.28    0.10
   1  -8  -3    0.16    0.07
  -1   8   3    0.21    0.07
   1   8  -3    0.23    0.09
  -1   8   3    0.27    0.10
  -1   8   3    0.13    0.06
   1   8  -3    0.13    0.06
   1   8  -3    0.24    0.06
   0  -8   3    5.08    0.25
   0  -8   3    4.62    0.26
   0  -8   3    4.98    0.29
   0  -8  -3    5.01    0.26
   0  -8  -3    4.95    0.25
   0  -8  -3    4.71    0.27
   0  -8   3    4.75    0.24
   0   8   3    5.06    0.22
   0   8  -3    4.68    0.21
   0   8   3    5.39    0.32
   0   8   3    4.93    0.28
   0   8   3    4.69    0.25
   0   8  -3    4.77    0.28
   1  -8   3    0.00    0.07
   1  -8   3    0.10    0.06
  -1  -8  -3    0.17    0.08
   1  -8   3    0.11    0.08
   1  -8   3    0.11    0.06
  -1  -8  -3    0.09    0.09
   1   8   3    0.14    0.09
   1   8   3    0.13    0.10
   1   8   3    0.01    0.06
  -1   8  -3    0.21    0.09
   2  -8   3    1.16    0.17
   2  -8   3    1.39    0.13
   2  -8   3    1.24    0.14
  -2  -8  -3    1.03    0.18
   2  -8   3    1.13    0.17
  -2  -8  -3    1.35    0.14
   2   8   3    1.26    0.18
   2   8   3    1.10    0.14
  -2   8  -3    1.29    0.18
   2   8   3    1.48    0.20
  -3  -8  -3    1.63    0.16
   3  -8   3    1.33    0.19
   3  -8   3    1.19    0.20
   3  -8   3    1.34    0.12
  -3  -8  -3    1.17    0.19
  -3   8  -3    0.96    0.17
   3   8   3    1.31    0.23
   3   8   3    1.26    0.21
   3   8   3    1.16    0.16
   4  -8   3    0.06    0.05
   4  -8   3    0.02    0.09
  -4  -8  -3    0.05    0.11
   4   8   3    0.03    0.11
   4   8   3    0.08    0.09
  -4   8  -3    0.19    0.11
   4   8   3    0.08    0.15
  -4   8  -3   -0.05    0.10
   5  -8   3    2.00    0.27
   5  -8   3    1.87    0.14
  -5  -8  -3    1.88    0.30
   5   8   3    1.93    0.29
   5   8   3    2.24    0.34
   5   8   3    1.88    0.22
  -5   8  -3    1.90    0.24
   6  -8   3    3.06    0.35
  -6  -8  -3    2.74    0.35
   6  -8   3    3.11    0.16
   6   8   3    2.73    0.27
  -6   8  -3    3.01    0.31
   6   8   3    2.01    0.39
   6   8   3    3.35    0.38
   8  -9  -3    1.10    0.25
   8  -9  -3    1.18    0.16
   8   9  -3    1.21    0.29
  -8   9   3    0.58    0.24
   8   9  -3    1.17    0.20
  -7  -9   3    9.13    0.53
  -7  -9   3    8.56    0.59
   7  -9  -3    8.98    0.56
   7  -9  -3    9.06    0.41
   7   9  -3    8.99    0.61
  -7   9   3    8.34    0.59
   7   9  -3    9.40    0.49
   6  -9  -3    0.84    0.13
  -6  -9   3    0.72    0.18
   6  -9  -3    0.99    0.20
  -6  -9   3    1.19    0.25
   6  -9  -3    1.04    0.19
   6   9  -3    0.89    0.16
   6   9  -3    1.30    0.18
  -6   9   3    0.86    0.24
   6   9  -3    1.18    0.23
   5  -9  -3   16.63    0.63
  -5  -9   3   17.17    0.73
   5  -9  -3   17.03    0.70
   5  -9  -3   16.98    0.75
   5   9  -3   16.29    0.68
   5   9  -3   17.52    0.78
   5   9  -3   16.47    0.70
  -5   9   3   17.48    0.80
  -4  -9   3    0.11    0.12
   4  -9  -3    0.16    0.09
   4  -9  -3    0.14    0.10
  -4  -9   3    0.18    0.11
   4  -9  -3    0.21    0.08
   4   9  -3    0.09    0.09
   4   9  -3    0.25    0.11
   4   9  -3    0.02    0.07
  -4   9   3    0.10    0.08
  -4   9   3   -0.03    0.10
  -3  -9   3    1.35    0.18
   3  -9  -3    1.25    0.16
  -3  -9   3    1.61    0.20
  -3  -9   3    1.33    0.19
   3  -9  -3    1.33    0.14
   3  -9  -3    1.25    0.16
   3   9  -3    1.32    0.15
  -3   9   3    1.23    0.14
   3   9  -3    1.22    0.17
  -3   9   3    1.18    0.19
   3   9  -3    1.45    0.17
  -2  -9   3    1.69    0.17
  -2  -9   3    1.97    0.17
   2  -9  -3    1.48    0.15
  -2  -9   3    1.76    0.18
   2  -9  -3    1.72    0.13
  -2  -9   3    1.56    0.13
   2  -9  -3    1.76    0.17
   2  -9  -3    1.75    0.16
   2   9  -3    1.65    0.16
  -2   9   3    1.59    0.19
   2   9  -3    1.65    0.15
  -2   9   3    1.74    0.15
   2   9  -3    1.53    0.16
  -1  -9   3    1.12    0.12
   1  -9  -3    1.09    0.13
  -1  -9   3    0.94    0.16
  -1  -9   3    1.18    0.13
   1  -9  -3    1.05    0.13
  -1  -9   3    1.30    0.14
   1  -9  -3    1.04    0.14
   1  -9  -3    1.33    0.13
  -1   9   3    1.48    0.14
  -1   9   3    1.17    0.18
  -1   9   3    1.19    0.13
   1   9  -3    1.17    0.12
   1   9  -3    0.77    0.13
   0  -9   3    9.79    0.41
   0  -9  -3   10.03    0.42
   0  -9  -3    9.53    0.41
   0  -9   3   10.15    0.42
   0  -9   3    9.55    0.45
   0  -9   3    9.59    0.39
   0  -9  -3    9.93    0.44
   0   9  -3    9.72    0.45
   0   9   3   10.25    0.44
   0   9   3    9.41    0.40
   0   9  -3    9.28    0.37
   0   9   3    8.85    0.37
   0   9   3    9.28    0.48
   1  -9   3    1.12    0.17
   1  -9   3    1.10    0.13
  -1  -9  -3    1.20    0.14
   1  -9   3    1.07    0.15
  -1  -9  -3    1.24    0.17
   1  -9   3    1.49    0.13
   1   9   3    1.16    0.17
   1   9   3    1.60    0.21
   1   9   3    1.35    0.15
  -1   9  -3    1.20    0.18
  -2  -9  -3    1.24    0.20
   2  -9   3    1.45    0.19
   2  -9   3    1.17    0.18
   2  -9   3    1.36    0.13
  -2  -9  -3    1.47    0.16
  -2   9  -3    1.66    0.21
   2   9   3    1.53    0.20
   2   9   3    1.48    0.17
   2   9   3    1.42    0.21
   3  -9   3    0.91    0.18
   3  -9   3    1.28    0.19
  -3  -9  -3    0.89    0.19
   3  -9   3    0.83    0.12
  -3  -9  -3    1.03    0.14
   3   9   3    0.68    0.18
   3   9   3    0.63    0.17
  -3   9  -3    1.10    0.19
   3   9   3    1.02    0.16
  -4  -9  -3    0.96    0.20
   4  -9   3    0.70    0.17
   4  -9   3    0.92    0.20
   4  -9   3    0.96    0.11
   4   9   3    0.96    0.16
  -4   9  -3    0.77    0.16
   4   9   3    1.18    0.23
   4   9   3    1.09    0.23
  -4   9  -3    1.19    0.22
  -5  -9  -3    0.96    0.23
   5  -9   3    0.91    0.21
   5  -9   3    0.84    0.11
  -5   9  -3    1.01    0.21
  -5   9  -3    1.05    0.20
   5   9   3    1.17    0.27
   5   9   3    1.12    0.24
   5   9   3    0.98    0.17
  -6  -9  -3    3.72    0.41
   6  -9   3    3.27    0.38
   6   9   3    3.15    0.38
   6   9   3    3.24    0.30
   7 -10  -3    3.16    0.23
  -7 -10   3    2.94    0.37
   7 -10  -3    2.90    0.32
  -7 -10   3    3.12    0.33
   7  10  -3    3.05    0.38
   7  10  -3    2.85    0.29
  -7  10   3    2.92    0.36
  -6 -10   3    0.74    0.19
   6 -10  -3    0.91    0.19
   6 -10  -3    0.97    0.20
  -6 -10   3    0.79    0.22
   6 -10  -3    0.97    0.14
  -6  10   3    0.88    0.25
   6  10  -3    1.06    0.18
   6  10  -3    0.80    0.16
   6  10  -3    0.94    0.23
   5 -10  -3    9.80    0.43
   5 -10  -3    9.76    0.53
  -5 -10   3    8.11    0.52
  -5 -10   3   10.63    0.53
   5 -10  -3   10.23    0.50
  -5  10   3   10.59    0.60
   5  10  -3    9.87    0.49
   5  10  -3   10.18    0.48
   5  10  -3   10.32    0.57
  -4 -10   3    0.15    0.10
   4 -10  -3    0.52    0.13
   4 -10  -3    0.31    0.12
  -4 -10   3    0.31    0.12
   4 -10  -3    0.42    0.09
  -4  10   3    0.52    0.17
   4  10  -3    0.28    0.11
   4  10  -3    0.43    0.11
   4  10  -3    0.32    0.13
   3 -10  -3   15.15    0.62
   3 -10  -3   14.47    0.60
   3 -10  -3   14.84    0.58
  -3 -10   3   14.13    0.63
   3  10  -3   15.47    0.60
   3  10  -3   14.59    0.62
  -3  10   3   14.74    0.56
  -3  10   3   14.08    0.67
   3  10  -3   15.03    0.63
  -2 -10   3    1.85    0.20
   2 -10  -3    1.96    0.16
  -2 -10   3    1.81    0.17
   2 -10  -3    1.76    0.14
  -2 -10   3    1.41    0.17
   2 -10  -3    1.71    0.18
   2 -10  -3    1.77    0.17
  -2 -10   3    2.07    0.14
  -2  10   3    1.74    0.15
  -2  10   3    1.59    0.22
   2  10  -3    1.69    0.18
   2  10  -3    1.77    0.16
   2  10  -3    1.54    0.17
  -1 -10   3   33.08    1.10
  -1 -10   3   33.67    1.13
   1 -10  -3   33.09    1.11
  -1 -10   3   33.15    1.11
   1 -10  -3   33.50    1.14
  -1 -10   3   33.28    1.18
   1 -10  -3   32.58    1.11
   1 -10  -3   33.49    1.13
  -1  10   3   33.29    1.22
  -1  10   3   33.19    1.12
  -1  10   3   31.11    1.18
   1  10  -3   32.04    1.11
   1  10  -3   34.88    1.18
   0 -10  -3   -0.06    0.05
   0 -10   3    0.01    0.05
   0 -10  -3    0.01    0.07
   0 -10   3    0.11    0.09
   0 -10   3    0.05    0.07
   0 -10  -3    0.09    0.08
   0 -10   3    0.17    0.08
   0  10   3    0.13    0.11
   0  10   3    0.16    0.08
   0  10   3    0.06    0.06
   0  10   3    0.10    0.08
   0  10  -3    0.12    0.06
   0  10  -3    0.10    0.08
   1 -10   3   28.05    0.98
   1 -10   3   27.95    1.05
   1 -10   3   29.13    1.03
  -1 -10  -3   28.89    0.99
  -1 -10  -3   27.27    1.04
  -1  10  -3   28.20    1.05
   1  10   3   28.33    1.10
   1  10   3   28.86    1.05
   1  10   3   29.54    1.00
  -2 -10  -3    3.21    0.28
   2 -10   3    3.31    0.25
   2 -10   3    2.67    0.25
   2 -10   3    2.90    0.20
  -2 -10  -3    2.57    0.20
   2  10   3    3.32    0.29
   2  10   3    3.01    0.23
   2  10   3    3.19    0.29
  -2  10  -3    2.86    0.27
   3 -10   3   12.74    0.62
  -3 -10  -3   13.07    0.53
  -3 -10  -3   12.94    0.63
   3 -10   3   12.21    0.50
   3 -10   3   13.17    0.60
  -3  10  -3   12.51    0.60
   3  10   3   13.28    0.56
   3  10   3   13.06    0.66
   3  10   3   11.97    0.64
   4 -10   3    0.41    0.14
   4 -10   3    0.29    0.08
  -4 -10  -3    0.06    0.11
   4 -10   3    0.37    0.15
   4  10   3    0.06    0.11
  -4  10  -3    0.58    0.17
   4  10   3    0.28    0.17
   4  10   3    0.42    0.13
   5 -10   3    5.21    0.26
  -5 -10  -3    5.63    0.46
   5 -10   3    5.86    0.44
   5  10   3    5.68    0.37
   5  10   3    5.56    0.49
  -5  10  -3    5.80    0.41
   5  10   3    5.79    0.47
  -5  10  -3    5.64    0.39
   7 -11  -3    0.66    0.17
  -7 -11   3    0.32    0.18
  -7 -11   3    0.79    0.20
   7 -11  -3    0.72    0.13
   7 -11  -3    0.64    0.19
   7  11  -3    0.62    0.22
  -7  11   3    0.40    0.22
   7  11  -3    0.56    0.17
  -6 -11   3   18.90    0.88
   6 -11  -3   18.16    0.84
   6 -11  -3   17.99    0.70
   6 -11  -3   19.14    0.80
  -6 -11   3   18.17    0.82
   6  11  -3   17.29    0.88
   6  11  -3   17.93    0.77
  -6  11   3   18.46    0.89
   6  11  -3   18.31    0.77
  -5 -11   3    0.03    0.12
   5 -11  -3   -0.04    0.06
  -5 -11   3   -0.05    0.10
   5 -11  -3   -0.13    0.09
   5 -11  -3   -0.08    0.08
   5  11  -3    0.05    0.10
   5  11  -3   -0.11    0.09
  -5  11   3   -0.12    0.13
   5  11  -3    0.04    0.09
   4 -11  -3    9.55    0.50
   4 -11  -3    9.79    0.44
  -4 -11   3    9.82    0.51
   4 -11  -3   10.11    0.49
  -4 -11   3   10.12    0.51
   4  11  -3    9.91    0.52
   4  11  -3    9.79    0.48
  -4  11   3    9.85    0.55
   4  11  -3   10.08    0.47
   3 -11  -3    3.89    0.28
   3 -11  -3    3.67    0.27
  -3 -11   3    4.24    0.31
   3 -11  -3    3.85    0.25
  -3 -11   3    2.95    0.26
   3  11  -3    4.02    0.26
   3  11  -3    3.92    0.28
   3  11  -3    3.84    0.28
  -3  11   3    4.11    0.34
   2 -11  -3   39.98    1.35
   2 -11  -3   39.17    1.35
   2 -11  -3   39.38    1.33
  -2 -11   3   40.09    1.40
  -2 -11   3   41.18    1.34
  -2 -11   3   39.74    1.29
   2 -11  -3   38.39    1.29
   2  11  -3   39.77    1.35
  -2  11   3   37.93    1.33
   2  11  -3   39.21    1.37
  -2  11   3   40.06    1.44
   1 -11  -3    5.74    0.31
   1 -11  -3    6.31    0.32
  -1 -11   3    6.55    0.37
  -1 -11   3    6.43    0.31
   1 -11  -3    5.86    0.33
  -1 -11   3    6.45    0.33
  -1  11   3    6.26    0.31
   1  11  -3    5.20    0.33
  -1  11   3    5.86    0.39
  -1  11   3    5.83    0.31
   1  11  -3    6.18    0.31
   0 -11  -3   80.67    2.59
   0 -11   3   82.24    2.56
   0 -11   3   82.37    2.58
   0 -11   3   81.96    2.63
   0 -11  -3   83.58    2.58
   0 -11  -3   80.46    2.57
   0  11   3   81.18    2.53
   0  11   3   76.59    2.66
   0  11  -3   81.40    2.62
   0  11  -3   77.19    2.57
   0  11   3   80.69    2.56
   0  11   3   82.69    2.58
  -1 -11  -3    0.60    0.12
   1 -11   3    1.01    0.17
   1 -11   3    0.68    0.15
   1 -11   3    0.86    0.14
  -1 -11  -3    0.76    0.17
   1  11   3    1.05    0.18
   1  11   3    0.74    0.17
   1  11   3    0.64    0.12
  -1  11  -3    0.90    0.17
   2 -11   3   13.10    0.61
  -2 -11  -3   12.14    0.52
   2 -11   3   12.65    0.52
  -2 -11  -3   11.85    0.60
   2 -11   3   13.16    0.59
   2  11   3   13.34    0.55
   2  11   3   12.48    0.61
   2  11   3   12.91    0.65
  -2  11  -3   13.52    0.63
  -3 -11  -3    1.90    0.26
   3 -11   3    1.76    0.24
   3 -11   3    1.98    0.17
   3 -11   3    2.24    0.26
   3  11   3    2.33    0.23
   3  11   3    1.87    0.27
   3  11   3    2.70    0.30
  -3  11  -3    2.33    0.27
   4 -11   3    3.06    0.31
  -4 -11  -3    3.31    0.34
   4 -11   3    2.84    0.20
   4 -11   3    3.30    0.31
  -4  11  -3    3.98    0.34
   4  11   3    3.02    0.27
   4  11   3    2.86    0.33
   4  11   3    3.55    0.37
  -5 -11  -3    0.75    0.23
   5 -11   3    0.79    0.21
   5 -11   3    0.52    0.09
   5  11   3    0.91    0.23
  -5  11  -3    0.55    0.18
  -5  11  -3    0.53    0.17
   5  11   3    0.70    0.17
   5  11   3    0.62    0.23
  -7 -12   3    2.99    0.38
  -7 -12   3    3.58    0.36
   7 -12  -3    4.41    0.28
   7 -12  -3    4.32    0.41
   7 -12  -3    3.95    0.34
   7  12  -3    4.41    0.45
   7  12  -3    3.72    0.34
  -7  12   3    4.01    0.43
   6 -12  -3    8.01    0.48
  -6 -12   3    7.61    0.50
  -6 -12   3    7.30    0.52
   6 -12  -3    8.22    0.41
   6 -12  -3    9.22    0.55
   6  12  -3    8.89    0.48
  -6  12   3    8.50    0.57
   6  12  -3    8.37    0.64
   6  12  -3    8.12    0.56
   5 -12  -3    6.74    0.44
  -5 -12   3    6.57    0.43
   5 -12  -3    7.53    0.43
   5 -12  -3    6.91    0.36
  -5  12   3    6.47    0.48
   5  12  -3    7.29    0.41
   5  12  -3    6.74    0.40
   5  12  -3    6.77    0.47
   4 -12  -3    3.90    0.26
  -4 -12   3    3.72    0.32
   4 -12  -3    4.23    0.30
   4 -12  -3    3.99    0.31
   4  12  -3    3.87    0.32
   4  12  -3    4.04    0.29
  -4  12   3    3.71    0.36
   4  12  -3    4.00    0.28
  -3 -12   3   18.46    0.76
   3 -12  -3   18.36    0.69
   3 -12  -3   18.68    0.74
  -3 -12   3   14.99    0.69
   3 -12  -3   17.54    0.72
   3  12  -3   17.44    0.73
  -3  12   3   17.97    0.80
   3  12  -3   17.60    0.74
   2 -12  -3    0.95    0.16
   2 -12  -3    1.00    0.17
   2 -12  -3    1.01    0.15
  -2 -12   3    1.11    0.13
  -2 -12   3    1.05    0.16
  -2 -12   3    0.69    0.13
  -2 -12   3    0.95    0.17
  -2  12   3    1.13    0.22
   2  12  -3    1.02    0.16
  -2  12   3    1.11    0.17
   2  12  -3    1.16    0.18
  -1 -12   3   23.02    0.93
  -1 -12   3   23.73    0.86
  -1 -12   3   24.73    0.88
   1 -12  -3   24.02    0.88
   1 -12  -3   24.09    0.87
   1 -12  -3   24.87    0.89
   1  12  -3   22.94    0.92
   1  12  -3   24.15    0.87
  -1  12   3   24.34    0.98
  -1  12   3   22.63    0.86
   0 -12   3    0.95    0.16
   0 -12  -3    1.22    0.18
   0 -12   3    1.17    0.20
   0 -12   3    1.32    0.16
   0 -12  -3    1.02    0.16
   0  12   3    0.81    0.15
   0  12  -3    0.85    0.16
   0  12   3    1.08    0.22
   1 -12   3   20.00    0.79
  -1 -12  -3   21.32    0.80
  -1 -12  -3   19.95    0.84
   1 -12   3   21.58    0.87
   1 -12   3   20.56    0.83
   1  12   3   21.45    0.84
  -1  12  -3   23.16    0.88
   1  12   3   22.23    0.81
   1  12   3   21.87    0.92
  -2 -12  -3    1.06    0.16
   2 -12   3    1.28    0.19
   2 -12   3    1.40    0.16
  -2 -12  -3    1.16    0.22
   2 -12   3    1.22    0.21
   2  12   3    1.49    0.22
   2  12   3    1.20    0.21
  -2  12  -3    1.55    0.23
   2  12   3    1.51    0.19
  -3 -12  -3   10.73    0.59
   3 -12   3   10.59    0.46
   3 -12   3   11.15    0.57
   3 -12   3   10.98    0.57
   3  12   3   11.13    0.63
   3  12   3   11.42    0.62
   3  12   3   10.94    0.52
  -3  12  -3   11.09    0.58
  -4 -12  -3    3.09    0.35
   4 -12   3    3.27    0.32
   4 -12   3    2.94    0.30
   4 -12   3    2.85    0.21
   4  12   3    3.84    0.39
   4  12   3    2.95    0.34
   4  12   3    2.76    0.28
  -4  12  -3    2.90    0.32
   5 -12   3    2.48    0.19
   5 -12   3    2.78    0.33
  -5 -12  -3    3.84    0.40
   5 -12   3    2.82    0.33
   5  12   3    3.12    0.38
  -5  12  -3    3.16    0.34
   5  12   3    3.38    0.41
   5  12   3    3.15    0.31
  -5  12  -3    2.57    0.29
  -7 -13   3    0.50    0.21
   7 -13  -3    0.77    0.20
  -7 -13   3    0.65    0.21
   7 -13  -3    1.07    0.17
   7 -13  -3    0.96    0.24
   7  13  -3    1.37    0.24
  -7  13   3    0.73    0.25
   7  13  -3    1.33    0.30
   6 -13  -3    6.95    0.44
   6 -13  -3    6.17    0.35
  -6 -13   3    6.29    0.46
   6 -13  -3    5.72    0.45
  -6  13   3    6.23    0.50
   6  13  -3    7.35    0.44
   6  13  -3    5.91    0.49
   5 -13  -3    2.52    0.27
   5 -13  -3    2.14    0.27
   5 -13  -3    2.24    0.21
  -5 -13   3    1.53    0.26
  -5 -13   3    2.11    0.28
   5  13  -3    2.43    0.40
   5  13  -3    2.75    0.31
   5  13  -3    2.21    0.25
  -5  13   3    2.40    0.31
   4 -13  -3    2.23    0.26
   4 -13  -3    1.88    0.19
  -4 -13   3    1.80    0.26
   4 -13  -3    1.56    0.22
   4  13  -3    1.77    0.22
   4  13  -3    2.01    0.26
  -4  13   3    1.85    0.29
   3 -13  -3    4.57    0.28
  -3 -13   3    5.13    0.36
   3 -13  -3    4.36    0.31
   3 -13  -3    4.99    0.33
  -3  13   3    4.04    0.37
   3  13  -3    4.34    0.31
   3  13  -3    4.41    0.32
  -2 -13   3    8.55    0.38
  -2 -13   3    9.12    0.43
   2 -13  -3    7.61    0.40
  -2 -13   3    8.15    0.47
   2 -13  -3    8.14    0.43
  -2  13   3    8.10    0.50
   2  13  -3    8.24    0.43
  -2  13   3    8.18    0.43
   2  13  -3    8.51    0.44
  -1 -13   3    5.61    0.38
   1 -13  -3    6.08    0.34
   1 -13  -3    5.50    0.32
  -1 -13   3    5.63    0.32
   1 -13  -3    6.22    0.34
  -1 -13   3    5.72    0.33
  -1  13   3    5.63    0.39
   1  13  -3    5.67    0.33
   1  13  -3    6.02    0.37
  -1  13   3    6.09    0.33
   0 -13   3   49.31    1.66
   0 -13  -3   50.84    1.66
   0 -13   3   47.30    1.71
   0 -13   3   50.61    1.65
   0 -13  -3   49.77    1.68
   0  13   3   48.85    1.77
   0  13  -3   48.26    1.71
   1 -13   3    2.03    0.23
  -1 -13  -3    1.57    0.19
  -1 -13  -3    1.70    0.23
   1 -13   3    2.08    0.20
   1 -13   3    2.27    0.25
   1  13   3    1.66    0.21
   1  13   3    2.21    0.28
  -1  13  -3    1.89    0.23
   2 -13   3    0.52    0.16
   2 -13   3    0.12    0.11
  -2 -13  -3    0.38    0.15
  -2 -13  -3    0.04    0.08
   2 -13   3    0.10    0.08
  -2  13  -3    0.10    0.12
   2  13   3    0.06    0.11
   2  13   3    0.08    0.10
   2  13   3    0.01    0.11
  -3 -13  -3   -0.08    0.10
   3 -13   3   -0.07    0.10
   3 -13   3   -0.11    0.06
   3 -13   3   -0.17    0.10
   3  13   3   -0.03    0.13
   3  13   3    0.00    0.09
  -3  13  -3   -0.03    0.13
   3  13   3    0.07    0.13
  -4 -13  -3    0.67    0.20
   4 -13   3    0.97    0.15
   4 -13   3    1.29    0.24
   4 -13   3    0.83    0.20
   4  13   3    0.84    0.22
   4  13   3    1.00    0.25
   4  13   3    0.86    0.18
  -4  13  -3    0.92    0.21
   5 -13   3    0.26    0.19
   5 -13   3    0.15    0.14
   5 -13   3    0.09    0.07
  -5 -13  -3    0.38    0.20
   5  13   3    0.30    0.15
   5  13   3    0.35    0.19
  -5  13  -3    0.23    0.14
   5  13   3    0.09    0.18
  -5  13  -3    0.11    0.17
   6 -14  -3    0.59    0.17
  -6 -14   3    0.37    0.18
  -6 -14   3    0.17    0.17
   6 -14  -3    0.24    0.16
   6 -14  -3    0.39    0.12
   6  14  -3    0.15    0.17
  -6  14   3    0.19    0.19
   5 -14  -3    1.15    0.23
  -5 -14   3    0.47    0.17
   5 -14  -3    1.37    0.22
   5 -14  -3    1.22    0.18
  -5 -14   3    0.77    0.20
   5  14  -3    1.35    0.27
   5  14  -3    1.83    0.23
  -5  14   3    1.27    0.28
  -4 -14   3    0.86    0.28
   4 -14  -3    1.33    0.21
   4 -14  -3    0.94    0.19
  -4 -14   3    0.80    0.19
   4 -14  -3    0.55    0.13
   4  14  -3    0.78    0.16
   4  14  -3    1.15    0.22
  -4  14   3    1.40    0.27
  -3 -14   3    1.57    0.22
   3 -14  -3    1.44    0.19
   3 -14  -3    1.38    0.19
   3  14  -3    1.59    0.21
  -3  14   3    1.82    0.29
  -3  14   3    1.55    0.23
   3  14  -3    1.44    0.22
  -2 -14   3    0.28    0.09
   2 -14  -3    0.34    0.11
  -2 -14   3    0.05    0.11
   2 -14  -3    0.15    0.12
   2  14  -3    0.36    0.13
  -2  14   3    0.34    0.13
  -2  14   3    0.23    0.16
   2  14  -3    0.31    0.12
   1 -14  -3    5.02    0.31
  -1 -14   3    5.07    0.32
   1 -14  -3    5.42    0.33
   1 -14  -3    5.38    0.32
  -1 -14   3    5.52    0.37
  -1 -14   3    5.23    0.30
  -1  14   3    4.97    0.38
   1  14  -3    5.71    0.37
  -1  14   3    4.14    0.29
   0 -14   3    1.07    0.18
   0 -14   3    0.76    0.16
   0 -14   3    1.01    0.20
   0 -14  -3    0.66    0.15
   0 -14  -3    1.01    0.17
   0  14  -3    0.86    0.17
   0  14   3    0.85    0.20
  -1 -14  -3    6.08    0.39
   1 -14   3    5.10    0.33
  -1 -14  -3    5.43    0.33
   1 -14   3    5.20    0.36
   1 -14   3    5.61    0.39
  -1  14  -3    5.24    0.38
   1  14   3    5.78    0.42
   2 -14   3   -0.07    0.10
  -2 -14  -3    0.10    0.12
   2 -14   3    0.11    0.09
   2 -14   3    0.04    0.12
  -2 -14  -3    0.04    0.08
   2  14   3    0.10    0.12
   2  14   3   -0.10    0.12
  -2  14  -3    0.05    0.13
   3 -14   3    1.42    0.19
   3 -14   3    1.13    0.22
   3 -14   3    1.73    0.27
  -3 -14  -3    2.08    0.29
   3  14   3    1.51    0.22
   3  14   3    1.77    0.28
   3  14   3    1.72    0.29
  -3  14  -3    1.55    0.28
   4 -14   3    0.36    0.16
  -4 -14  -3    0.42    0.19
   4 -14   3    0.23    0.16
   4 -14   3    0.30    0.11
  -4  14  -3    0.11    0.16
   4  14   3    0.23    0.16
   4  14   3    0.58    0.21
   4  14   3    0.27    0.15
  -6 -15   3    0.12    0.16
   6 -15  -3    0.17    0.10
   6 -15  -3    0.09    0.15
   6 -15  -3    0.08    0.14
  -6 -15   3    0.06    0.16
   6  15  -3   -0.02    0.14
  -6  15   3    0.14    0.18
  -6  15   3   -0.03    0.14
   5 -15  -3   -0.01    0.09
  -5 -15   3   -0.24    0.11
   5 -15  -3   -0.17    0.09
   5 -15  -3   -0.02    0.13
   5  15  -3   -0.16    0.12
  -5  15   3    0.03    0.14
  -5  15   3   -0.08    0.16
   5  15  -3    0.06    0.11
   4 -15  -3   13.04    0.58
  -4 -15   3   12.35    0.65
   4 -15  -3   13.30    0.63
  -4  15   3   12.22    0.63
   4  15  -3   12.06    0.66
   4  15  -3   12.87    0.61
  -4  15   3   12.04    0.69
   3 -15  -3    0.47    0.13
  -3 -15   3    0.49    0.17
   3 -15  -3    0.53    0.16
   3  15  -3    0.34    0.13
   3  15  -3    0.53    0.16
  -3  15   3    0.42    0.19
  -3  15   3    0.52    0.14
   2 -15  -3    4.23    0.30
  -2 -15   3    4.14    0.34
   2 -15  -3    4.04    0.31
   2  15  -3    4.56    0.32
   2  15  -3    3.90    0.32
  -2  15   3    3.57    0.30
  -2  15   3    4.60    0.38
   1 -15  -3    1.50    0.20
   1 -15  -3    1.72    0.24
  -1 -15   3    1.73    0.23
  -1 -15   3    1.33    0.18
   1 -15  -3    1.88    0.20
  -1 -15   3    2.03    0.22
  -1  15   3    1.61    0.20
   1  15  -3    1.54    0.22
  -1  15   3    1.80    0.28
   0 -15  -3    0.17    0.11
   0 -15   3   -0.02    0.09
   0 -15  -3    0.04    0.11
   0 -15   3    0.17    0.14
   0 -15   3    0.13    0.10
   0  15  -3   -0.04    0.11
   0  15   3   -0.11    0.12
   1 -15   3    0.88    0.20
   1 -15   3    0.92    0.16
   1 -15   3    0.90    0.18
  -1 -15  -3    0.83    0.16
  -1 -15  -3    0.91    0.18
   1  15   3    0.76    0.20
  -1  15  -3    0.61    0.17
   2 -15   3    6.70    0.45
   2 -15   3    6.89    0.44
  -2 -15  -3    6.73    0.46
   2 -15   3    6.94    0.39
  -2  15  -3    6.75    0.46
   2  15   3    6.38    0.49
  -3 -15  -3   -0.07    0.14
   3 -15   3   -0.09    0.12
   3 -15   3   -0.05    0.08
   3 -15   3    0.10    0.13
   3  15   3    0.08    0.16
  -3  15  -3    0.04    0.13
   3  15   3    0.12    0.15
   4 -15   3   10.37    0.62
   4 -15   3   12.02    0.53
   4 -15   3   11.82    0.66
  -4 -15  -3   11.71    0.68
  -4  15  -3   11.19    0.66
   4  15   3   11.48    0.70
   4  15   3   12.19    0.73
   4  15   3   11.58    0.62
  -6  16   3   -0.05    0.17
   5 -16  -3    3.72    0.29
   5 -16  -3    3.63    0.34
  -5 -16   3    2.74    0.33
   5  16  -3    3.30    0.37
  -5  16   3    3.01    0.40
  -5  16   3    3.53    0.36
   4 -16  -3    0.40    0.13
  -4 -16   3    0.12    0.15
   4 -16  -3    0.67    0.19
   4  16  -3    0.64    0.17
  -4  16   3    0.49    0.17
   4  16  -3    0.60    0.18
  -4  16   3    0.32    0.20
   3 -16  -3    7.67    0.42
  -3 -16   3    7.60    0.49
   3 -16  -3    7.22    0.44
  -3  16   3    6.30    0.44
   3  16  -3    6.98    0.44
   3  16  -3    7.69    0.47
  -3  16   3    8.06    0.53
  -2 -16   3    7.94    0.48
   2 -16  -3    7.44    0.44
   2 -16  -3    7.10    0.41
  -2  16   3    7.41    0.43
   2  16  -3    7.41    0.62
  -2  16   3    6.95    0.50
   2  16  -3    7.09    0.44
  -1 -16   3   14.37    0.61
  -1 -16   3   15.52    0.71
   1 -16  -3   14.53    0.64
  -1 -16   3   15.11    0.64
  -1  16   3   13.24    0.72
   1  16  -3   10.72    0.63
   0 -16  -3    1.74    0.23
   0 -16  -3    1.69    0.22
   0 -16   3    2.06    0.23
   0 -16   3    2.21    0.24
   0 -16   3    1.84    0.26
   0  16  -3    1.31    0.22
   0  16   3    2.02    0.29
   1 -16   3   15.70    0.67
  -1 -16  -3   15.45    0.66
  -1 -16  -3   14.82    0.72
   1 -16   3   16.25    0.71
   1 -16   3   14.65    0.73
  -1  16  -3   14.80    0.73
   1  16   3   14.95    0.79
   2 -16   3    0.07    0.13
   2 -16   3    0.09    0.12
  -2 -16  -3    0.23    0.16
   2 -16   3    0.15    0.11
   2  16   3    0.12    0.15
  -2  16  -3    0.11    0.13
   3 -16   3    8.21    0.52
   3 -16   3    7.81    0.52
   3 -16   3    7.70    0.42
  -3 -16  -3    7.82    0.53
  -3  16  -3    7.73    0.52
   3  16   3    7.52    0.57
   5 -17  -3    0.78    0.20
  -5 -17   3    0.63    0.21
   5 -17  -3    0.61    0.15
  -5  17   3    0.53    0.18
   5  17  -3    0.88    0.25
  -5  17   3    0.61    0.26
   4 -17  -3   16.93    0.70
  -4 -17   3   14.99    0.76
   4 -17  -3   14.76    0.73
   4  17  -3   13.83    0.70
   4  17  -3   15.53    0.78
  -4  17   3   15.35    0.76
   3 -17  -3    1.34    0.23
  -3 -17   3    1.17    0.24
   3 -17  -3    1.00    0.18
   3  17  -3    0.95    0.19
   3  17  -3    0.98    0.21
  -3  17   3    0.99    0.26
  -3  17   3    0.95    0.20
   2 -17  -3   14.65    0.66
  -2 -17   3   13.85    0.71
   2 -17  -3   14.28    0.67
   2  17  -3   13.46    0.67
  -2  17   3   14.91    0.77
  -2  17   3   13.72    0.66
  -1 -17   3    0.51    0.14
  -1 -17   3    0.54    0.17
   1 -17  -3    0.54    0.16
  -1 -17   3    0.62    0.18
  -1  17   3    0.41    0.19
   1  17  -3    0.38    0.15
   0 -17   3    4.85    0.34
   0 -17  -3    4.44    0.35
   0 -17  -3    4.48    0.32
   0 -17   3    4.84    0.34
   0 -17   3    4.30    0.37
   0  17  -3    3.80    0.35
   0  17   3    4.50    0.42
   1 -17   3   -0.16    0.08
   1 -17   3    0.07    0.12
   1 -17   3   -0.14    0.10
  -1 -17  -3   -0.03    0.12
  -1 -17  -3    0.16    0.11
   1  17   3   -0.05    0.12
  -1  17  -3    0.10    0.12
  -2 -17  -3    7.69    0.51
   2 -17   3    8.23    0.52
   2 -17   3    8.32    0.51
   2 -17   3    8.14    0.45
  -2  17  -3    7.42    0.51
   2  17   3    7.99    0.58
   3 -17   3    0.23    0.12
   3 -17   3    0.23    0.17
   3 -17   3    0.47    0.19
  -3 -17  -3    0.25    0.17
   3  17   3    0.37    0.18
  -3  17  -3    0.19    0.18
  -4 -18   3    3.64    0.38
   4 -18  -3    3.55    0.35
   4 -18  -3    3.93    0.33
  -4  18   3    3.47    0.37
   4  18  -3    3.66    0.38
   4  18  -3    3.79    0.35
  -4  18   3    3.76    0.43
   3 -18  -3    1.05    0.21
  -3 -18   3    1.37    0.25
   3 -18  -3    1.38    0.22
  -3  18   3    0.78    0.19
  -3  18   3    1.29    0.29
   3  18  -3    1.40    0.25
   2 -18  -3    1.95    0.26
  -2 -18   3    1.70    0.28
   2  18  -3    1.96    0.26
  -2  18   3    1.94    0.34
  -2  18   3    2.57    0.29
  -1 -18   3    1.37    0.26
  -1 -18   3    0.85    0.19
   1 -18  -3    1.03    0.19
  -1  18   3    0.75    0.24
   1  18  -3    0.99    0.20
   0 -18  -3    2.93    0.28
   0 -18  -3    2.23    0.28
   0 -18   3    2.68    0.28
   0 -18   3    2.46    0.27
   0 -18   3    2.63    0.32
   0  18  -3    2.35    0.30
   0  18   3    3.01    0.38
   1 -18   3    2.64    0.28
   1 -18   3    3.03    0.31
  -1 -18  -3    3.01    0.33
  -1 -18  -3    2.86    0.27
   1 -18   3    2.83    0.33
   1  18   3    2.90    0.35
  -1  18  -3    2.34    0.31
  -2 -18  -3    0.06    0.15
   2 -18   3    0.10    0.14
   2 -18   3   -0.06    0.10
   2 -18   3    0.09    0.15
   2  18   3    0.04    0.15
  -2  18  -3   -0.05    0.12
  -4 -19   3   13.82    0.75
   4 -19  -3   13.79    0.67
   4 -19  -3   14.46    0.73
  -4  19   3   13.52    0.73
  -4  19   3   13.71    0.80
   3 -19  -3    0.09    0.12
  -3 -19   3    0.11    0.15
   3 -19  -3    0.00    0.13
  -3  19   3    0.03    0.13
   3  19  -3   -0.12    0.10
  -3  19   3    0.25    0.20
   2 -19  -3    6.63    0.44
  -2  19   3    6.75    0.53
   2  19  -3    6.89    0.46
   1 -19  -3    0.66    0.17
  -1 -19   3    0.78    0.22
  -1  19   3    0.45    0.20
   1  19  -3    0.57    0.18
   0 -19   3    1.37    0.27
   0 -19   3    1.33    0.23
   0 -19  -3    1.45    0.24
   0 -19   3    1.58    0.25
   0  19  -3    1.08    0.23
   0  19   3    1.55    0.32
   1 -19   3    1.11    0.23
  -1 -19  -3    0.95    0.23
   1 -19   3    1.83    0.26
   1 -19   3    1.71    0.26
   1  19   3    1.01    0.27
  -1  19  -3    1.35    0.26
   2 -19   3   11.84    0.64
  -2 -19  -3   11.36    0.66
   2 -19   3   11.77    0.58
   2 -19   3   11.02    0.65
   2  19   3   11.94    0.76
  -2  19  -3    8.88    0.61
   3 -20  -3    4.32    0.37
   3 -20  -3    3.90    0.37
  -3 -20   3    4.70    0.47
   3  20  -3    3.64    0.35
  -3  20   3    4.62    0.41
  -3  20   3    3.64    0.43
   2 -20  -3   -0.06    0.11
  -2 -20   3    0.04    0.15
   2  20  -3    0.09    0.14
  -2  20   3   -0.07    0.15
   1 -20  -3    2.90    0.32
  -1 -20   3    3.03    0.35
   1  20  -3    2.85    0.33
  -1  20   3    3.55    0.41
   0 -20   3    0.03    0.14
   0 -20  -3    0.02    0.13
   0 -20   3    0.00    0.12
   0 -20   3    0.01    0.13
   0  20   3   -0.24    0.16
   0  20  -3    0.00    0.14
  -1 -20  -3    3.23    0.35
   1 -20   3    3.43    0.34
   1 -20   3    3.13    0.36
   1 -20   3    3.66    0.34
  -1  20  -3    3.51    0.38
   1  20   3    3.09    0.47
   8   0  -4    0.02    0.16
   8   0  -4    0.00    0.12
   8   0  -4   -0.14    0.08
  -8   0   4   -0.09    0.17
   7   0  -4   -0.02    0.12
  -7   0   4    0.05    0.16
   7   0  -4    0.07    0.07
   7   0  -4   -0.08    0.09
   6   0  -4    1.30    0.16
  -6   0   4    1.45    0.26
   6   0  -4    1.13    0.23
   6   0  -4    1.17    0.18
  -5   0   4    0.04    0.12
   5   0  -4    0.04    0.06
   5   0  -4   -0.05    0.08
   5   0  -4   -0.06    0.08
   4   0  -4    5.04    0.23
  -4   0   4    4.90    0.21
  -4   0   4    5.12    0.32
   4   0  -4    5.17    0.26
   4   0  -4    5.17    0.31
   4   0  -4    4.87    0.29
   3   0  -4   -0.05    0.05
  -3   0   4    0.04    0.05
   3   0  -4   -0.07    0.05
  -3   0   4   -0.06    0.05
  -3   0   4    0.07    0.09
  -3   0   4   -0.03    0.03
   3   0  -4   -0.01    0.04
   2   0  -4    3.06    0.18
  -2   0   4    2.87    0.19
  -2   0   4    3.52    0.24
   2   0  -4    2.88    0.17
  -2   0   4    3.42    0.17
  -2   0   4    3.31    0.19
   2   0  -4    3.37    0.20
  -1   0   4   -0.08    0.04
  -1   0   4   -0.01    0.07
   1   0  -4    0.01    0.06
   1   0  -4   -0.01    0.04
  -1   0   4   -0.01    0.04
   1   0  -4    0.00    0.05
  -1   0   4   -0.01    0.05
   0   0   4  111.02    3.49
   0   0   4  110.22    3.45
   0   0   4  111.36    3.41
   0   0  -4  114.48    3.40
   0   0   4  110.47    3.38
   0   0  -4  111.67    3.44
   0   0  -4  110.48    3.40
  -1   0  -4    0.03    0.06
  -1   0  -4    0.00    0.04
   1   0   4   -0.01    0.04
   1   0   4    0.11    0.08
   1   0   4    0.00    0.08
   1   0   4   -0.02    0.05
   2   0   4    2.46    0.23
   2   0   4    2.43    0.17
   2   0   4    2.69    0.26
   2   0   4    2.51    0.17
  -2   0  -4    2.55    0.21
   3   0   4   -0.06    0.08
   3   0   4   -0.03    0.05
  -3   0  -4   -0.05    0.08
   3   0   4   -0.02    0.09
   4   0   4    0.38    0.17
  -4   0  -4    0.41    0.13
  -4   0  -4    0.70    0.18
   5   0   4   -0.10    0.11
  -5   0  -4   -0.02    0.12
   5   0   4    0.12    0.06
  -5   0  -4    0.06    0.11
   6   0   4    8.21    0.38
   6   0   4    8.75    0.63
   8  -1  -4   23.92    1.03
   8  -1  -4   23.23    0.89
  -8  -1   4   23.67    1.09
   8  -1  -4   24.63    1.14
   8   1  -4   24.22    0.91
   8   1  -4   24.18    1.02
  -8   1   4   22.86    1.07
   8   1  -4   23.82    1.13
   7  -1  -4    1.81    0.24
  -7  -1   4    1.99    0.32
   7  -1  -4    1.76    0.18
   7  -1  -4    1.96    0.29
   7   1  -4    1.93    0.28
  -7   1   4    1.69    0.27
   7   1  -4    1.84    0.19
   7   1  -4    1.85    0.24
  -6  -1   4   34.68    1.33
   6  -1  -4   34.41    1.18
   6  -1  -4   34.18    1.28
   6  -1  -4   35.49    1.35
   6   1  -4   35.47    1.28
   6   1  -4   33.99    1.34
  -6   1   4   36.26    1.33
   6   1  -4   34.41    1.19
   5  -1  -4    0.59    0.16
  -5  -1   4    0.83    0.19
   5  -1  -4    0.72    0.15
   5  -1  -4    0.78    0.12
   5  -1  -4    0.69    0.10
   5   1  -4    0.90    0.18
  -5   1   4    0.60    0.16
   5   1  -4    0.48    0.10
   5   1  -4    0.51    0.13
   4  -1  -4    4.29    0.21
  -4  -1   4    4.43    0.20
   4  -1  -4    4.44    0.23
   4  -1  -4    4.53    0.30
   4  -1  -4    4.08    0.26
  -4  -1   4    4.39    0.30
   4   1  -4    4.00    0.23
   4   1  -4    4.02    0.28
  -4   1   4    3.81    0.29
   4   1  -4    4.60    0.20
  -4   1   4    4.18    0.30
   4   1  -4    4.32    0.26
  -3  -1   4    0.82    0.10
   3  -1  -4    0.75    0.12
  -3  -1   4    0.83    0.15
   3  -1  -4    0.79    0.10
   3  -1  -4    0.80    0.10
  -3  -1   4    0.90    0.09
   3   1  -4    0.80    0.12
  -3   1   4    0.77    0.07
   3   1  -4    0.89    0.09
  -3   1   4    0.59    0.11
   3   1  -4    0.68    0.12
   3   1  -4    0.81    0.11
  -3   1   4    0.93    0.10
  -3   1   4    0.83    0.15
   2  -1  -4  105.52    3.29
   2  -1  -4  109.49    3.30
   2  -1  -4  106.30    3.29
  -2  -1   4  110.75    3.36
  -2  -1   4  104.64    3.29
  -2  -1   4  106.21    3.28
  -2  -1   4  105.13    3.29
   2   1  -4  106.62    3.29
  -2   1   4  106.40    3.26
   2   1  -4  110.07    3.29
   2   1  -4  108.22    3.31
  -2   1   4  105.84    3.29
  -2   1   4  107.71    3.35
   1  -1  -4   10.01    0.38
  -1  -1   4   10.06    0.45
   1  -1  -4    9.89    0.38
  -1  -1   4    9.61    0.40
  -1  -1   4    9.85    0.36
  -1  -1   4    9.77    0.39
   1  -1  -4    9.13    0.39
   1   1  -4    9.52    0.39
  -1   1   4    9.76    0.39
   1   1  -4   10.43    0.39
  -1   1   4   10.27    0.44
  -1   1   4    9.76    0.38
  -1   1   4   10.16    0.39
   1   1  -4   10.20    0.39
   0  -1  -4  188.49    5.66
   0  -1   4  187.10    5.68
   0  -1   4  184.29    5.71
   0  -1   4  190.32    5.57
   0  -1  -4  184.91    5.62
   0  -1  -4  187.41    5.60
   0  -1   4  188.33    5.64
   0   1  -4  165.56    5.65
   0   1   4  190.84    5.62
   0   1   4  188.22    5.63
   0   1   4  187.11    5.67
   0   1   4  183.29    5.71
   0   1  -4  191.84    5.63
  -1  -1  -4    3.61    0.16
   1  -1   4    3.48    0.16
   1  -1   4    3.75    0.20
   1  -1   4    3.75    0.26
  -1  -1  -4    3.27    0.22
   1  -1   4    3.42    0.24
   1   1   4    3.68    0.20
  -1   1  -4    3.67    0.19
   1   1   4    3.76    0.20
   1   1   4    3.62    0.26
  -1   1  -4    3.43    0.22
   1   1   4    3.59    0.24
  -2  -1  -4   13.77    0.54
   2  -1   4   12.66    0.58
   2  -1   4   12.92    0.49
   2  -1   4   12.91    0.61
  -2   1  -4   13.48    0.49
   2   1   4   13.44    0.50
   2   1   4   12.86    0.58
   2   1   4   13.17    0.52
   2   1   4   13.56    0.62
  -2   1  -4   12.80    0.54
   3  -1   4    0.21    0.11
   3  -1   4    0.41    0.08
  -3  -1  -4    0.41    0.13
  -3  -1  -4    0.29    0.11
   3  -1   4    0.46    0.15
   3   1   4    0.37    0.14
   3   1   4    0.34    0.08
   3   1   4    0.37    0.14
  -3   1  -4    0.40    0.11
  -4  -1  -4    1.45    0.20
  -4  -1  -4    2.03    0.26
   4  -1   4    1.40    0.25
   4  -1   4    1.89    0.15
   4  -1   4    1.58    0.25
   4   1   4    1.50    0.24
   4   1   4    1.82    0.16
  -4   1  -4    1.95    0.22
   5  -1   4    1.16    0.13
   5  -1   4    1.29    0.27
  -5  -1  -4    1.43    0.26
   5   1   4    1.04    0.25
  -5   1  -4    1.36    0.22
   5   1   4    1.13    0.14
  -5   1  -4    1.27    0.25
   6  -1   4    1.85    0.16
   6  -1   4    1.91    0.34
  -6  -1  -4    1.26    0.28
   6   1   4    2.13    0.18
   6   1   4    1.73    0.33
  -6   1  -4    1.61    0.30
   8  -2  -4    0.04    0.09
  -8  -2   4    0.38    0.22
   8  -2  -4   -0.06    0.12
  -8   2   4    0.06    0.17
   8   2  -4   -0.05    0.08
  -8   2   4    0.20    0.21
   8   2  -4    0.39    0.16
   8   2  -4    0.13    0.18
   7  -2  -4    4.20    0.26
   7  -2  -4    3.84    0.39
  -7  -2   4    4.24    0.41
   7  -2  -4    3.90    0.32
   7   2  -4    4.45    0.28
  -7   2   4    3.16    0.35
  -7   2   4    4.19    0.38
   7   2  -4    4.17    0.39
   7   2  -4    4.25    0.33
   6  -2  -4   -0.01    0.07
   6  -2  -4   -0.08    0.09
  -6  -2   4    0.24    0.15
   6  -2  -4    0.11    0.13
  -6   2   4    0.12    0.12
  -6   2   4    0.30    0.15
   6   2  -4   -0.02    0.09
   6   2  -4   -0.24    0.08
   6   2  -4   -0.04    0.06
  -5  -2   4   15.65    0.70
   5  -2  -4   16.16    0.67
   5  -2  -4   15.74    0.58
  -5  -2   4   15.68    0.62
   5  -2  -4   15.18    0.59
   5   2  -4   15.44    0.60
  -5   2   4   15.59    0.69
   5   2  -4   15.22    0.65
   5   2  -4   15.47    0.69
  -4  -2   4    0.05    0.05
  -4  -2   4   -0.07    0.09
   4  -2  -4    0.04    0.08
   4  -2  -4    0.11    0.06
   4  -2  -4    0.04    0.05
   4   2  -4    0.07    0.06
  -4   2   4    0.24    0.11
   4   2  -4    0.04    0.04
   4   2  -4   -0.02    0.07
   4   2  -4    0.03    0.08
  -4   2   4    0.15    0.10
  -3  -2   4   28.87    1.07
  -3  -2   4   30.13    0.99
   3  -2  -4   28.91    0.99
   3  -2  -4   29.53    0.99
  -3  -2   4   30.10    0.98
   3  -2  -4   30.19    1.02
  -3   2   4   29.81    0.98
   3   2  -4   30.85    1.00
  -3   2   4   29.68    1.05
  -3   2   4   29.72    0.92
   3   2  -4   28.49    1.02
   3   2  -4   29.63    0.96
   3   2  -4   30.20    1.03
   2  -2  -4   30.59    1.01
   2  -2  -4   29.98    1.02
  -2  -2   4   30.19    1.02
   2  -2  -4   29.93    1.01
  -2  -2   4   31.92    1.08
  -2  -2   4   31.19    1.01
  -2   2   4   31.08    0.98
   2   2  -4   30.71    1.01
  -2   2   4   30.86    1.05
  -2   2   4   30.55    1.01
   2   2  -4   30.57    1.04
   2   2  -4   30.63    1.01
  -2   2   4   31.03    1.07
   1  -2  -4   25.87    0.84
  -1  -2   4   25.70    0.88
  -1  -2   4   24.67    0.91
   1  -2  -4   24.93    0.87
  -1  -2   4   26.27    0.86
  -1  -2   4   24.68    0.80
   1  -2  -4   25.42    0.85
   1   2  -4   24.37    0.86
  -1   2   4   25.69    0.87
   1   2  -4   25.06    0.87
   1   2  -4   26.21    0.85
  -1   2   4   25.88    0.86
  -1   2   4   25.21    0.85
  -1   2   4   26.40    0.92
   0  -2   4   46.42    1.48
   0  -2   4   44.92    1.54
   0  -2   4   47.45    1.52
   0  -2  -4   45.05    1.43
   0  -2  -4   45.29    1.50
   0  -2  -4   45.75    1.46
   0   2   4   47.34    1.56
   0   2  -4   45.28    1.50
   0   2   4   45.75    1.48
   0   2  -4   47.34    1.48
   0   2   4   46.67    1.50
   0   2   4   46.78    1.48
  -1  -2  -4    6.62    0.24
   1  -2   4    6.86    0.30
   1  -2   4    7.01    0.36
   1  -2   4    6.79    0.37
  -1  -2  -4    6.47    0.32
   1   2   4    6.63    0.30
   1   2   4    6.49    0.37
   1   2   4    7.07    0.31
  -1   2  -4    6.64    0.33
  -1   2  -4    7.18    0.30
   1   2   4    7.18    0.36
   2  -2   4    2.91    0.26
   2  -2   4    2.96    0.18
  -2  -2  -4    2.62    0.21
  -2  -2  -4    3.08    0.26
   2  -2   4    3.23    0.25
   2   2   4    3.62    0.29
  -2   2  -4    3.11    0.22
   2   2   4    3.18    0.22
  -2   2  -4    3.17    0.20
   2   2   4    3.31    0.20
   2   2   4    2.87    0.25
   3  -2   4    5.10    0.35
   3  -2   4    5.21    0.25
  -3  -2  -4    5.26    0.31
   3  -2   4    5.02    0.36
  -3  -2  -4    3.84    0.31
   3   2   4    4.85    0.26
   3   2   4    5.35    0.32
   3   2   4    5.55    0.39
  -3   2  -4    5.08    0.31
   4  -2   4    6.49    0.46
   4  -2   4    7.08    0.31
  -4  -2  -4    6.50    0.37
  -4  -2  -4    6.29    0.43
   4  -2   4    6.86    0.45
   4   2   4    6.45    0.32
   4   2   4    7.60    0.50
  -4   2  -4    7.17    0.39
   5  -2   4    3.07    0.19
   5  -2   4    2.43    0.33
  -5  -2  -4    2.38    0.31
  -5   2  -4    2.63    0.26
  -5   2  -4    2.73    0.32
   5   2   4    2.81    0.21
   5   2   4    2.74    0.35
  -6  -2  -4    0.30    0.18
   6  -2   4    0.19    0.07
   6  -2   4    0.11    0.18
   6   2   4    0.22    0.18
   6   2   4    0.23    0.10
  -6   2  -4    0.15    0.16
   8  -3  -4    4.04    0.26
   8  -3  -4    3.37    0.34
  -8  -3   4    3.09    0.38
   8   3  -4    3.56    0.28
  -8   3   4    3.35    0.39
   8   3  -4    3.48    0.33
   8   3  -4    3.13    0.39
   7  -3  -4    0.10    0.07
   7  -3  -4    0.11    0.11
  -7  -3   4    0.07    0.16
  -7   3   4   -0.20    0.14
  -7   3   4    0.12    0.15
   7   3  -4   -0.08    0.11
   7   3  -4    0.05    0.09
   7   3  -4   -0.10    0.08
  -6  -3   4    7.24    0.49
   6  -3  -4    7.72    0.36
   6  -3  -4    7.94    0.45
  -6   3   4    7.01    0.47
   6   3  -4    7.78    0.48
   6   3  -4    7.44    0.37
   6   3  -4    7.53    0.42
  -6   3   4    7.68    0.47
   5  -3  -4    0.08    0.07
  -5  -3   4    0.12    0.13
   5  -3  -4    0.10    0.06
  -5  -3   4    0.18    0.08
   5  -3  -4    0.11    0.09
   5   3  -4    0.07    0.08
  -5   3   4    0.00    0.12
   5   3  -4    0.14    0.08
  -5   3   4   -0.03    0.10
   5   3  -4    0.16    0.12
   4  -3  -4   19.20    0.74
   4  -3  -4   18.63    0.69
   4  -3  -4   19.24    0.69
  -4  -3   4   19.77    0.79
  -4  -3   4   19.02    0.68
   4   3  -4   20.00    0.75
  -4   3   4   18.62    0.78
   4   3  -4   19.43    0.70
   4   3  -4   20.22    0.76
  -4   3   4   19.59    0.77
   4   3  -4   18.35    0.63
   3  -3  -4    4.14    0.24
  -3  -3   4    4.75    0.23
   3  -3  -4    4.29    0.23
  -3  -3   4    3.95    0.22
   3  -3  -4    4.20    0.22
  -3  -3   4    4.32    0.29
   3   3  -4    4.57    0.25
   3   3  -4    4.14    0.23
   3   3  -4    3.84    0.19
  -3   3   4    4.13    0.27
   3   3  -4    4.41    0.25
  -3   3   4    4.37    0.28
  -3   3   4    3.87    0.21
  -2  -3   4   38.71    1.24
   2  -3  -4   37.49    1.24
  -2  -3   4   37.84    1.29
   2  -3  -4   35.84    1.23
  -2  -3   4   37.92    1.24
  -2   3   4   39.72    1.23
   2   3  -4   37.14    1.22
   2   3  -4   38.94    1.23
   2   3  -4   37.49    1.26
  -2   3   4   38.25    1.19
   2   3  -4   38.01    1.22
  -2   3   4   38.00    1.28
  -2   3   4   37.24    1.28
   1  -3  -4    3.40    0.19
   1  -3  -4    3.55    0.18
   1  -3  -4    3.31    0.20
  -1  -3   4    3.38    0.21
  -1  -3   4    3.58    0.20
  -1  -3   4    3.75    0.24
   1   3  -4    3.56    0.19
  -1   3   4    3.65    0.19
   1   3  -4    3.48    0.20
  -1   3   4    3.12    0.20
   1   3  -4    3.24    0.20
  -1   3   4    3.36    0.19
  -1   3   4    3.58    0.24
   0  -3  -4   37.87    1.25
   0  -3  -4   38.42    1.21
   0  -3   4   39.50    1.30
   0  -3  -4   39.41    1.28
   0  -3   4   38.60    1.31
   0  -3   4   39.16    1.25
   0   3   4   39.29    1.28
   0   3   4   38.03    1.26
   0   3   4   39.20    1.28
   0   3   4   39.09    1.33
   0   3  -4   39.22    1.26
   0   3  -4   36.16    1.27
  -1  -3  -4    1.32    0.16
  -1  -3  -4    1.42    0.15
   1  -3   4    1.49    0.17
   1  -3   4    1.66    0.18
   1  -3   4    1.45    0.13
   1   3   4    1.52    0.14
  -1   3  -4    1.70    0.15
   1   3   4    1.31    0.14
   1   3   4    1.51    0.17
  -1   3  -4    1.44    0.15
   1   3   4    1.65    0.19
  -2  -3  -4   27.22    1.04
   2  -3   4   28.79    1.05
   2  -3   4   28.75    1.06
   2  -3   4   28.29    0.94
  -2  -3  -4   27.69    0.98
   2   3   4   28.66    1.00
  -2   3  -4   28.81    1.00
   2   3   4   26.38    1.07
   2   3   4   27.27    0.95
  -2   3  -4   28.09    0.96
   3  -3   4    2.73    0.27
   3  -3   4    2.58    0.27
  -3  -3  -4    2.92    0.27
  -3  -3  -4    2.58    0.22
   3  -3   4    2.48    0.16
   3   3   4    2.56    0.29
  -3   3  -4    2.33    0.22
   3   3   4    2.70    0.23
   3   3   4    2.43    0.19
   4  -3   4   14.02    0.70
   4  -3   4   13.70    0.51
  -4  -3  -4   14.63    0.60
  -4  -3  -4   13.42    0.67
   4  -3   4   13.67    0.68
   4   3   4   13.53    0.54
  -4   3  -4   13.74    0.62
   4   3   4   13.91    0.73
   5  -3   4    0.47    0.19
   5  -3   4    0.79    0.23
  -5  -3  -4    0.92    0.23
   5  -3   4    0.69    0.11
  -5   3  -4    0.64    0.16
   5   3   4    0.65    0.22
  -5   3  -4    0.85    0.21
   5   3   4    0.86    0.13
  -6  -3  -4    3.18    0.38
   6  -3   4    3.27    0.20
   6  -3   4    2.95    0.39
   6   3   4    3.08    0.41
  -6   3  -4    3.11    0.37
   6   3   4    3.24    0.24
   8  -4  -4    1.81    0.19
   8  -4  -4    2.07    0.29
  -8  -4   4    1.66    0.33
  -8   4   4    1.82    0.32
   8   4  -4    2.17    0.23
  -8   4   4    1.69    0.33
   8   4  -4    1.94    0.32
   8   4  -4    2.10    0.27
   7  -4  -4    0.49    0.16
   7  -4  -4    0.43    0.10
  -7  -4   4    0.44    0.19
  -7   4   4    0.70    0.21
  -7   4   4    0.69    0.20
   7   4  -4    0.46    0.12
   7   4  -4    0.34    0.14
   7   4  -4    0.30    0.17
   6  -4  -4    3.35    0.22
  -6  -4   4    3.13    0.34
   6  -4  -4    3.36    0.29
  -6   4   4    2.86    0.31
  -6   4   4    3.42    0.31
   6   4  -4    3.42    0.24
   6   4  -4    3.82    0.29
   6   4  -4    3.18    0.32
   5  -4  -4    2.30    0.22
  -5  -4   4    2.50    0.20
   5  -4  -4    2.35    0.18
   5  -4  -4    2.21    0.18
  -5  -4   4    2.17    0.27
  -5   4   4    2.59    0.25
   5   4  -4    2.65    0.23
   5   4  -4    2.11    0.24
  -5   4   4    2.44    0.27
   5   4  -4    2.33    0.19
   4  -4  -4    5.00    0.31
   4  -4  -4    5.83    0.29
  -4  -4   4    5.41    0.36
  -4  -4   4    5.76    0.29
   4  -4  -4    5.90    0.28
  -4   4   4    5.80    0.34
   4   4  -4    6.24    0.34
   4   4  -4    5.40    0.32
   4   4  -4    5.68    0.29
  -4   4   4    4.43    0.33
  -3  -4   4   18.40    0.67
  -3  -4   4   18.64    0.68
   3  -4  -4   17.62    0.67
   3  -4  -4   18.76    0.67
   3  -4  -4   18.96    0.70
  -3  -4   4   18.73    0.75
  -3   4   4   19.62    0.73
  -3   4   4   17.23    0.68
  -3   4   4   21.24    0.77
   3   4  -4   18.26    0.67
   3   4  -4   19.59    0.72
   3   4  -4   18.84    0.70
   3   4  -4   19.05    0.64
  -2  -4   4    0.32    0.08
  -2  -4   4    0.32    0.08
   2  -4  -4    0.43    0.09
   2  -4  -4    0.28    0.06
   2  -4  -4    0.22    0.08
   2  -4  -4    0.36    0.08
  -2  -4   4    0.31    0.10
   2   4  -4    0.37    0.07
   2   4  -4    0.34    0.07
  -2   4   4    0.39    0.08
  -2   4   4    0.54    0.12
   2   4  -4    0.37    0.09
   2   4  -4    0.35    0.07
  -2   4   4    0.32    0.09
   1  -4  -4   16.99    0.63
   1  -4  -4   18.30    0.63
  -1  -4   4   17.42    0.66
   1  -4  -4   18.08    0.65
  -1  -4   4   17.66    0.63
   1  -4  -4   17.83    0.61
  -1  -4   4   17.76    0.68
  -1   4   4   18.28    0.63
  -1   4   4   17.47    0.68
   1   4  -4   17.54    0.62
   1   4  -4   17.59    0.64
  -1   4   4   17.25    0.67
   1   4  -4   17.96    0.65
   0  -4  -4    2.01    0.11
   0  -4  -4    2.01    0.16
   0  -4  -4    2.06    0.15
   0  -4  -4    1.98    0.17
   0  -4   4    2.16    0.19
   0  -4   4    2.00    0.18
   0  -4   4    2.02    0.15
   0   4  -4    1.94    0.16
   0   4   4    2.08    0.20
   0   4  -4    2.37    0.17
   0   4   4    2.26    0.16
   0   4   4    1.96    0.17
   1  -4   4    3.08    0.24
  -1  -4  -4    3.09    0.23
  -1  -4  -4    3.39    0.22
   1  -4   4    3.10    0.23
   1  -4   4    3.36    0.19
  -1   4  -4    3.07    0.20
   1   4   4    3.29    0.22
   1   4   4    2.93    0.19
  -1   4  -4    2.72    0.21
   1   4   4    2.78    0.24
  -2  -4  -4    1.86    0.18
  -2  -4  -4    1.91    0.22
   2  -4   4    1.95    0.15
   2  -4   4    2.05    0.22
   2  -4   4    1.75    0.21
   2   4   4    2.01    0.19
  -2   4  -4    2.14    0.20
  -2   4  -4    2.07    0.18
   2   4   4    1.78    0.23
   2   4   4    1.76    0.16
   3  -4   4    4.97    0.35
   3  -4   4    5.18    0.25
   3  -4   4    4.73    0.36
  -3  -4  -4    5.33    0.31
  -3  -4  -4    5.31    0.36
   3   4   4    4.99    0.33
  -3   4  -4    5.35    0.30
   3   4   4    5.21    0.28
   3   4   4    5.03    0.38
  -3   4  -4    5.57    0.32
  -4  -4  -4    0.11    0.10
   4  -4   4    0.39    0.15
   4  -4   4    0.33    0.08
   4  -4   4    0.18    0.13
  -4  -4  -4    0.22    0.15
   4   4   4    0.32    0.17
   4   4   4    0.16    0.09
   4   4   4    0.27    0.13
  -4   4  -4    0.21    0.12
   5  -4   4    5.13    0.42
   5  -4   4    4.83    0.41
  -5  -4  -4    4.60    0.42
   5  -4   4    5.06    0.25
   5   4   4    4.86    0.29
   5   4   4    5.07    0.47
  -5   4  -4    4.79    0.35
  -8  -5   4    0.01    0.19
   8  -5  -4    0.08    0.12
   8  -5  -4   -0.02    0.08
   8   5  -4   -0.07    0.16
   8   5  -4   -0.12    0.08
   8   5  -4   -0.01    0.11
  -8   5   4    0.17    0.19
  -8   5   4    0.22    0.17
  -7  -5   4    1.39    0.27
   7  -5  -4    1.69    0.25
   7  -5  -4    1.09    0.15
   7   5  -4    1.17    0.18
  -7   5   4    1.16    0.25
  -7   5   4    1.04    0.23
   7   5  -4    1.16    0.20
   7   5  -4    1.61    0.28
  -6  -5   4    2.31    0.29
   6  -5  -4    2.23    0.25
   6  -5  -4    2.10    0.18
   6  -5  -4    2.26    0.20
  -6   5   4    2.21    0.27
  -6   5   4    1.99    0.27
   6   5  -4    2.48    0.21
   6   5  -4    1.86    0.23
   6   5  -4    1.87    0.26
   5  -5  -4    4.17    0.29
  -5  -5   4    3.89    0.26
   5  -5  -4    3.61    0.23
  -5  -5   4    4.02    0.34
   5  -5  -4    3.79    0.25
  -5   5   4    2.80    0.29
  -5   5   4    4.19    0.31
   5   5  -4    4.71    0.30
   5   5  -4    4.35    0.26
   5   5  -4    4.40    0.32
   4  -5  -4   43.84    1.45
  -4  -5   4   42.87    1.41
  -4  -5   4   41.75    1.49
   4  -5  -4   41.70    1.40
   4  -5  -4   40.49    1.38
   4   5  -4   42.28    1.40
   4   5  -4   41.39    1.44
   4   5  -4   42.66    1.46
  -4   5   4   43.06    1.45
  -3  -5   4    5.95    0.30
   3  -5  -4    5.96    0.29
  -3  -5   4    5.95    0.35
   3  -5  -4    6.16    0.31
   3  -5  -4    5.79    0.28
  -3  -5   4    5.93    0.29
   3   5  -4    5.74    0.29
   3   5  -4    5.75    0.30
   3   5  -4    5.37    0.24
   3   5  -4    6.23    0.32
  -3   5   4    6.19    0.33
  -3   5   4    5.68    0.35
   2  -5  -4   16.12    0.63
  -2  -5   4   17.37    0.64
  -2  -5   4   17.20    0.63
   2  -5  -4   16.46    0.62
   2  -5  -4   16.71    0.57
  -2  -5   4   17.06    0.67
   2  -5  -4   17.37    0.63
   2   5  -4   16.70    0.60
   2   5  -4   16.53    0.60
  -2   5   4   17.76    0.62
  -2   5   4   17.62    0.68
   2   5  -4   17.30    0.62
  -2   5   4   17.49    0.67
   2   5  -4   17.49    0.66
  -1  -5   4    5.23    0.28
   1  -5  -4    5.08    0.25
  -1  -5   4    5.27    0.26
   1  -5  -4    5.63    0.26
   1  -5  -4    4.95    0.26
   1  -5  -4    5.61    0.24
  -1   5   4    5.30    0.30
   1   5  -4    5.35    0.19
  -1   5   4    5.27    0.26
   1   5  -4    5.14    0.26
   1   5  -4    5.35    0.25
  -1   5   4    5.37    0.30
   1   5  -4    5.21    0.28
   0  -5  -4    3.74    0.21
   0  -5   4    4.32    0.26
   0  -5  -4    4.21    0.24
   0  -5   4    3.97    0.25
   0  -5  -4    4.15    0.17
   0  -5  -4    4.17    0.24
   0  -5   4    4.31    0.22
   0   5   4    3.98    0.22
   0   5   4    4.00    0.27
   0   5  -4    4.26    0.25
   0   5  -4    3.71    0.23
   0   5   4    3.84    0.25
  -1  -5  -4    5.91    0.31
   1  -5   4    6.11    0.34
  -1  -5  -4    5.78    0.33
   1  -5   4    5.89    0.33
   1  -5   4    5.98    0.28
  -1   5  -4    6.55    0.32
   1   5   4    6.12    0.36
  -1   5  -4    6.33    0.32
   1   5   4    6.20    0.33
   1   5   4    5.77    0.29
  -2  -5  -4   15.13    0.65
   2  -5   4   14.31    0.54
   2  -5   4   15.52    0.65
  -2  -5  -4   15.17    0.60
   2  -5   4   15.00    0.65
   2   5   4   14.97    0.63
   2   5   4   14.97    0.68
  -2   5  -4   15.07    0.60
   2   5   4   14.18    0.57
  -2   5  -4   14.80    0.61
   3  -5   4    3.28    0.28
  -3  -5  -4    3.15    0.29
  -3  -5  -4    3.45    0.25
   3  -5   4    2.67    0.26
   3  -5   4    3.11    0.19
   3   5   4    3.07    0.22
  -3   5  -4    3.24    0.24
   3   5   4    3.10    0.27
  -3   5  -4    2.82    0.24
   3   5   4    3.31    0.31
   4  -5   4    2.05    0.15
   4  -5   4    1.98    0.25
  -4  -5  -4    2.05    0.21
   4  -5   4    2.07    0.27
  -4  -5  -4    2.15    0.28
  -4   5  -4    1.95    0.23
   4   5   4    1.40    0.28
   4   5   4    2.32    0.20
   4   5   4    2.10    0.25
   5  -5   4    0.41    0.09
   5  -5   4    0.50    0.18
  -5  -5  -4    0.37    0.18
   5  -5   4    0.47    0.17
  -5   5  -4    0.37    0.15
   5   5   4    0.44    0.12
   5   5   4    0.36    0.19
   8  -6  -4    0.28    0.15
  -8  -6   4    0.35    0.22
   8  -6  -4    0.39    0.11
   8   6  -4    0.02    0.16
  -8   6   4    0.28    0.18
   8   6  -4    0.53    0.17
   8   6  -4    0.35    0.13
   7  -6  -4    1.17    0.16
  -7  -6   4    1.51    0.30
   7  -6  -4    1.15    0.22
  -7   6   4    1.45    0.25
  -7   6   4    1.01    0.24
   7   6  -4    1.40    0.21
   7   6  -4    1.52    0.20
   7   6  -4    1.35    0.27
   6  -6  -4    0.62    0.16
  -6  -6   4    0.78    0.20
   6  -6  -4    0.91    0.13
  -6  -6   4    0.76    0.15
   6  -6  -4    0.75    0.14
   6   6  -4    0.75    0.20
   6   6  -4    0.72    0.16
   6   6  -4    1.04    0.17
  -6   6   4    0.66    0.17
  -6   6   4    0.48    0.18
   5  -6  -4   -0.08    0.08
  -5  -6   4    0.06    0.13
  -5  -6   4   -0.09    0.08
   5  -6  -4   -0.06    0.07
   5  -6  -4    0.00    0.06
   5   6  -4   -0.13    0.08
   5   6  -4   -0.04    0.07
  -5   6   4   -0.14    0.09
   5   6  -4    0.11    0.08
  -5   6   4    0.22    0.14
   4  -6  -4    8.16    0.41
  -4  -6   4    8.19    0.39
   4  -6  -4    8.63    0.39
   4  -6  -4    8.68    0.37
  -4  -6   4    7.70    0.45
   4   6  -4    8.17    0.38
   4   6  -4    8.30    0.41
  -4   6   4    7.44    0.45
  -4   6   4    8.46    0.42
   4   6  -4    8.23    0.42
  -3  -6   4    9.19    0.50
   3  -6  -4   11.62    0.46
  -3  -6   4   11.49    0.48
   3  -6  -4   11.47    0.47
  -3  -6   4   11.33    0.46
   3  -6  -4   11.57    0.48
   3   6  -4   11.46    0.49
   3   6  -4   11.21    0.47
   3   6  -4   11.25    0.46
   3   6  -4   10.63    0.40
  -3   6   4   11.54    0.49
   2  -6  -4   12.96    0.50
   2  -6  -4   12.51    0.51
  -2  -6   4   12.51    0.52
   2  -6  -4   12.51    0.50
   2  -6  -4   12.58    0.45
  -2  -6   4   12.56    0.54
  -2  -6   4   13.25    0.51
  -2   6   4   13.16    0.54
   2   6  -4   12.24    0.48
   2   6  -4   13.41    0.54
  -2   6   4   12.57    0.56
   2   6  -4   12.89    0.49
   2   6  -4   12.68    0.47
  -2   6   4   13.70    0.49
   1  -6  -4   37.73    1.38
  -1  -6   4   42.59    1.43
  -1  -6   4   44.80    1.40
   1  -6  -4   43.95    1.36
   1  -6  -4   45.37    1.41
   1  -6  -4   40.54    1.38
  -1   6   4   44.19    1.39
   1   6  -4   41.93    1.31
   1   6  -4   43.06    1.37
  -1   6   4   42.02    1.45
   1   6  -4   41.66    1.41
  -1   6   4   42.59    1.44
   1   6  -4   43.46    1.39
   0  -6   4    0.04    0.07
   0  -6  -4   -0.01    0.03
   0  -6   4    0.00    0.06
   0  -6  -4    0.01    0.05
   0  -6  -4    0.02    0.05
   0  -6  -4   -0.02    0.07
   0  -6   4   -0.02    0.05
   0   6   4   -0.03    0.07
   0   6   4    0.12    0.09
   0   6  -4   -0.11    0.06
   0   6   4    0.01    0.06
   0   6  -4   -0.01    0.06
   1  -6   4    4.39    0.23
   1  -6   4    4.12    0.27
  -1  -6  -4    3.77    0.27
  -1  -6  -4    4.47    0.25
   1  -6   4    3.71    0.28
  -1   6  -4    4.61    0.27
   1   6   4    4.27    0.29
   1   6   4    4.32    0.29
  -1   6  -4    4.17    0.26
   1   6   4    4.09    0.24
  -2  -6  -4   13.49    0.55
   2  -6   4   13.76    0.62
   2  -6   4   13.86    0.60
  -2  -6  -4   12.68    0.60
   2  -6   4   13.41    0.51
   2   6   4   13.90    0.61
  -2   6  -4   13.59    0.56
  -2   6  -4   13.08    0.57
   2   6   4   12.47    0.63
   2   6   4   13.09    0.53
   3  -6   4    6.95    0.42
   3  -6   4    7.19    0.31
   3  -6   4    7.47    0.44
  -3  -6  -4    5.07    0.39
  -3  -6  -4    6.57    0.35
   3   6   4    7.52    0.48
  -3   6  -4    7.48    0.40
   3   6   4    6.96    0.41
  -3   6  -4    7.71    0.39
   3   6   4    7.39    0.36
   4  -6   4    8.59    0.36
  -4  -6  -4    6.97    0.48
   4  -6   4    9.28    0.53
   4  -6   4    8.58    0.50
   4   6   4    8.85    0.58
  -4   6  -4    8.86    0.46
   4   6   4    8.37    0.50
   4   6   4    8.46    0.41
  -5  -6  -4    9.66    0.64
   5  -6   4   12.89    0.69
   5  -6   4   12.16    0.46
  -5   6  -4   11.19    0.58
   5   6   4   12.88    0.55
   5   6   4   12.61    0.75
   8  -7  -4   -0.05    0.11
  -8  -7   4   -0.01    0.17
   8  -7  -4   -0.03    0.07
   8   7  -4   -0.03    0.13
   8   7  -4   -0.08    0.09
  -8   7   4    0.03    0.15
   8   7  -4   -0.08    0.14
   7  -7  -4    2.28    0.28
   7  -7  -4    2.06    0.20
  -7  -7   4    2.71    0.35
   7   7  -4    2.18    0.25
   7   7  -4    2.43    0.31
   7   7  -4    2.55    0.25
  -7   7   4    2.64    0.36
   6  -7  -4   12.30    0.56
  -6  -7   4   12.54    0.58
  -6  -7   4   12.75    0.68
   6  -7  -4   12.00    0.52
   6  -7  -4   12.67    0.63
   6   7  -4   13.06    0.67
   6   7  -4   12.45    0.59
  -6   7   4   13.42    0.70
   6   7  -4   13.32    0.57
  -6   7   4   12.50    0.61
  -5  -7   4   10.48    0.49
   5  -7  -4    9.61    0.51
   5  -7  -4   10.60    0.47
  -5  -7   4   10.23    0.56
   5  -7  -4   10.05    0.44
   5   7  -4   10.25    0.53
  -5   7   4    9.84    0.57
  -5   7   4    9.86    0.49
   5   7  -4    9.48    0.49
   5   7  -4    9.91    0.46
   4  -7  -4  126.12    3.94
   4  -7  -4  124.77    3.91
  -4  -7   4  123.06    3.95
   4  -7  -4  124.96    3.97
   4   7  -4  128.54    3.99
  -4   7   4  134.39    4.07
   4   7  -4  126.99    3.93
   4   7  -4  124.16    3.97
  -4   7   4  126.99    3.96
  -3  -7   4    3.89    0.26
   3  -7  -4    3.89    0.25
   3  -7  -4    4.08    0.25
  -3  -7   4    3.17    0.27
   3  -7  -4    4.07    0.24
  -3  -7   4    3.73    0.24
   3   7  -4    4.04    0.25
   3   7  -4    3.77    0.26
  -3   7   4    4.48    0.31
   3   7  -4    4.12    0.24
   3   7  -4    3.84    0.19
  -3   7   4    4.22    0.26
   2  -7  -4   77.21    2.47
   2  -7  -4   79.57    2.55
  -2  -7   4   81.01    2.54
  -2  -7   4   80.39    2.57
   2  -7  -4   81.91    2.53
  -2  -7   4   79.39    2.57
   2  -7  -4   81.79    2.53
   2   7  -4   83.09    2.58
  -2   7   4   75.80    2.60
   2   7  -4   81.53    2.51
   2   7  -4   82.06    2.51
  -2   7   4   82.39    2.57
   2   7  -4   81.56    2.52
  -2   7   4   81.39    2.52
  -1  -7   4    7.85    0.39
   1  -7  -4    8.07    0.37
  -1  -7   4    7.78    0.35
   1  -7  -4    7.70    0.35
   1  -7  -4    7.99    0.33
   1   7  -4    7.59    0.30
  -1   7   4    8.43    0.36
  -1   7   4    8.31    0.39
  -1   7   4    7.49    0.41
   1   7  -4    8.38    0.39
   1   7  -4    7.66    0.35
   0  -7   4   12.23    0.49
   0  -7  -4   13.56    0.52
   0  -7   4   12.22    0.52
   0   7   4   12.74    0.50
   0   7  -4   12.85    0.51
   0   7   4   13.17    0.56
   0   7  -4   12.07    0.53
   0   7   4   11.84    0.55
  -1  -7  -4    0.00    0.08
  -1  -7  -4    0.07    0.07
   1  -7   4    0.01    0.08
   1  -7   4    0.03    0.06
   1  -7   4    0.12    0.08
   1   7   4    0.06    0.07
   1   7   4    0.13    0.10
  -1   7  -4    0.11    0.09
   1   7   4    0.02    0.08
  -1   7  -4    0.13    0.09
   2  -7   4   28.30    1.07
   2  -7   4   27.94    0.95
   2  -7   4   27.91    1.03
  -2  -7  -4   26.41    0.98
  -2  -7  -4   28.33    1.07
  -2   7  -4   28.46    1.02
   2   7   4   28.22    0.99
   2   7   4   28.20    1.11
  -2   7  -4   27.05    1.01
   2   7   4   28.29    1.07
   3  -7   4    2.59    0.28
   3  -7   4    2.99    0.19
  -3  -7  -4    2.52    0.21
   3  -7   4    2.65    0.26
  -3  -7  -4    3.30    0.30
  -3   7  -4    2.92    0.26
  -3   7  -4    2.98    0.25
   3   7   4    2.81    0.22
   3   7   4    2.76    0.31
   3   7   4    2.82    0.27
   4  -7   4   16.50    0.79
   4  -7   4   16.15    0.60
  -4  -7  -4   16.93    0.81
  -4   7  -4   15.80    0.71
   4   7   4   16.02    0.78
   4   7   4   16.98    0.85
   4   7   4   17.90    0.68
   5  -7   4    2.03    0.32
   5  -7   4    2.47    0.17
  -5  -7  -4    2.42    0.33
  -5   7  -4    2.85    0.29
   5   7   4    2.57    0.25
   5   7   4    2.67    0.36
  -8  -8   4    0.11    0.19
   8  -8  -4    0.26    0.10
   8  -8  -4    0.32    0.16
   8   8  -4    0.17    0.13
   8   8  -4    0.18    0.19
  -8   8   4    0.27    0.19
   7  -8  -4    6.80    0.36
   7  -8  -4    7.73    0.50
  -7  -8   4    5.96    0.48
  -7   8   4    6.89    0.53
   7   8  -4    6.63    0.40
   7   8  -4    7.14    0.44
   7   8  -4    7.04    0.52
   6  -8  -4   -0.07    0.07
  -6  -8   4   -0.05    0.10
   6  -8  -4    0.01    0.09
  -6  -8   4    0.20    0.17
   6  -8  -4   -0.01    0.09
   6   8  -4    0.00    0.10
   6   8  -4   -0.03    0.11
  -6   8   4    0.07    0.15
   6   8  -4    0.00    0.08
   5  -8  -4   12.86    0.56
   5  -8  -4   11.85    0.51
   5  -8  -4   13.28    0.61
  -5  -8   4   12.66    0.57
   5   8  -4   12.83    0.58
  -5   8   4   12.63    0.66
   5   8  -4   11.88    0.61
   5   8  -4   11.87    0.54
  -5   8   4   12.53    0.56
   4  -8  -4    2.49    0.20
   4  -8  -4    2.70    0.24
  -4  -8   4    2.14    0.25
   4  -8  -4    2.26    0.21
  -4  -8   4    1.97    0.22
  -4   8   4    2.23    0.22
   4   8  -4    2.18    0.23
   4   8  -4    2.76    0.24
  -4   8   4    2.65    0.29
   4   8  -4    2.11    0.19
  -3  -8   4    4.74    0.31
   3  -8  -4    4.82    0.28
   3  -8  -4    4.42    0.26
  -3  -8   4    4.19    0.26
  -3  -8   4    4.44    0.29
   3  -8  -4    4.65    0.28
   3   8  -4    4.33    0.27
   3   8  -4    4.57    0.30
   3   8  -4    4.90    0.27
  -3   8   4    4.50    0.34
   3   8  -4    4.33    0.21
  -3   8   4    4.79    0.28
  -2  -8   4    0.03    0.07
  -2  -8   4    0.09    0.08
   2  -8  -4    0.06    0.07
   2  -8  -4    0.16    0.06
  -2  -8   4    0.06    0.09
   2  -8  -4    0.19    0.08
   2  -8  -4    0.06    0.07
   2   8  -4    0.09    0.07
   2   8  -4    0.08    0.07
  -2   8   4    0.14    0.11
   2   8  -4    0.11    0.06
  -2   8   4    0.07    0.08
   2   8  -4   -0.04    0.07
  -1  -8   4   11.49    0.51
   1  -8  -4   11.53    0.47
   1  -8  -4   11.35    0.44
   1  -8  -4    9.95    0.45
  -1  -8   4   11.61    0.47
   1  -8  -4   11.56    0.48
   1   8  -4   11.83    0.51
   1   8  -4   11.52    0.46
  -1   8   4   11.58    0.54
  -1   8   4   11.86    0.47
  -1   8   4   10.85    0.50
   0  -8   4    1.20    0.15
   0  -8  -4    1.09    0.16
   0  -8  -4    1.21    0.16
   0  -8   4    1.34    0.15
   0  -8   4    1.27    0.18
   0   8   4    1.31    0.15
   0   8   4    1.35    0.20
   0   8   4    1.47    0.18
   0   8  -4    1.08    0.17
   0   8  -4    1.33    0.16
   1  -8   4   38.34    1.37
   1  -8   4   38.63    1.31
  -1  -8  -4   37.79    1.30
  -1  -8  -4   37.36    1.36
   1  -8   4   39.25    1.28
   1   8   4   38.19    1.29
  -1   8  -4   40.20    1.35
  -1   8  -4   37.56    1.32
   1   8   4   38.43    1.38
   1   8   4   39.01    1.39
   2  -8   4    4.72    0.29
  -2  -8  -4    4.40    0.28
  -2  -8  -4    4.97    0.35
   2  -8   4    4.04    0.24
   2  -8   4    4.07    0.32
  -2   8  -4    4.51    0.31
   2   8   4    4.54    0.35
   2   8   4    4.24    0.33
   2   8   4    4.69    0.28
  -2   8  -4    4.61    0.31
   3  -8   4    1.71    0.25
   3  -8   4    2.07    0.16
  -3  -8  -4    1.91    0.20
  -3  -8  -4    2.29    0.28
   3   8   4    2.16    0.30
  -3   8  -4    2.14    0.24
  -3   8  -4    2.37    0.24
   3   8   4    2.43    0.26
   3   8   4    2.03    0.20
   4  -8   4    2.77    0.31
  -4  -8  -4    2.18    0.29
   4  -8   4    2.62    0.18
   4   8   4    2.32    0.24
   4   8   4    2.35    0.30
  -4   8  -4    2.58    0.27
   4   8   4    2.90    0.36
   5  -8   4    3.32    0.20
  -5  -8  -4    3.42    0.39
   5  -8   4    3.71    0.38
   5   8   4    3.38    0.36
   5   8   4    3.63    0.42
   5   8   4    3.72    0.29
  -5   8  -4    3.18    0.31
   8  -9  -4    3.43    0.38
   8  -9  -4    2.63    0.27
   8   9  -4    3.74    0.32
   8   9  -4    3.86    0.43
  -8   9   4    2.39    0.39
   7  -9  -4    6.59    0.48
   7  -9  -4    7.05    0.37
  -7  -9   4    5.99    0.50
   7   9  -4    7.44    0.42
   7   9  -4    6.88    0.44
   7   9  -4    7.04    0.52
  -7   9   4    5.95    0.52
  -6  -9   4    7.68    0.45
   6  -9  -4    7.68    0.38
   6  -9  -4    7.75    0.43
  -6  -9   4    7.60    0.52
   6  -9  -4    7.08    0.47
  -6   9   4    7.34    0.52
   6   9  -4    7.73    0.42
   6   9  -4    7.18    0.44
   6   9  -4    8.61    0.52
   5  -9  -4    8.92    0.49
  -5  -9   4    9.29    0.48
   5  -9  -4    8.60    0.45
   5  -9  -4    8.99    0.41
   5   9  -4    9.09    0.51
   5   9  -4    9.13    0.45
  -5   9   4    8.02    0.54
   5   9  -4    8.68    0.47
   4  -9  -4   15.83    0.64
  -4  -9   4   16.04    0.67
  -4  -9   4   14.01    0.67
   4  -9  -4   15.26    0.61
   4  -9  -4   14.92    0.66
   4   9  -4   14.64    0.65
   4   9  -4   15.65    0.67
  -4   9   4   15.68    0.63
   4   9  -4   15.69    0.63
  -4   9   4   15.67    0.73
   3  -9  -4    0.24    0.10
  -3  -9   4    0.28    0.12
   3  -9  -4    0.22    0.08
  -3  -9   4    0.27    0.12
   3  -9  -4    0.69    0.13
   3   9  -4    0.34    0.10
  -3   9   4    0.46    0.11
  -3   9   4    0.27    0.13
   3   9  -4    0.37    0.10
   3   9  -4    0.22    0.10
   2  -9  -4   18.09    0.70
   2  -9  -4   18.69    0.69
  -2  -9   4   19.25    0.69
   2  -9  -4   17.28    0.73
   2  -9  -4   18.60    0.69
  -2  -9   4   17.45    0.70
  -2  -9   4   17.76    0.73
   2   9  -4   17.62    0.65
  -2   9   4   18.25    0.69
  -2   9   4   16.97    0.76
   2   9  -4   18.83    0.67
   2   9  -4   17.64    0.72
   1  -9  -4    5.76    0.30
   1  -9  -4    5.80    0.28
  -1  -9   4    5.86    0.31
  -1  -9   4    6.07    0.31
   1  -9  -4    5.72    0.32
  -1  -9   4    6.00    0.35
   1   9  -4    5.66    0.34
  -1   9   4    6.19    0.33
  -1   9   4    5.82    0.30
   1   9  -4    5.54    0.30
  -1   9   4    5.74    0.37
   0  -9  -4   14.15    0.58
   0  -9   4   14.58    0.62
   0  -9   4   14.11    0.56
   0  -9  -4   11.47    0.56
   0  -9   4   14.32    0.56
   0   9   4   14.65    0.57
   0   9  -4   14.75    0.58
   0   9   4   14.60    0.61
   0   9  -4   13.91    0.61
   0   9   4   14.56    0.65
  -1  -9  -4    0.59    0.13
   1  -9   4    0.75    0.13
  -1  -9  -4    1.01    0.18
   1  -9   4    0.64    0.13
   1  -9   4    0.92    0.17
  -1   9  -4    0.57    0.14
   1   9   4    0.97    0.15
   1   9   4    0.93    0.19
  -1   9  -4    1.05    0.16
   1   9   4    0.87    0.18
   2  -9   4    8.54    0.37
   2  -9   4    8.15    0.46
  -2  -9  -4    7.95    0.39
  -2  -9  -4    7.32    0.45
   2   9   4    8.11    0.40
  -2   9  -4    8.08    0.44
   2   9   4    8.03    0.47
  -2   9  -4    7.32    0.41
   2   9   4    8.72    0.50
   3  -9   4    1.01    0.21
  -3  -9  -4    0.73    0.14
  -3  -9  -4    0.94    0.20
   3  -9   4    1.12    0.13
  -3   9  -4    1.08    0.20
  -3   9  -4    0.58    0.16
   3   9   4    1.26    0.18
   3   9   4    1.01    0.23
   3   9   4    0.79    0.19
   4  -9   4    4.48    0.24
  -4  -9  -4    3.36    0.35
   4  -9   4    4.38    0.37
   4   9   4    3.97    0.30
  -4   9  -4    4.35    0.35
   4   9   4    4.51    0.43
   4   9   4    4.00    0.37
  -4   9  -4    3.65    0.32
   5  -9   4    1.17    0.14
  -5  -9  -4    1.25    0.27
   5  -9   4    0.85    0.23
   5   9   4    1.69    0.34
  -5   9  -4    1.33    0.23
   5   9   4    1.57    0.22
   5   9   4    0.99    0.24
   7 -10  -4    0.08    0.09
  -7 -10   4    0.19    0.16
   7 -10  -4    0.13    0.14
   7  10  -4    0.17    0.12
   7  10  -4    0.25    0.13
   7  10  -4    0.16    0.17
  -7  10   4    0.27    0.19
   6 -10  -4    1.05    0.22
   6 -10  -4    1.09    0.17
   6 -10  -4    1.27    0.21
  -6 -10   4    1.01    0.20
  -6 -10   4    0.92    0.24
   6  10  -4    1.27    0.20
  -6  10   4    0.88    0.24
   6  10  -4    0.92    0.17
   6  10  -4    1.12    0.23
  -5 -10   4   -0.03    0.14
  -5 -10   4    0.30    0.14
   5 -10  -4    0.13    0.08
   5 -10  -4    0.16    0.11
   5 -10  -4    0.12    0.12
   5  10  -4    0.37    0.13
  -5  10   4    0.04    0.13
   5  10  -4    0.17    0.10
   5  10  -4    0.11    0.12
   4 -10  -4    2.05    0.20
   4 -10  -4    2.60    0.24
   4 -10  -4    2.19    0.22
  -4 -10   4    1.55    0.22
  -4 -10   4    2.68    0.25
  -4  10   4    2.07    0.26
   4  10  -4    2.71    0.25
   4  10  -4    1.98    0.22
   4  10  -4    2.45    0.21
  -3 -10   4    0.07    0.09
  -3 -10   4    0.04    0.11
   3 -10  -4    0.04    0.08
   3 -10  -4    0.01    0.07
   3 -10  -4    0.09    0.07
  -3  10   4    0.33    0.14
   3  10  -4    0.13    0.09
  -3  10   4    0.13    0.09
   3  10  -4    0.19    0.11
  -2 -10   4    0.40    0.13
   2 -10  -4    0.31    0.09
   2 -10  -4    0.23    0.09
   2 -10  -4    0.36    0.10
  -2 -10   4    0.34    0.11
  -2 -10   4    0.22    0.10
  -2  10   4    0.34    0.14
  -2  10   4    0.35    0.10
   2  10  -4    0.39    0.09
   2  10  -4    0.40    0.09
   2  10  -4    0.33    0.11
  -1 -10   4    0.65    0.12
   1 -10  -4    0.62    0.11
   1 -10  -4    0.65    0.12
  -1 -10   4    0.44    0.11
   1 -10  -4    0.65    0.14
  -1 -10   4    0.71    0.15
   1 -10  -4    0.79    0.13
  -1  10   4    0.58    0.13
   1  10  -4    0.73    0.15
   1  10  -4    0.58    0.11
  -1  10   4    0.94    0.18
   0 -10   4   -0.06    0.08
   0 -10   4    0.00    0.08
   0 -10   4   -0.10    0.07
   0 -10  -4    0.01    0.08
   0 -10  -4    0.12    0.08
   0  10  -4   -0.05    0.09
   0  10   4    0.00    0.08
   0  10  -4   -0.11    0.06
   0  10   4    0.02    0.09
   0  10   4    0.02    0.08
   1 -10   4    6.67    0.37
   1 -10   4    6.60    0.33
  -1 -10  -4    6.94    0.36
   1 -10   4    6.49    0.40
  -1 -10  -4    6.47    0.39
   1  10   4    6.60    0.35
   1  10   4    6.63    0.40
  -1  10  -4    6.24    0.36
   1  10   4    6.54    0.42
  -1  10  -4    6.53    0.39
  -2 -10  -4    1.15    0.21
  -2 -10  -4    1.44    0.18
   2 -10   4    1.38    0.21
   2 -10   4    1.35    0.22
   2 -10   4    1.43    0.16
   2  10   4    1.41    0.19
   2  10   4    1.24    0.23
  -2  10  -4    1.24    0.20
   2  10   4    1.33    0.22
  -2  10  -4    1.50    0.19
   3 -10   4    3.17    0.21
   3 -10   4    3.21    0.32
  -3 -10  -4    3.02    0.24
  -3 -10  -4    2.45    0.29
   3  10   4    2.95    0.34
  -3  10  -4    2.81    0.28
   3  10   4    2.56    0.29
  -3  10  -4    2.65    0.28
   3  10   4    3.12    0.26
  -4 -10  -4    2.18    0.31
   4 -10   4    2.12    0.18
   4 -10   4    2.14    0.29
   4  10   4    2.55    0.26
   4  10   4    2.15    0.33
  -4  10  -4    2.05    0.28
  -4  10  -4    1.63    0.25
   4  10   4    2.13    0.30
   5 -10   4    0.06    0.16
  -5 -10  -4    0.39    0.20
   5 -10   4    0.41    0.09
   5  10   4    0.51    0.15
  -5  10  -4    0.17    0.14
   5  10   4    0.41    0.23
   5  10   4    0.15    0.16
   7 -11  -4    0.30    0.14
  -7 -11   4    0.10    0.16
   7 -11  -4    0.16    0.16
  -7 -11   4    0.27    0.19
   7 -11  -4    0.12    0.10
  -7  11   4    0.37    0.21
   7  11  -4    0.25    0.14
   7  11  -4    0.20    0.18
   7  11  -4    0.16    0.13
  -6 -11   4    0.23    0.16
   6 -11  -4    0.38    0.16
  -6 -11   4    0.20    0.15
   6 -11  -4    0.54    0.16
   6 -11  -4    0.25    0.11
   6  11  -4    0.57    0.15
   6  11  -4    0.09    0.11
  -6  11   4    0.46    0.21
   6  11  -4    0.30    0.16
  -5 -11   4    0.91    0.20
   5 -11  -4    0.75    0.14
   5 -11  -4    0.62    0.17
  -5 -11   4    0.48    0.16
   5 -11  -4    0.81    0.17
  -5  11   4    0.69    0.22
   5  11  -4    0.73    0.17
   5  11  -4    0.77    0.16
   5  11  -4    0.99    0.21
  -4 -11   4   -0.14    0.09
  -4 -11   4   -0.02    0.11
   4 -11  -4    0.20    0.10
   4 -11  -4    0.13    0.08
   4 -11  -4   -0.02    0.09
   4  11  -4    0.02    0.09
  -4  11   4   -0.11    0.12
   4  11  -4   -0.02    0.09
   3 -11  -4    3.58    0.25
  -3 -11   4    2.41    0.25
   3 -11  -4    3.82    0.27
   3 -11  -4    3.58    0.27
  -3 -11   4    4.24    0.31
   3  11  -4    3.69    0.29
  -3  11   4    3.48    0.33
   3  11  -4    3.85    0.27
   2 -11  -4    0.00    0.07
   2 -11  -4    0.17    0.09
  -2 -11   4   -0.04    0.07
  -2 -11   4   -0.04    0.10
   2 -11  -4   -0.05    0.07
  -2 -11   4    0.01    0.07
   2  11  -4    0.01    0.06
  -2  11   4   -0.04    0.07
   2  11  -4    0.00    0.08
  -2  11   4    0.01    0.12
   1 -11  -4    1.32    0.14
  -1 -11   4    1.39    0.16
  -1 -11   4    1.25    0.17
   1 -11  -4    1.51    0.17
   1 -11  -4    1.50    0.17
   1 -11  -4    1.79    0.20
  -1 -11   4    1.94    0.23
  -1  11   4    1.44    0.15
  -1  11   4    1.84    0.25
   1  11  -4    1.63    0.17
   1  11  -4    1.29    0.18
  -1  11   4    1.55    0.18
   0 -11   4    0.40    0.13
   0 -11  -4    0.27    0.11
   0 -11   4    0.45    0.12
   0 -11   4    0.57    0.13
   0 -11  -4    0.27    0.11
   0  11   4    0.46    0.13
   0  11   4    0.39    0.11
   0  11   4    0.34    0.14
   0  11  -4    0.33    0.12
   1 -11   4    1.18    0.21
   1 -11   4    0.92    0.15
  -1 -11  -4    1.06    0.19
   1 -11   4    1.33    0.20
  -1 -11  -4    0.98    0.16
   1  11   4    1.41    0.18
   1  11   4    1.33    0.23
  -1  11  -4    0.89    0.18
   1  11   4    0.74    0.17
   2 -11   4    0.94    0.15
  -2 -11  -4    0.70    0.14
  -2 -11  -4    0.99    0.20
   2 -11   4    0.75    0.17
   2 -11   4    0.59    0.16
   2  11   4    0.68    0.18
  -2  11  -4    0.77    0.16
   2  11   4    0.79    0.20
  -2  11  -4    0.75    0.18
   2  11   4    0.70    0.14
   3 -11   4    0.68    0.19
   3 -11   4    0.59    0.12
  -3 -11  -4    0.54    0.18
   3  11   4    0.65    0.15
  -3  11  -4    0.64    0.18
   3  11   4    0.64    0.18
  -3  11  -4    0.38    0.14
   3  11   4    0.65    0.21
  -4 -11  -4    0.22    0.17
   4 -11   4    0.18    0.08
   4 -11   4    0.05    0.13
  -4  11  -4    0.14    0.13
   4  11   4    0.03    0.13
  -4  11  -4    0.13    0.14
   4  11   4    0.06    0.16
   4  11   4    0.01    0.11
   7 -12  -4    1.73    0.21
  -7 -12   4    1.55    0.31
   7 -12  -4    1.71    0.26
   7 -12  -4    1.14    0.24
  -7 -12   4    1.56    0.27
   7  12  -4    1.72    0.31
  -7  12   4    1.62    0.33
   7  12  -4    1.73    0.25
  -6 -12   4    0.05    0.14
   6 -12  -4   -0.13    0.10
  -6 -12   4    0.04    0.14
   6 -12  -4   -0.09    0.10
   6 -12  -4    0.01    0.08
   6  12  -4   -0.07    0.13
   6  12  -4    0.00    0.11
   6  12  -4   -0.04    0.10
  -6  12   4    0.04    0.18
   5 -12  -4   20.05    0.83
   5 -12  -4   19.67    0.86
  -5 -12   4   19.90    0.86
   5 -12  -4   19.76    0.78
   5  12  -4   19.47    0.84
  -5  12   4   19.05    0.92
   5  12  -4   20.39    0.89
   4 -12  -4    0.11    0.09
  -4 -12   4    0.15    0.12
  -4 -12   4    0.03    0.11
   4 -12  -4    0.01    0.10
   4 -12  -4    0.12    0.11
  -4  12   4    0.19    0.16
   4  12  -4    0.08    0.11
   4  12  -4    0.11    0.11
   3 -12  -4   14.16    0.63
   3 -12  -4   14.31    0.60
  -3 -12   4   14.32    0.66
   3 -12  -4   14.34    0.62
   3  12  -4   14.24    0.65
   3  12  -4   14.50    0.62
  -3  12   4   13.25    0.69
  -2 -12   4    1.47    0.19
   2 -12  -4    1.17    0.16
   2 -12  -4    1.13    0.16
  -2 -12   4    1.13    0.21
   2 -12  -4    1.12    0.18
   2  12  -4    0.98    0.14
   2  12  -4    1.04    0.18
  -2  12   4    1.19    0.21
  -1 -12   4    7.81    0.44
  -1 -12   4    7.20    0.37
   1 -12  -4    7.08    0.37
   1 -12  -4    7.44    0.40
  -1 -12   4    7.82    0.39
  -1  12   4    6.92    0.38
  -1  12   4    8.09    0.48
   1  12  -4    6.84    0.41
   0 -12  -4    2.18    0.22
   0 -12   4    2.45    0.23
   0 -12  -4    2.83    0.24
   0 -12   4    2.46    0.22
   0 -12   4    2.48    0.26
   0  12  -4    2.10    0.24
   0  12   4    2.50    0.29
   0  12   4    2.37    0.23
   1 -12   4   43.84    1.53
  -1 -12  -4   42.76    1.48
   1 -12   4   42.66    1.57
   1 -12   4   43.32    1.47
  -1 -12  -4   43.44    1.55
   1  12   4   41.80    1.60
   1  12   4   44.29    1.55
  -1  12  -4   43.82    1.55
   1  12   4   43.94    1.49
  -2 -12  -4    0.14    0.13
  -2 -12  -4    0.30    0.11
   2 -12   4    0.37    0.16
   2 -12   4    0.40    0.14
   2 -12   4    0.26    0.10
   2  12   4    0.22    0.14
  -2  12  -4    0.13    0.13
   2  12   4    0.47    0.18
   2  12   4    0.41    0.13
  -3 -12  -4   16.71    0.80
   3 -12   4   16.71    0.80
   3 -12   4   16.58    0.77
   3 -12   4   16.33    0.66
   3  12   4   17.00    0.84
  -3  12  -4   15.76    0.75
   3  12   4   17.32    0.84
   3  12   4   16.76    0.72
  -3  12  -4   15.53    0.73
   4 -12   4    0.19    0.09
  -4 -12  -4    0.27    0.16
   4 -12   4    0.01    0.13
   4  12   4    0.16    0.12
   4  12   4    0.26    0.18
   4  12   4   -0.10    0.12
  -4  12  -4    0.02    0.13
  -4  12  -4   -0.04    0.14
   7 -13  -4    0.10    0.13
  -7 -13   4   -0.01    0.16
   7 -13  -4   -0.12    0.13
   7 -13  -4   -0.19    0.08
   7  13  -4   -0.04    0.16
  -7  13   4    0.08    0.20
  -6 -13   4    8.05    0.52
   6 -13  -4    7.66    0.52
   6 -13  -4    8.16    0.49
   6 -13  -4    8.66    0.45
   6  13  -4    7.87    0.49
  -6  13   4    8.95    0.60
   6  13  -4    8.72    0.58
   5 -13  -4    8.45    0.50
   5 -13  -4    7.97    0.42
  -5 -13   4    7.01    0.48
  -5 -13   4    7.64    0.49
   5 -13  -4    8.65    0.47
   5  13  -4    7.77    0.46
   5  13  -4    7.64    0.51
  -5  13   4    7.37    0.54
   4 -13  -4    8.73    0.50
  -4 -13   4    9.73    0.53
   4 -13  -4    9.75    0.47
   4 -13  -4    9.80    0.51
   4  13  -4    8.86    0.50
   4  13  -4    9.25    0.51
  -4  13   4    9.59    0.59
   3 -13  -4    2.56    0.25
   3 -13  -4    2.16    0.23
  -3 -13   4    2.66    0.28
   3 -13  -4    2.49    0.23
  -3  13   4    2.14    0.30
   3  13  -4    2.67    0.26
   3  13  -4    2.51    0.25
   2 -13  -4   21.95    0.83
   2 -13  -4   21.42    0.82
   2 -13  -4   21.26    0.85
  -2 -13   4   22.02    0.79
  -2 -13   4   21.30    0.84
  -2 -13   4   20.71    0.89
  -2  13   4   21.62    0.94
   2  13  -4   20.78    0.87
   2  13  -4   21.10    0.78
  -2  13   4   21.27    0.83
  -1 -13   4    1.32    0.18
  -1 -13   4    1.15    0.22
  -1 -13   4    1.39    0.18
   1 -13  -4    1.28    0.19
   1 -13  -4    1.07    0.17
   1  13  -4    1.38    0.21
  -1  13   4    1.15    0.24
   0 -13  -4   34.69    1.25
   0 -13  -4   36.01    1.28
   0 -13   4   36.06    1.26
   0 -13   4   34.68    1.32
   0 -13   4   34.21    1.23
   0  13   4   35.94    1.27
   0  13   4   34.58    1.36
   0  13  -4   34.00    1.30
   1 -13   4    9.76    0.47
   1 -13   4    9.41    0.50
   1 -13   4   10.14    0.55
  -1 -13  -4    9.64    0.47
  -1 -13  -4    9.36    0.52
  -1  13  -4   10.39    0.54
   1  13   4    9.44    0.52
   1  13   4    9.35    0.57
   2 -13   4   20.47    0.89
   2 -13   4   19.89    0.85
  -2 -13  -4   19.60    0.87
   2 -13   4   19.24    0.76
  -2 -13  -4   18.66    0.77
   2  13   4   18.95    0.87
  -2  13  -4   19.89    0.86
   2  13   4   19.32    0.80
   2  13   4   19.11    0.92
  -3 -13  -4    1.22    0.24
   3 -13   4    1.08    0.17
   3 -13   4    1.54    0.25
   3 -13   4    1.55    0.27
   3  13   4    1.12    0.25
   3  13   4    1.04    0.26
   3  13   4    1.42    0.22
  -3  13  -4    1.14    0.22
  -3  13  -4    1.27    0.23
   4 -13   4    4.69    0.41
   4 -13   4    4.48    0.28
  -4 -13  -4    3.48    0.39
   4  13   4    4.58    0.36
   4  13   4    4.14    0.42
  -4  13  -4    3.64    0.37
   4  13   4    3.63    0.42
  -4  13  -4    4.20    0.37
   6 -14  -4    0.28    0.12
   6 -14  -4    0.32    0.16
   6 -14  -4    0.33    0.15
  -6 -14   4    0.09    0.15
  -6 -14   4    0.66    0.20
   6  14  -4    0.07    0.15
  -6  14   4    0.17    0.20
   6  14  -4    0.17    0.14
  -5 -14   4    2.72    0.32
  -5 -14   4    2.90    0.32
   5 -14  -4    3.16    0.30
   5 -14  -4    3.10    0.27
   5 -14  -4    3.32    0.32
   5  14  -4    3.23    0.35
   5  14  -4    2.77    0.29
  -5  14   4    2.54    0.34
   4 -14  -4    0.22    0.14
   4 -14  -4    0.29    0.13
  -4 -14   4    0.35    0.17
   4 -14  -4    0.16    0.10
   4  14  -4    0.26    0.14
   4  14  -4    0.24    0.12
  -4  14   4    0.32    0.18
  -3 -14   4   21.09    0.88
   3 -14  -4   19.91    0.83
   3 -14  -4   20.76    0.84
   3 -14  -4   19.62    0.80
   3  14  -4   18.96    0.84
  -3  14   4   20.30    0.93
   2 -14  -4    0.10    0.09
  -2 -14   4    0.06    0.12
   2 -14  -4    0.15    0.11
  -2 -14   4    0.31    0.15
   2  14  -4    0.20    0.11
  -2  14   4    0.06    0.12
  -2  14   4    0.13    0.11
  -1 -14   4    6.97    0.38
  -1 -14   4    6.01    0.42
  -1 -14   4    7.13    0.40
   1 -14  -4    7.05    0.40
   1  14  -4    6.92    0.43
  -1  14   4    6.64    0.46
   0 -14   4    0.07    0.09
   0 -14  -4   -0.03    0.09
   0 -14   4    0.11    0.10
   0 -14  -4   -0.03    0.11
   0 -14   4    0.01    0.11
   0  14  -4   -0.11    0.09
   0  14   4    0.15    0.15
  -1 -14  -4    4.17    0.35
   1 -14   4    4.25    0.30
   1 -14   4    3.95    0.35
  -1 -14  -4    4.61    0.32
   1 -14   4    4.21    0.33
   1  14   4    4.38    0.40
   1  14   4    4.01    0.36
  -1  14  -4    4.38    0.36
   2 -14   4    0.15    0.14
   2 -14   4    0.37    0.12
   2 -14   4    0.47    0.16
  -2 -14  -4    0.45    0.17
  -2 -14  -4    0.37    0.13
   2  14   4    0.49    0.18
  -2  14  -4    0.13    0.13
   2  14   4    0.15    0.16
  -3 -14  -4    0.03    0.14
   3 -14   4   -0.10    0.11
   3 -14   4    0.05    0.08
   3 -14   4    0.05    0.14
   3  14   4   -0.17    0.10
   3  14   4   -0.05    0.12
   3  14   4    0.14    0.16
  -3  14  -4    0.06    0.13
  -3  14  -4    0.03    0.14
   6 -15  -4    2.07    0.31
   6 -15  -4    2.44    0.26
   6 -15  -4    2.94    0.32
  -6 -15   4    2.28    0.32
  -6  15   4    2.16    0.38
   6  15  -4    2.95    0.44
   6  15  -4    2.40    0.34
   5 -15  -4    0.01    0.10
  -5 -15   4    0.16    0.14
   5 -15  -4   -0.15    0.10
   5 -15  -4    0.18    0.14
   5  15  -4   -0.08    0.11
   5  15  -4    0.00    0.13
  -5  15   4   -0.04    0.17
   4 -15  -4    1.46    0.23
  -4 -15   4    1.60    0.26
   4 -15  -4    1.18    0.20
   4 -15  -4    0.90    0.20
  -4  15   4    1.52    0.30
   4  15  -4    1.54    0.23
   4  15  -4    1.12    0.27
   3 -15  -4    1.66    0.22
   3 -15  -4    1.98    0.25
  -3 -15   4    1.42    0.24
  -3  15   4    1.47    0.29
  -3  15   4    1.40    0.22
   3  15  -4    1.63    0.23
  -2 -15   4    4.97    0.39
   2 -15  -4    5.31    0.36
   2 -15  -4    4.83    0.33
   2  15  -4    4.80    0.35
  -2  15   4    4.14    0.38
  -2  15   4    4.71    0.33
  -1 -15   4    0.14    0.11
   1 -15  -4    0.19    0.12
  -1 -15   4    0.21    0.14
  -1 -15   4    0.05    0.10
  -1  15   4    0.01    0.14
   1  15  -4   -0.10    0.09
   0 -15   4    7.45    0.42
   0 -15   4    8.09    0.44
   0 -15   4    6.57    0.46
   0 -15  -4    7.06    0.41
   0 -15  -4    7.55    0.43
   0  15  -4    6.50    0.45
   0  15   4    6.70    0.50
  -1 -15  -4    5.04    0.35
   1 -15   4    4.98    0.37
   1 -15   4    4.80    0.33
  -1 -15  -4    5.10    0.39
   1 -15   4    5.26    0.41
  -1  15  -4    5.17    0.40
   1  15   4    4.89    0.42
   2 -15   4    2.98    0.26
   2 -15   4    2.79    0.31
   2 -15   4    3.01    0.34
  -2 -15  -4    2.51    0.33
  -2  15  -4    3.03    0.33
   2  15   4    2.78    0.34
  -3 -15  -4    3.21    0.37
   3 -15   4    4.21    0.30
   3 -15   4    4.59    0.41
   3 -15   4    3.59    0.37
   3  15   4    4.22    0.41
   3  15   4    4.13    0.43
  -3  15  -4    3.45    0.36
   5 -16  -4    0.65    0.21
  -5 -16   4    0.63    0.20
   5 -16  -4    0.78    0.18
   5 -16  -4    0.20    0.15
   5  16  -4    0.48    0.19
  -5  16   4    0.56    0.19
  -5  16   4    0.15    0.21
   5  16  -4    0.54    0.17
   4 -16  -4   -0.10    0.10
  -4 -16   4   -0.06    0.13
   4 -16  -4    0.05    0.11
   4  16  -4    0.31    0.15
  -4  16   4   -0.04    0.13
  -4  16   4    0.18    0.18
   3 -16  -4    2.60    0.29
   3 -16  -4    2.89    0.27
  -3 -16   4    2.75    0.32
  -3  16   4    3.03    0.38
   3  16  -4    2.38    0.28
  -3  16   4    2.51    0.28
  -2 -16   4    0.18    0.14
   2 -16  -4    0.23    0.13
  -2  16   4    0.40    0.19
   2  16  -4    0.24    0.14
   1 -16  -4    1.19    0.21
  -1 -16   4    0.77    0.20
  -1 -16   4    1.13    0.18
  -1 -16   4    0.92    0.18
  -1  16   4    0.59    0.19
   1  16  -4    1.29    0.24
   0 -16   4    0.87    0.19
   0 -16   4    0.67    0.16
   0 -16  -4    0.67    0.18
   0 -16   4    0.59    0.19
   0 -16  -4    0.66    0.15
   0  16   4    0.53    0.21
   0  16  -4    0.45    0.18
   1 -16   4   -0.06    0.11
  -1 -16  -4    0.22    0.12
  -1 -16  -4    0.52    0.16
   1 -16   4    0.23    0.12
   1 -16   4    0.42    0.16
   1  16   4    0.22    0.18
  -1  16  -4    0.24    0.17
  -2 -16  -4    0.86    0.21
   2 -16   4    1.42    0.22
   2 -16   4    1.37    0.26
   2 -16   4    1.52    0.28
   2  16   4    1.28    0.27
  -2  16  -4    1.47    0.26
   3 -16   4    0.13    0.15
  -3 -16  -4    0.10    0.16
   3 -16   4   -0.16    0.14
   3 -16   4    0.06    0.10
  -3  16  -4   -0.12    0.12
   3  16   4    0.06    0.16
  -5 -17   4    1.75    0.31
   5 -17  -4    2.47    0.27
   5 -17  -4    2.77    0.31
   5  17  -4    1.72    0.27
  -5  17   4    1.48    0.28
  -5  17   4    2.07    0.35
   4 -17  -4    7.09    0.43
   4 -17  -4    6.17    0.44
  -4 -17   4    6.62    0.49
  -4  17   4    5.95    0.45
  -4  17   4    6.59    0.54
   3 -17  -4    0.10    0.11
   3 -17  -4   -0.05    0.11
  -3 -17   4    0.24    0.18
  -3  17   4   -0.08    0.17
   3  17  -4    0.06    0.12
  -3  17   4   -0.09    0.12
   2 -17  -4    4.42    0.36
  -2 -17   4    4.10    0.38
  -2  17   4    4.12    0.42
   2  17  -4    4.15    0.35
  -1 -17   4    0.57    0.15
   1 -17  -4    0.58    0.16
  -1 -17   4    0.74    0.18
  -1 -17   4    0.61    0.21
  -1  17   4    0.62    0.20
   1  17  -4    0.37    0.17
   0 -17  -4    1.65    0.25
   0 -17   4    1.73    0.25
   0 -17   4    1.64    0.24
   0 -17   4    2.27    0.31
   0  17  -4    2.13    0.29
   0  17   4    1.59    0.31
   1 -17   4    0.40    0.15
   1 -17   4    0.66    0.18
   1 -17   4    0.84    0.21
  -1 -17  -4    0.70    0.20
  -1 -17  -4    0.75    0.17
  -1  17  -4    0.65    0.19
   1  17   4    0.24    0.17
   2 -17   4    1.69    0.29
   2 -17   4    1.14    0.24
   2 -17   4    1.71    0.24
  -2 -17  -4    1.55    0.28
  -2  17  -4    1.05    0.24
   2  17   4    1.61    0.32
   4 -18  -4    0.01    0.12
  -4 -18   4   -0.05    0.13
   4 -18  -4   -0.07    0.12
  -4  18   4    0.25    0.16
   4  18  -4    0.00    0.11
  -4  18   4    0.05    0.20
  -3 -18   4   10.79    0.64
   3 -18  -4   10.40    0.59
   3 -18  -4   14.42    0.90
   3  18  -4    9.92    0.59
  -3  18   4   11.14    0.69
  -3  18   4   10.10    0.61
   2 -18  -4    0.24    0.15
  -2 -18   4    0.21    0.16
   2  18  -4    0.19    0.14
  -2  18   4    0.28    0.20
   1 -18  -4   23.20    0.97
  -1 -18   4   25.12    1.06
  -1  18   4   22.20    1.09
   0 -18  -4    0.39    0.15
   0 -18   4    0.29    0.16
   0 -18   4    0.50    0.16
   0 -18   4    0.52    0.19
   0  18  -4    0.17    0.17
   0  18   4    0.33    0.19
  -1 -18  -4    6.86    0.48
   1 -18   4    6.93    0.51
   1 -18   4    6.83    0.43
  -1 -18  -4    6.07    0.42
   1 -18   4    6.76    0.46
   1  18   4    7.18    0.54
  -1  18  -4    6.06    0.48
  -3 -19   4    2.12    0.34
   3 -19  -4    1.97    0.29
   3  19  -4    2.33    0.30
  -3  19   4    2.24    0.37
  -2 -19   4    4.76    0.43
   2 -19  -4    5.48    0.41
   2  19  -4    5.42    0.42
  -2  19   4    4.40    0.47
   1 -19  -4    2.11    0.28
  -1 -19   4    2.14    0.32
  -1  19   4    2.31    0.37
   1  19  -4    3.00    0.33
   0 -19   4    7.51    0.47
   0 -19   4    7.91    0.54
   0 -19  -4    6.88    0.45
   0 -19   4    7.72    0.47
   0  19   4    7.02    0.55
   0  19  -4    5.78    0.48
   8   0  -5   -0.20    0.14
  -8   0   5   -0.06    0.13
   8   0  -5    0.06    0.10
   8   0  -5   -0.17    0.11
  -8   0   5    0.09    0.20
   7   0  -5   12.95    0.72
  -7   0   5   12.97    0.70
   7   0  -5   12.68    0.56
   7   0  -5   13.11    0.66
   6   0  -5    0.10    0.10
  -6   0   5    0.01    0.13
   6   0  -5    0.00    0.07
   6   0  -5    0.13    0.13
   5   0  -5   45.85    1.52
  -5   0   5   44.74    1.63
   5   0  -5   46.44    1.59
   5   0  -5   46.12    1.63
   4   0  -5   -0.02    0.07
   4   0  -5    0.01    0.06
   4   0  -5   -0.03    0.06
  -4   0   5   -0.02    0.09
  -4   0   5   -0.04    0.08
   3   0  -5    2.18    0.18
  -3   0   5    2.08    0.16
   3   0  -5    1.97    0.16
   3   0  -5    1.84    0.16
  -3   0   5    2.17    0.14
  -3   0   5    1.20    0.16
  -3   0   5    1.61    0.19
  -2   0   5   -0.10    0.04
  -2   0   5   -0.02    0.05
  -2   0   5    0.01    0.06
   2   0  -5   -0.04    0.05
  -2   0   5   -0.02    0.07
   2   0  -5   -0.03    0.05
   2   0  -5   -0.04    0.06
  -1   0   5   42.97    1.47
  -1   0   5   41.41    1.36
   1   0  -5   42.74    1.38
  -1   0   5   44.00    1.41
   1   0  -5   42.06    1.41
   1   0  -5   42.17    1.40
  -1   0   5   42.91    1.40
   0   0   5   -0.04    0.07
   0   0  -5   -0.11    0.05
   0   0  -5    0.00    0.05
   0   0   5   -0.02    0.06
   0   0   5    0.09    0.10
   1   0   5  217.86    6.82
   1   0   5  222.18    6.78
   1   0   5  214.96    6.69
  -1   0  -5  226.58    6.74
   2   0   5    0.06    0.12
  -2   0  -5   -0.11    0.08
   2   0   5   -0.08    0.09
   2   0   5   -0.04    0.06
   3   0   5   32.64    1.12
   3   0   5   32.17    1.30
   3   0   5   32.38    1.27
  -3   0  -5   33.63    1.19
  -4   0  -5   -0.07    0.11
  -4   0  -5    0.00    0.12
   4   0   5    0.04    0.07
   4   0   5   -0.16    0.10
  -5   0  -5    0.25    0.19
  -5   0  -5   -0.01    0.15
   5   0   5   -0.13    0.06
   5   0   5    0.31    0.18
  -8  -1   5    0.24    0.20
   8  -1  -5    0.13    0.10
   8  -1  -5   -0.10    0.10
  -8   1   5    0.18    0.18
  -8   1   5   -0.11    0.18
   8   1  -5    0.12    0.17
   8   1  -5    0.10    0.14
   8   1  -5    0.14    0.11
   7  -1  -5    0.55    0.17
   7  -1  -5    0.64    0.13
  -7  -1   5    0.71    0.22
   7   1  -5    0.65    0.20
   7   1  -5    0.58    0.13
  -7   1   5    0.60    0.21
   7   1  -5    0.25    0.14
  -7   1   5    0.75    0.22
   6  -1  -5    5.21    0.36
  -6  -1   5    5.02    0.40
   6  -1  -5    4.93    0.30
   6   1  -5    4.17    0.33
   6   1  -5    6.01    0.41
  -6   1   5    5.69    0.41
   6   1  -5    5.26    0.31
  -6   1   5    4.24    0.39
   5  -1  -5    0.07    0.06
   5  -1  -5    0.02    0.08
   5  -1  -5   -0.01    0.06
  -5  -1   5    0.10    0.13
   5   1  -5    0.10    0.10
   5   1  -5   -0.05    0.08
  -5   1   5   -0.03    0.10
   5   1  -5   -0.01    0.07
  -5   1   5    0.00    0.09
  -4  -1   5   18.86    0.82
   4  -1  -5   20.58    0.72
  -4  -1   5   20.30    0.70
   4  -1  -5   21.45    0.76
   4  -1  -5   19.85    0.79
   4   1  -5   21.17    0.75
   4   1  -5   19.94    0.79
  -4   1   5   21.40    0.82
  -4   1   5   19.57    0.82
   4   1  -5   20.43    0.71
   4   1  -5   21.57    0.81
  -3  -1   5   12.99    0.50
   3  -1  -5   12.39    0.49
   3  -1  -5   12.51    0.52
  -3  -1   5   11.92    0.56
   3  -1  -5   12.37    0.50
  -3  -1   5   12.87    0.47
   3   1  -5   12.58    0.52
   3   1  -5   12.77    0.48
   3   1  -5   12.45    0.49
  -3   1   5   13.13    0.50
  -3   1   5   11.17    0.52
  -3   1   5   12.39    0.57
  -3   1   5   12.50    0.44
   2  -1  -5    8.05    0.34
   2  -1  -5    7.15    0.34
  -2  -1   5    7.45    0.34
  -2  -1   5    7.96    0.34
  -2  -1   5    7.15    0.39
   2  -1  -5    7.60    0.34
   2   1  -5    7.31    0.33
   2   1  -5    8.00    0.35
  -2   1   5    7.56    0.34
  -2   1   5    7.25    0.32
  -2   1   5    8.16    0.41
  -2   1   5    6.71    0.33
   2   1  -5    7.59    0.35
   1  -1  -5    6.36    0.33
  -1  -1   5    7.35    0.33
  -1  -1   5    6.46    0.27
   1  -1  -5    6.53    0.31
  -1  -1   5    6.83    0.38
  -1  -1   5    7.06    0.34
   1  -1  -5    7.24    0.31
  -1   1   5    6.86    0.38
   1   1  -5    7.17    0.32
   1   1  -5    6.73    0.33
  -1   1   5    7.14    0.33
  -1   1   5    7.23    0.33
  -1   1   5    6.89    0.31
   0  -1   5    0.94    0.17
   0  -1   5    0.90    0.15
   0  -1   5    0.83    0.12
   0  -1  -5    0.75    0.13
   0  -1  -5    0.90    0.10
   0   1   5    0.92    0.13
   0   1   5    0.93    0.16
   0   1   5    1.17    0.18
   0   1   5    0.78    0.10
   0   1  -5    1.05    0.15
   0   1  -5    0.90    0.11
   1  -1   5    4.65    0.33
   1  -1   5    4.35    0.25
  -1  -1  -5    3.95    0.28
   1  -1   5    4.55    0.31
   1   1   5    4.44    0.33
  -1   1  -5    4.08    0.28
   1   1   5    3.92    0.29
   1   1   5    4.09    0.25
  -1   1  -5    4.75    0.23
   2  -1   5    1.38    0.22
   2  -1   5    1.46    0.15
  -2  -1  -5    1.38    0.19
   2  -1   5    1.12    0.21
   2   1   5    1.45    0.20
  -2   1  -5    1.38    0.19
   2   1   5    1.32    0.15
   2   1   5    1.18    0.22
   3  -1   5    4.21    0.25
   3  -1   5    4.62    0.37
  -3  -1  -5    4.22    0.31
  -3  -1  -5    4.29    0.36
   3  -1   5    4.43    0.36
   3   1   5    4.33    0.38
  -3   1  -5    4.13    0.31
   3   1   5    4.22    0.36
  -4  -1  -5    1.06    0.22
  -4  -1  -5    1.14    0.19
   4  -1   5    0.83    0.21
   4  -1   5    0.99    0.24
   4  -1   5    1.30    0.15
   4   1   5    0.68    0.13
  -4   1  -5    1.02    0.19
   4   1   5    0.94    0.24
  -4   1  -5    0.78    0.20
  -5  -1  -5    0.48    0.21
   5  -1   5    0.24    0.09
   5  -1   5    0.66    0.23
   5   1   5    0.35    0.20
  -5   1  -5    0.57    0.22
  -5   1  -5    0.57    0.17
   5   1   5    0.62    0.12
   8  -2  -5   -0.06    0.11
  -8  -2   5    0.02    0.20
   8  -2  -5   -0.10    0.08
   8   2  -5    0.17    0.11
   8   2  -5   -0.04    0.16
  -8   2   5    0.05    0.15
  -8   2   5    0.12    0.19
   8   2  -5    0.10    0.14
   7  -2  -5    3.12    0.25
  -7  -2   5    3.42    0.36
   7  -2  -5    3.26    0.32
   7   2  -5    3.35    0.26
   7   2  -5    3.70    0.32
  -7   2   5    3.03    0.34
  -7   2   5    3.75    0.38
   7   2  -5    3.38    0.36
   6  -2  -5    0.10    0.08
  -6  -2   5    0.02    0.12
   6  -2  -5    0.03    0.09
   6   2  -5   -0.01    0.09
  -6   2   5   -0.16    0.08
   6   2  -5    0.01    0.07
   6   2  -5    0.20    0.12
  -6   2   5    0.01    0.13
   5  -2  -5    0.02    0.07
   5  -2  -5   -0.10    0.08
   5  -2  -5    0.12    0.08
  -5  -2   5   -0.02    0.12
  -5   2   5   -0.04    0.10
  -5   2   5    0.02    0.12
   5   2  -5   -0.10    0.09
   5   2  -5    0.03    0.07
   5   2  -5    0.01    0.08
  -4  -2   5    1.67    0.14
   4  -2  -5    1.57    0.15
   4  -2  -5    1.62    0.19
  -4  -2   5    1.89    0.23
   4  -2  -5    2.06    0.17
   4   2  -5    1.74    0.14
   4   2  -5    1.52    0.17
  -4   2   5    1.75    0.22
  -4   2   5    1.56    0.20
   4   2  -5    1.72    0.17
   4   2  -5    1.71    0.19
  -3  -2   5   15.47    0.57
  -3  -2   5   15.22    0.66
  -3  -2   5   15.65    0.59
   3  -2  -5   15.18    0.59
   3  -2  -5   15.26    0.61
   3  -2  -5   15.26    0.58
  -3   2   5   13.41    0.62
  -3   2   5   15.62    0.60
  -3   2   5   15.53    0.52
   3   2  -5   16.18    0.62
   3   2  -5   16.08    0.59
  -3   2   5   15.69    0.66
  -2  -2   5    2.93    0.21
   2  -2  -5    3.63    0.21
   2  -2  -5    3.42    0.21
  -2  -2   5    3.26    0.19
   2  -2  -5    3.33    0.21
  -2  -2   5    3.45    0.21
  -2  -2   5    3.37    0.26
   2   2  -5    3.57    0.22
   2   2  -5    3.42    0.22
  -2   2   5    3.63    0.23
  -2   2   5    3.39    0.26
  -2   2   5    3.42    0.19
   2   2  -5    3.30    0.20
  -2   2   5    3.80    0.22
   1  -2  -5   11.60    0.49
   1  -2  -5   12.06    0.47
   1  -2  -5   12.20    0.46
  -1  -2   5   11.43    0.54
  -1  -2   5   11.83    0.48
  -1  -2   5   12.41    0.51
  -1   2   5   12.04    0.48
  -1   2   5   11.53    0.48
  -1   2   5   12.33    0.49
   1   2  -5   12.44    0.49
   1   2  -5   12.28    0.50
  -1   2   5   12.16    0.55
   0  -2  -5    2.72    0.21
   0  -2   5    2.36    0.23
   0  -2   5    2.96    0.23
   0  -2   5    2.76    0.19
   0  -2  -5    2.50    0.15
   0   2  -5    2.65    0.21
   0   2   5    2.63    0.18
   0   2  -5    2.51    0.18
   0   2   5    2.80    0.26
   0   2   5    2.75    0.22
   0   2   5    2.38    0.19
  -1  -2  -5    7.71    0.38
   1  -2   5    7.15    0.40
   1  -2   5    7.34    0.42
   1  -2   5    7.32    0.34
   1   2   5    6.75    0.42
  -1   2  -5    7.88    0.39
   1   2   5    6.85    0.34
   1   2   5    7.26    0.40
  -1   2  -5    7.46    0.33
   2  -2   5    6.42    0.31
  -2  -2  -5    6.40    0.36
  -2  -2  -5    6.74    0.41
   2  -2   5    5.96    0.40
   2  -2   5    6.44    0.41
   2   2   5    6.23    0.32
   2   2   5    6.72    0.41
  -2   2  -5    6.13    0.35
   2   2   5    6.11    0.42
  -3  -2  -5    1.52    0.23
   3  -2   5    1.62    0.16
   3  -2   5    2.06    0.26
   3  -2   5    1.20    0.23
  -3  -2  -5    1.50    0.21
   3   2   5    1.64    0.26
   3   2   5    1.45    0.16
  -3   2  -5    1.52    0.21
   4  -2   5    3.65    0.38
   4  -2   5    4.15    0.25
  -4  -2  -5    3.34    0.35
  -4  -2  -5    4.03    0.31
   4  -2   5    4.37    0.39
   4   2   5    4.39    0.42
  -4   2  -5    4.56    0.34
   4   2   5    4.36    0.27
   5  -2   5    0.46    0.10
  -5  -2  -5    0.01    0.15
   5  -2   5    0.29    0.20
   5   2   5    0.39    0.19
  -5   2  -5    0.28    0.15
  -5   2  -5    0.20    0.16
   5   2   5    0.30    0.11
   8  -3  -5    0.02    0.09
   8  -3  -5   -0.08    0.10
  -8  -3   5    0.11    0.18
   8   3  -5    0.17    0.11
  -8   3   5   -0.11    0.15
   8   3  -5   -0.07    0.13
   8   3  -5   -0.18    0.09
  -8   3   5    0.20    0.18
   7  -3  -5   -0.05    0.07
  -7  -3   5    0.09    0.17
   7  -3  -5   -0.01    0.10
  -7   3   5    0.14    0.17
  -7   3   5    0.00    0.16
   7   3  -5   -0.04    0.09
   7   3  -5   -0.01    0.11
   7   3  -5    0.12    0.13
   6  -3  -5    0.14    0.12
  -6  -3   5    0.14    0.16
   6  -3  -5    0.02    0.07
   6   3  -5    0.18    0.13
   6   3  -5    0.08    0.10
  -6   3   5   -0.10    0.13
  -6   3   5    0.07    0.12
   6   3  -5    0.12    0.09
   5  -3  -5    1.93    0.22
  -5  -3   5    1.78    0.25
   5  -3  -5    2.18    0.18
   5  -3  -5    2.11    0.19
   5   3  -5    2.02    0.22
  -5   3   5    2.02    0.25
  -5   3   5    1.62    0.25
   5   3  -5    2.02    0.23
   5   3  -5    1.68    0.18
  -4  -3   5   -0.05    0.10
   4  -3  -5    0.09    0.07
   4  -3  -5   -0.03    0.08
  -4  -3   5    0.08    0.07
   4  -3  -5    0.10    0.07
  -4   3   5    0.25    0.12
   4   3  -5   -0.02    0.07
  -4   3   5    0.12    0.11
   4   3  -5    0.00    0.07
   4   3  -5    0.01    0.08
   4   3  -5    0.14    0.06
  -3  -3   5    4.63    0.32
   3  -3  -5    4.67    0.26
  -3  -3   5    4.80    0.26
   3  -3  -5    4.74    0.27
   3  -3  -5    4.76    0.27
  -3  -3   5    5.21    0.26
   3   3  -5    4.78    0.29
  -3   3   5    4.65    0.31
  -3   3   5    4.52    0.30
   3   3  -5    4.66    0.26
   3   3  -5    4.14    0.23
   3   3  -5    4.74    0.26
  -2  -3   5    1.47    0.19
   2  -3  -5    1.77    0.16
  -2  -3   5    1.66    0.15
   2  -3  -5    1.59    0.15
  -2  -3   5    1.10    0.11
   2  -3  -5    1.65    0.15
  -2  -3   5    1.39    0.15
  -2   3   5    1.68    0.20
  -2   3   5    1.75    0.18
   2   3  -5    1.56    0.15
  -2   3   5    1.69    0.15
  -2   3   5    1.53    0.13
   2   3  -5    1.55    0.16
   2   3  -5    1.54    0.14
   1  -3  -5    8.29    0.34
  -1  -3   5    8.35    0.37
  -1  -3   5    8.38    0.40
   1  -3  -5    8.14    0.38
   1  -3  -5    8.58    0.37
  -1  -3   5    8.82    0.44
   1   3  -5    8.74    0.39
  -1   3   5    8.87    0.44
  -1   3   5    8.44    0.37
   1   3  -5    8.50    0.38
  -1   3   5    8.50    0.37
  -1   3   5    8.09    0.38
   0  -3  -5    4.58    0.21
   0  -3   5    5.19    0.27
   0  -3   5    4.99    0.31
   0  -3  -5    4.89    0.29
   0  -3   5    5.05    0.32
   0   3   5    5.09    0.27
   0   3  -5    4.97    0.27
   0   3  -5    5.12    0.29
   0   3   5    4.99    0.27
   0   3   5    4.70    0.29
   0   3   5    4.64    0.33
  -1  -3  -5   14.84    0.59
   1  -3   5   14.85    0.63
   1  -3   5   13.98    0.64
   1  -3   5   15.01    0.55
  -1  -3  -5   12.61    0.60
  -1   3  -5   14.29    0.55
  -1   3  -5   14.23    0.59
   1   3   5   13.24    0.55
   1   3   5   13.71    0.56
   1   3   5   14.19    0.61
   1   3   5   14.33    0.66
   2  -3   5    1.33    0.22
   2  -3   5    1.36    0.15
  -2  -3  -5    1.24    0.18
   2  -3   5    1.29    0.20
  -2  -3  -5    1.28    0.21
   2   3   5    1.13    0.15
  -2   3  -5    1.34    0.19
   2   3   5    1.17    0.23
  -3  -3  -5    9.16    0.46
   3  -3   5    8.97    0.53
   3  -3   5    9.40    0.54
  -3  -3  -5    9.01    0.52
   3  -3   5    8.68    0.40
   3   3   5    8.72    0.42
   3   3   5    8.65    0.55
  -3   3  -5   10.17    0.49
   4  -3   5    0.03    0.13
  -4  -3  -5    0.04    0.11
  -4  -3  -5   -0.01    0.11
   4  -3   5    0.07    0.07
   4  -3   5   -0.08    0.12
   4   3   5    0.03    0.15
  -4   3  -5   -0.04    0.11
   4   3   5    0.03    0.08
   5  -3   5    2.33    0.34
  -5  -3  -5    1.69    0.32
   5   3   5    1.88    0.34
   5   3   5    2.14    0.21
  -5   3  -5    1.97    0.32
  -5   3  -5    2.06    0.28
  -8  -4   5    0.06    0.17
   8  -4  -5    0.16    0.14
   8  -4  -5   -0.02    0.09
   8   4  -5    0.14    0.13
  -8   4   5    0.01    0.18
  -8   4   5    0.09    0.15
   8   4  -5   -0.08    0.15
   8   4  -5    0.22    0.12
   7  -4  -5   10.66    0.59
  -7  -4   5   11.69    0.68
   7  -4  -5   11.47    0.51
   7   4  -5   10.47    0.58
  -7   4   5   11.75    0.64
   7   4  -5   11.52    0.53
   7   4  -5   10.97    0.65
   6  -4  -5    0.21    0.09
  -6  -4   5    0.25    0.17
   6  -4  -5    0.15    0.12
   6   4  -5    0.20    0.12
  -6   4   5    0.11    0.13
   6   4  -5    0.24    0.10
   6   4  -5    0.16    0.12
  -6   4   5    0.17    0.15
   5  -4  -5   37.80    1.26
  -5  -4   5   35.17    1.37
   5  -4  -5   38.80    1.27
   5  -4  -5   37.30    1.34
  -5   4   5   34.00    1.37
   5   4  -5   38.21    1.28
   5   4  -5   35.75    1.32
  -5   4   5   37.55    1.35
   5   4  -5   38.25    1.36
  -4  -4   5   10.82    0.45
   4  -4  -5   10.73    0.46
   4  -4  -5   11.12    0.47
   4  -4  -5   10.70    0.50
  -4  -4   5   10.98    0.55
   4   4  -5   10.56    0.51
   4   4  -5   11.21    0.50
   4   4  -5   11.14    0.46
   4   4  -5   11.09    0.47
  -4   4   5   10.85    0.53
   3  -4  -5   12.23    0.49
   3  -4  -5   11.53    0.49
  -3  -4   5   12.70    0.49
   3  -4  -5   12.24    0.51
  -3  -4   5   11.41    0.48
  -3  -4   5   11.29    0.54
   3   4  -5   12.50    0.49
   3   4  -5   12.42    0.53
   3   4  -5   10.59    0.45
  -3   4   5   11.81    0.54
  -3   4   5   11.55    0.54
   3   4  -5   12.14    0.49
   2  -4  -5   13.42    0.50
  -2  -4   5   14.21    0.54
  -2  -4   5   13.65    0.55
   2  -4  -5   14.59    0.55
   2  -4  -5   13.88    0.53
  -2  -4   5   13.59    0.59
  -2  -4   5   11.51    0.48
  -2   4   5   13.36    0.52
   2   4  -5   14.08    0.56
   2   4  -5   12.86    0.52
  -2   4   5   13.44    0.57
  -2   4   5   14.12    0.60
   2   4  -5   14.06    0.52
  -1  -4   5    0.57    0.14
   1  -4  -5    0.37    0.07
  -1  -4   5    0.40    0.11
   1  -4  -5    0.41    0.09
   1  -4  -5    0.70    0.11
  -1  -4   5    0.31    0.09
   1  -4  -5    0.47    0.10
  -1   4   5    0.36    0.10
   1   4  -5    0.46    0.11
  -1   4   5    0.41    0.13
   1   4  -5    0.39    0.10
   0  -4   5    4.01    0.28
   0  -4  -5    3.83    0.26
   0  -4   5    3.69    0.23
   0  -4   5    4.24    0.29
   0  -4  -5    4.06    0.26
   0   4   5    4.46    0.30
   0   4   5    4.04    0.26
   0   4  -5    3.89    0.25
   0   4  -5    3.90    0.25
   0   4   5    3.77    0.24
  -1  -4  -5    3.96    0.27
   1  -4   5    3.54    0.28
   1  -4   5    4.10    0.31
   1  -4   5    4.15    0.24
   1   4   5    4.22    0.25
   1   4   5    3.86    0.26
   1   4   5    4.11    0.32
  -1   4  -5    3.55    0.27
  -1   4  -5    3.88    0.24
  -2  -4  -5    4.46    0.30
   2  -4   5    4.58    0.26
   2  -4   5    3.86    0.33
  -2  -4  -5    4.47    0.33
   2  -4   5    4.39    0.33
  -2   4  -5    4.57    0.31
   2   4   5    4.09    0.40
   2   4   5    4.57    0.27
   2   4   5    4.87    0.38
  -2   4  -5    4.12    0.27
   3  -4   5   -0.09    0.10
  -3  -4  -5    0.05    0.11
  -3  -4  -5    0.24    0.12
   3  -4   5    0.10    0.07
   3  -4   5    0.09    0.12
   3   4   5   -0.03    0.13
  -3   4  -5    0.06    0.10
   3   4   5    0.09    0.08
  -4  -4  -5    2.11    0.29
   4  -4   5    1.99    0.18
  -4  -4  -5    2.49    0.26
   4  -4   5    1.93    0.30
   4  -4   5    1.69    0.28
   4   4   5    2.45    0.35
  -4   4  -5    2.04    0.26
   4   4   5    1.79    0.20
   5  -4   5    0.85    0.23
   5  -4   5    0.45    0.20
   5  -4   5    0.41    0.10
  -5  -4  -5    0.45    0.20
  -5   4  -5    0.30    0.15
   5   4   5    0.81    0.27
   5   4   5    0.58    0.14
  -8  -5   5    2.31    0.38
   8  -5  -5    2.30    0.31
   8  -5  -5    1.90    0.22
   8   5  -5    2.30    0.25
  -8   5   5    2.78    0.36
   8   5  -5    2.32    0.35
   8   5  -5    1.91    0.28
  -8   5   5    2.16    0.35
  -7  -5   5    7.15    0.52
   7  -5  -5    6.38    0.36
   7  -5  -5    6.79    0.46
   7   5  -5    6.75    0.39
   7   5  -5    7.49    0.45
   7   5  -5    6.67    0.49
  -7   5   5    4.73    0.44
  -7   5   5    6.83    0.48
   6  -5  -5    7.53    0.45
  -6  -5   5    7.81    0.52
   6  -5  -5    7.11    0.38
  -6   5   5    7.72    0.47
  -6   5   5    8.08    0.52
   6   5  -5    7.61    0.48
   6   5  -5    7.35    0.40
   6   5  -5    8.33    0.46
   5  -5  -5   10.73    0.47
   5  -5  -5   10.77    0.53
  -5  -5   5   10.57    0.47
  -5  -5   5   10.55    0.57
   5  -5  -5   10.64    0.47
   5   5  -5   10.32    0.47
  -5   5   5   10.43    0.58
   5   5  -5   10.82    0.53
   5   5  -5   10.84    0.54
  -5   5   5   10.01    0.52
   4  -5  -5   16.95    0.66
  -4  -5   5   16.93    0.66
  -4  -5   5   17.20    0.76
   4  -5  -5   17.11    0.70
   4  -5  -5   18.41    0.67
   4   5  -5   17.29    0.67
   4   5  -5   17.25    0.70
   4   5  -5   16.32    0.70
  -4   5   5   16.46    0.72
  -4   5   5   17.76    0.76
  -3  -5   5    0.38    0.10
   3  -5  -5    0.50    0.11
   3  -5  -5    0.50    0.11
  -3  -5   5    0.54    0.11
  -3  -5   5    0.41    0.13
   3  -5  -5    0.46    0.10
  -3   5   5    0.45    0.14
   3   5  -5    0.37    0.10
   3   5  -5    0.32    0.08
   3   5  -5    0.72    0.12
   3   5  -5    0.53    0.12
  -3   5   5    0.43    0.13
  -2  -5   5   17.14    0.71
   2  -5  -5   16.48    0.61
   2  -5  -5   17.22    0.65
   2  -5  -5   17.14    0.64
  -2  -5   5   18.16    0.66
  -2  -5   5   17.55    0.67
   2  -5  -5   17.11    0.66
  -2   5   5   17.18    0.71
   2   5  -5   16.98    0.68
  -2   5   5   16.85    0.70
   2   5  -5   17.05    0.64
  -2   5   5   17.41    0.64
   1  -5  -5   -0.09    0.06
  -1  -5   5    0.01    0.07
  -1  -5   5    0.02    0.08
   1  -5  -5    0.01    0.06
   1  -5  -5    0.01    0.05
  -1  -5   5    0.11    0.10
   1  -5  -5   -0.05    0.07
   1   5  -5   -0.04    0.07
  -1   5   5    0.02    0.07
   1   5  -5    0.09    0.07
  -1   5   5   -0.03    0.08
  -1   5   5    0.16    0.10
   0  -5   5   16.72    0.71
   0  -5  -5   17.84    0.70
   0  -5   5   18.79    0.73
   0  -5  -5   17.35    0.68
   0  -5   5   18.00    0.67
   0   5  -5   18.03    0.68
   0   5   5   18.41    0.67
   0   5   5   16.89    0.70
   0   5  -5   18.24    0.69
   0   5   5   16.30    0.73
  -1  -5  -5    1.20    0.18
   1  -5   5    1.53    0.21
  -1  -5  -5    1.41    0.18
   1  -5   5    1.89    0.21
   1  -5   5    1.63    0.16
   1   5   5    1.80    0.19
  -1   5  -5    1.71    0.18
   1   5   5    1.65    0.23
  -1   5  -5    1.67    0.19
   1   5   5    1.57    0.17
   2  -5   5    5.99    0.41
   2  -5   5    5.90    0.31
  -2  -5  -5    6.35    0.39
   2  -5   5    5.93    0.40
  -2  -5  -5    5.87    0.34
   2   5   5    6.02    0.42
   2   5   5    6.25    0.33
  -2   5  -5    6.48    0.37
   2   5   5    5.57    0.35
  -2   5  -5    6.29    0.34
  -3  -5  -5    1.65    0.25
   3  -5   5    1.65    0.25
  -3  -5  -5    1.27    0.19
   3  -5   5    1.44    0.16
   3  -5   5    1.39    0.24
   3   5   5    1.11    0.24
   3   5   5    1.57    0.19
  -3   5  -5    1.29    0.20
   4  -5   5    0.09    0.08
   4  -5   5    0.31    0.17
   4  -5   5    0.34    0.18
  -4  -5  -5    0.15    0.14
  -4  -5  -5    0.33    0.14
   4   5   5    0.11    0.16
   4   5   5    0.31    0.12
  -4   5  -5    0.48    0.16
  -5  -5  -5    2.49    0.35
   5  -5   5    1.71    0.18
   5  -5   5    2.22    0.32
   5   5   5    2.05    0.23
   5   5   5    1.91    0.37
  -5   5  -5    2.01    0.27
  -8  -6   5    0.34    0.24
   8  -6  -5    0.18    0.11
   8  -6  -5    0.24    0.17
   8   6  -5    0.36    0.15
   8   6  -5    0.42    0.20
   8   6  -5    0.31    0.13
  -8   6   5    0.32    0.20
   7  -6  -5    2.75    0.31
   7  -6  -5    2.27    0.22
  -7  -6   5    1.98    0.32
  -7   6   5    1.93    0.31
   7   6  -5    2.45    0.32
  -7   6   5    2.62    0.32
   7   6  -5    2.79    0.26
   7   6  -5    1.96    0.25
  -6  -6   5    0.63    0.22
   6  -6  -5    0.74    0.15
   6  -6  -5    0.53    0.16
   6  -6  -5    0.68    0.13
  -6   6   5    0.53    0.17
   6   6  -5    0.60    0.15
  -6   6   5    0.63    0.21
   6   6  -5    0.41    0.12
   6   6  -5    0.65    0.18
   5  -6  -5    4.92    0.30
   5  -6  -5    4.68    0.28
  -5  -6   5    4.84    0.30
   5  -6  -5    4.11    0.32
  -5  -6   5    4.27    0.37
   5   6  -5    4.38    0.29
  -5   6   5    4.50    0.33
   5   6  -5    4.92    0.34
   5   6  -5    4.69    0.33
   4  -6  -5   21.55    0.77
  -4  -6   5   20.35    0.77
   4  -6  -5   19.80    0.76
  -4  -6   5   20.55    0.86
   4  -6  -5   20.06    0.79
  -4   6   5   20.04    0.82
   4   6  -5   21.40    0.77
  -4   6   5   16.36    0.83
   4   6  -5   20.30    0.81
   4   6  -5   21.63    0.80
   3  -6  -5   81.28    2.56
   3  -6  -5   81.36    2.54
  -3  -6   5   80.58    2.54
  -3  -6   5   79.74    2.56
   3  -6  -5   78.06    2.55
  -3  -6   5   79.07    2.61
  -3   6   5   77.09    2.59
  -3   6   5   82.61    2.63
   3   6  -5   76.81    2.53
   3   6  -5   79.16    2.49
   3   6  -5   81.19    2.59
   3   6  -5   83.74    2.53
  -2  -6   5    2.00    0.22
   2  -6  -5    2.19    0.18
   2  -6  -5    1.92    0.19
   2  -6  -5    2.00    0.17
  -2  -6   5    1.78    0.19
  -2  -6   5    2.04    0.19
   2  -6  -5    1.81    0.15
   2   6  -5    2.31    0.18
  -2   6   5    2.10    0.22
   2   6  -5    2.06    0.20
  -2   6   5    2.00    0.17
  -2   6   5    1.91    0.21
   1  -6  -5   70.53    2.27
  -1  -6   5   71.18    2.31
   1  -6  -5   71.37    2.20
  -1  -6   5   69.51    2.25
  -1  -6   5   71.53    2.30
   1  -6  -5   71.49    2.25
   1   6  -5   70.04    2.25
  -1   6   5   70.36    2.24
   1   6  -5   70.00    2.28
  -1   6   5   71.21    2.31
  -1   6   5   68.49    2.31
   0  -6  -5    0.42    0.11
   0  -6   5    0.56    0.13
   0  -6  -5    0.40    0.11
   0  -6   5    0.48    0.13
   0  -6   5    0.48    0.11
   0   6   5    0.68    0.12
   0   6   5    0.56    0.14
   0   6   5    0.55    0.13
   0   6  -5    0.45    0.11
   0   6  -5    0.54    0.12
   1  -6   5    2.74    0.24
  -1  -6  -5    2.41    0.23
   1  -6   5    2.71    0.20
   1  -6   5    2.32    0.25
  -1  -6  -5    2.49    0.21
  -1   6  -5    2.78    0.22
  -1   6  -5    2.33    0.22
   1   6   5    2.57    0.21
   1   6   5    2.28    0.25
   1   6   5    2.67    0.23
  -2  -6  -5   14.98    0.69
   2  -6   5   15.29    0.58
   2  -6   5   15.11    0.70
  -2  -6  -5   14.16    0.61
   2  -6   5   15.07    0.68
  -2   6  -5   14.76    0.64
   2   6   5   15.00    0.73
   2   6   5   14.53    0.66
  -2   6  -5   14.56    0.62
   2   6   5   15.10    0.61
  -3  -6  -5   16.26    0.77
   3  -6   5   15.63    0.61
   3  -6   5   16.44    0.75
   3  -6   5   17.18    0.78
  -3  -6  -5   14.93    0.66
   3   6   5   16.00    0.82
  -3   6  -5   15.39    0.69
   3   6   5   16.17    0.65
   4  -6   5    5.39    0.43
   4  -6   5    5.91    0.30
  -4  -6  -5    5.98    0.45
   4   6   5    5.56    0.50
  -4   6  -5    5.28    0.38
   4   6   5    5.96    0.36
  -5  -6  -5   20.90    1.11
   5  -6   5   21.34    0.77
   5  -6   5   21.04    1.02
   5   6   5   21.66    1.22
  -5   6  -5   21.11    0.91
   5   6   5   22.26    0.87
   8  -7  -5    1.67    0.28
   8  -7  -5    1.98    0.22
  -8  -7   5    2.41    0.37
   8   7  -5    1.69    0.26
   8   7  -5    1.44    0.31
   8   7  -5    1.82    0.25
  -8   7   5    1.41    0.33
  -7  -7   5    1.79    0.31
   7  -7  -5    1.01    0.23
   7  -7  -5    1.83    0.20
   7   7  -5    1.40    0.27
  -7   7   5    1.83    0.28
   7   7  -5    1.28    0.21
  -7   7   5    1.35    0.28
   7   7  -5    1.62    0.24
   6  -7  -5    0.08    0.11
  -6  -7   5    0.09    0.17
   6  -7  -5   -0.01    0.07
   6  -7  -5    0.09    0.09
   6   7  -5   -0.04    0.11
   6   7  -5   -0.05    0.09
   6   7  -5   -0.06    0.08
  -6   7   5    0.00    0.11
  -6   7   5    0.09    0.12
   5  -7  -5    7.72    0.40
  -5  -7   5    7.81    0.49
   5  -7  -5    8.08    0.45
  -5  -7   5    7.49    0.41
   5  -7  -5    7.29    0.38
   5   7  -5    7.78    0.45
  -5   7   5    7.57    0.43
  -5   7   5    7.86    0.51
   5   7  -5    7.87    0.44
   5   7  -5    8.01    0.41
   4  -7  -5    5.91    0.33
  -4  -7   5    5.89    0.40
  -4  -7   5    5.94    0.35
   4  -7  -5    5.96    0.33
   4  -7  -5    5.12    0.33
   4   7  -5    6.07    0.37
   4   7  -5    6.09    0.33
  -4   7   5    6.19    0.37
  -4   7   5    5.26    0.40
   4   7  -5    6.06    0.35
   3  -7  -5    5.18    0.30
  -3  -7   5    5.64    0.31
  -3  -7   5    5.24    0.31
   3  -7  -5    5.14    0.30
  -3  -7   5    5.41    0.35
   3  -7  -5    5.67    0.32
  -3   7   5    4.97    0.36
   3   7  -5    5.13    0.28
   3   7  -5    5.16    0.26
  -3   7   5    5.07    0.33
   3   7  -5    4.98    0.32
   2  -7  -5    0.12    0.07
   2  -7  -5    0.17    0.08
   2  -7  -5    0.07    0.09
  -2  -7   5    0.16    0.08
  -2  -7   5    0.16    0.11
  -2  -7   5    0.25    0.10
  -2   7   5    0.05    0.11
   2   7  -5    0.06    0.08
  -2   7   5    0.20    0.11
   2   7  -5    0.20    0.10
   1  -7  -5    7.65    0.39
  -1  -7   5    8.06    0.42
   1  -7  -5    7.99    0.33
  -1  -7   5    8.42    0.39
   1  -7  -5    7.76    0.38
  -1  -7   5    7.60    0.41
   1   7  -5    7.98    0.41
  -1   7   5    7.81    0.43
  -1   7   5    7.84    0.43
   1   7  -5    8.09    0.38
  -1   7   5    8.31    0.38
   0  -7  -5    3.02    0.23
   0  -7   5    2.93    0.24
   0  -7   5    2.90    0.22
   0  -7   5    2.79    0.26
   0  -7  -5    3.06    0.24
   0   7  -5    2.65    0.22
   0   7   5    2.96    0.22
   0   7   5    2.79    0.25
   0   7   5    2.43    0.25
   0   7  -5    2.47    0.23
   1  -7   5    6.23    0.32
   1  -7   5    6.33    0.40
  -1  -7  -5    6.04    0.34
   1  -7   5    5.96    0.37
  -1   7  -5    6.59    0.36
   1   7   5    5.94    0.41
   1   7   5    6.40    0.38
  -1   7  -5    6.48    0.36
   1   7   5    6.08    0.33
   2  -7   5    1.02    0.21
  -2  -7  -5    0.63    0.13
   2  -7   5    0.76    0.13
  -2  -7  -5    0.51    0.15
   2  -7   5    0.72    0.17
   2   7   5    1.04    0.23
   2   7   5    0.83    0.18
  -2   7  -5    0.92    0.16
  -2   7  -5    0.51    0.13
   2   7   5    0.75    0.14
   3  -7   5    5.18    0.40
   3  -7   5    5.15    0.28
  -3  -7  -5    4.75    0.31
  -3  -7  -5    4.78    0.39
   3   7   5    5.08    0.32
   3   7   5    4.81    0.37
   3   7   5    5.15    0.45
  -3   7  -5    5.13    0.35
   4  -7   5    0.01    0.14
   4  -7   5    0.01    0.07
  -4  -7  -5   -0.11    0.10
   4   7   5   -0.07    0.09
  -4   7  -5   -0.05    0.11
   4   7   5    0.01    0.16
   8  -8  -5    0.52    0.19
   8  -8  -5    0.60    0.14
  -8  -8   5    1.10    0.27
  -8   8   5    0.53    0.23
   8   8  -5    0.87    0.24
   8   8  -5    0.72    0.19
   8   8  -5    0.69    0.18
  -7  -8   5    1.72    0.33
   7  -8  -5    2.03    0.30
   7  -8  -5    1.51    0.20
   7   8  -5    2.45    0.28
  -7   8   5    1.82    0.33
   7   8  -5    2.35    0.26
   7   8  -5    2.20    0.32
   6  -8  -5    0.08    0.09
   6  -8  -5    0.18    0.13
  -6  -8   5    0.10    0.17
   6  -8  -5    0.14    0.11
   6   8  -5    0.23    0.11
   6   8  -5    0.19    0.15
  -6   8   5    0.14    0.12
  -6   8   5    0.44    0.20
   6   8  -5   -0.02    0.10
   5  -8  -5    5.08    0.35
  -5  -8   5    4.68    0.38
   5  -8  -5    4.88    0.30
   5  -8  -5    3.96    0.29
  -5  -8   5    4.62    0.32
   5   8  -5    4.61    0.31
  -5   8   5    3.50    0.36
  -5   8   5    4.66    0.34
   5   8  -5    4.98    0.35
   5   8  -5    4.89    0.34
   4  -8  -5    9.23    0.45
   4  -8  -5    9.10    0.43
   4  -8  -5    9.43    0.47
  -4  -8   5    9.17    0.46
  -4   8   5    8.19    0.50
   4   8  -5    9.66    0.44
   4   8  -5    8.75    0.47
   4   8  -5    8.73    0.45
  -4   8   5    8.75    0.46
  -3  -8   5    2.73    0.26
   3  -8  -5    3.32    0.25
   3  -8  -5    3.25    0.24
  -3  -8   5    3.17    0.26
  -3  -8   5    3.34    0.30
   3  -8  -5    3.14    0.24
  -3   8   5    3.50    0.31
  -3   8   5    3.32    0.26
   3   8  -5    3.19    0.26
   3   8  -5    3.32    0.20
  -2  -8   5    0.19    0.10
  -2  -8   5    0.24    0.10
  -2  -8   5    0.27    0.11
   2  -8  -5    0.16    0.08
   2  -8  -5    0.19    0.10
   2  -8  -5    0.08    0.07
  -2   8   5    0.24    0.11
  -2   8   5    0.15    0.12
   2   8  -5    0.34    0.11
   2   8  -5    0.09    0.08
  -1  -8   5    6.65    0.37
  -1  -8   5    6.94    0.36
   1  -8  -5    7.09    0.37
   1  -8  -5    6.01    0.34
  -1  -8   5    7.63    0.40
   1   8  -5    7.08    0.38
  -1   8   5    7.20    0.40
  -1   8   5    6.56    0.40
   1   8  -5    6.53    0.34
  -1   8   5    7.29    0.35
   0  -8  -5   12.01    0.53
   0  -8   5   11.81    0.56
   0  -8   5   12.75    0.54
   0  -8  -5    9.36    0.51
   0  -8   5   11.98    0.51
   0   8   5   12.40    0.51
   0   8  -5   11.88    0.54
   0   8   5   12.31    0.58
   0   8  -5   11.11    0.51
   0   8   5   11.99    0.57
   1  -8   5    0.10    0.08
   1  -8   5    0.11    0.11
   1  -8   5    0.19    0.11
  -1  -8  -5    0.20    0.10
  -1  -8  -5    0.11    0.10
   1   8   5    0.19    0.10
  -1   8  -5    0.32    0.11
  -1   8  -5    0.23    0.11
   1   8   5    0.23    0.12
   1   8   5    0.17    0.13
   2  -8   5    0.32    0.15
  -2  -8  -5    0.87    0.15
  -2  -8  -5    0.72    0.18
   2  -8   5    0.92    0.15
   2   8   5    0.73    0.15
   2   8   5    0.93    0.22
  -2   8  -5    0.50    0.15
  -2   8  -5    1.21    0.19
   2   8   5    0.71    0.17
   3  -8   5    0.54    0.18
  -3  -8  -5    0.44    0.13
   3  -8   5    0.59    0.11
  -3  -8  -5    0.67    0.19
  -3   8  -5    0.55    0.16
   3   8   5    0.46    0.13
   3   8   5    0.45    0.19
   3   8   5    0.49    0.16
   4  -8   5    0.67    0.12
   4  -8   5    0.36    0.18
  -4  -8  -5    1.00    0.24
  -4   8  -5    0.87    0.19
   4   8   5    0.56    0.15
   4   8   5    0.40    0.21
   7  -9  -5   -0.02    0.13
  -7  -9   5   -0.01    0.15
   7  -9  -5    0.17    0.10
   7   9  -5    0.15    0.13
   7   9  -5   -0.08    0.12
   7   9  -5    0.06    0.12
  -7   9   5    0.13    0.19
   6  -9  -5    3.33    0.29
   6  -9  -5    3.47    0.27
   6  -9  -5    3.95    0.35
  -6  -9   5    4.04    0.39
  -6  -9   5    3.74    0.30
  -6   9   5    3.37    0.39
   6   9  -5    3.60    0.31
   6   9  -5    3.55    0.35
   6   9  -5    3.64    0.29
  -5  -9   5    0.19    0.15
   5  -9  -5    0.14    0.11
  -5  -9   5    0.13    0.11
   5  -9  -5    0.23    0.10
   5  -9  -5    0.35    0.14
   5   9  -5    0.15    0.10
   5   9  -5    0.08    0.11
   5   9  -5    0.55    0.13
  -5   9   5    0.29    0.17
  -5   9   5    0.33    0.13
  -4  -9   5    2.19    0.23
  -4  -9   5    1.79    0.25
   4  -9  -5    2.08    0.21
   4  -9  -5    2.09    0.22
   4  -9  -5    2.12    0.22
   4   9  -5    1.81    0.21
  -4   9   5    1.70    0.25
   4   9  -5    2.05    0.23
  -4   9   5    2.18    0.23
  -3  -9   5    6.21    0.38
  -3  -9   5    5.65    0.36
   3  -9  -5    6.30    0.34
   3  -9  -5    6.32    0.35
   3  -9  -5    6.10    0.33
  -3   9   5    5.77    0.40
   3   9  -5    5.92    0.37
  -3   9   5    5.65    0.35
   2  -9  -5    4.32    0.29
   2  -9  -5    3.93    0.25
  -2  -9   5    4.07    0.30
   2  -9  -5    4.11    0.27
  -2  -9   5    3.68    0.28
  -2  -9   5    4.63    0.29
  -2   9   5    3.90    0.29
   2   9  -5    4.02    0.24
  -2   9   5    4.62    0.34
   2   9  -5    3.90    0.29
  -1  -9   5   12.86    0.56
  -1  -9   5   12.52    0.54
   1  -9  -5   12.61    0.53
   1  -9  -5   12.61    0.55
  -1  -9   5   12.18    0.58
   1   9  -5   12.95    0.58
  -1   9   5   12.65    0.58
  -1   9   5   12.51    0.61
   1   9  -5   12.55    0.53
   0  -9   5    6.19    0.36
   0  -9  -5    6.83    0.37
   0  -9  -5    5.32    0.35
   0  -9   5    6.38    0.40
   0  -9   5    6.30    0.34
   0   9  -5    7.19    0.39
   0   9   5    6.47    0.40
   0   9   5    6.72    0.35
   0   9   5    6.71    0.42
   0   9  -5    6.09    0.35
  -1  -9  -5    4.11    0.32
   1  -9   5    4.67    0.28
  -1  -9  -5    4.28    0.30
   1  -9   5    4.28    0.34
  -1   9  -5    4.02    0.30
   1   9   5    4.29    0.34
  -1   9  -5    4.12    0.31
   1   9   5    4.08    0.35
   1   9   5    4.47    0.29
  -2  -9  -5    4.54    0.30
   2  -9   5    3.94    0.26
  -2  -9  -5    3.77    0.34
   2  -9   5    4.21    0.36
  -2   9  -5    3.66    0.30
   2   9   5    4.19    0.30
  -2   9  -5    4.22    0.33
   2   9   5    4.14    0.37
   2   9   5    4.11    0.34
  -3  -9  -5    1.10    0.23
   3  -9   5    1.04    0.23
  -3  -9  -5    1.01    0.17
   3  -9   5    1.08    0.15
   3   9   5    1.20    0.22
  -3   9  -5    1.42    0.23
   3   9   5    0.88    0.16
  -3   9  -5    1.03    0.20
   3   9   5    0.83    0.23
   4  -9   5    0.60    0.19
  -4  -9  -5    1.09    0.24
   4  -9   5    0.94    0.14
  -4   9  -5    0.63    0.18
   4   9   5    1.06    0.27
   4   9   5    0.61    0.16
   7 -10  -5    7.87    0.54
  -7 -10   5    7.14    0.56
   7 -10  -5    8.39    0.44
   7  10  -5    6.94    0.54
   7  10  -5    8.21    0.48
   7  10  -5    8.52    0.51
  -7  10   5    8.46    0.63
  -6 -10   5    6.74    0.50
   6 -10  -5    7.38    0.43
   6 -10  -5    6.95    0.47
   6 -10  -5    7.19    0.39
  -6 -10   5    6.18    0.42
   6  10  -5    6.46    0.46
   6  10  -5    6.79    0.41
   6  10  -5    7.08    0.44
  -6  10   5    6.59    0.52
  -5 -10   5   11.37    0.61
  -5 -10   5   11.20    0.57
   5 -10  -5   11.13    0.58
   5 -10  -5   11.87    0.53
   5 -10  -5   11.56    0.56
  -5  10   5   10.94    0.64
   5  10  -5   11.43    0.58
   5  10  -5   11.40    0.58
   4 -10  -5    3.19    0.25
  -4 -10   5    3.06    0.27
   4 -10  -5    3.04    0.26
   4 -10  -5    2.76    0.27
   4  10  -5    2.66    0.27
  -4  10   5    2.64    0.31
  -4  10   5    3.11    0.27
   4  10  -5    3.02    0.26
  -3 -10   5   14.60    0.65
   3 -10  -5   15.33    0.63
   3 -10  -5   15.59    0.62
  -3 -10   5   15.22    0.67
   3 -10  -5   14.67    0.64
  -3  10   5   15.00    0.64
  -3  10   5   13.27    0.69
   3  10  -5   14.36    0.66
   2 -10  -5    1.75    0.18
   2 -10  -5    1.20    0.19
  -2 -10   5    1.92    0.23
  -2 -10   5    1.55    0.19
   2 -10  -5    1.90    0.19
  -2 -10   5    1.52    0.20
  -2  10   5    1.66    0.21
  -2  10   5    1.95    0.24
   2  10  -5    1.77    0.20
   2  10  -5    1.75    0.17
   1 -10  -5   13.61    0.58
  -1 -10   5   14.52    0.66
   1 -10  -5   14.87    0.62
  -1 -10   5   14.16    0.61
  -1 -10   5   14.23    0.60
  -1  10   5   14.50    0.64
   1  10  -5   13.25    0.58
  -1  10   5   14.42    0.69
   1  10  -5   14.81    0.64
   0 -10   5    5.01    0.31
   0 -10  -5    5.51    0.34
   0 -10   5    5.61    0.37
   0 -10  -5    4.99    0.32
   0  10   5    5.48    0.37
   0  10  -5    5.06    0.33
   0  10  -5    4.92    0.34
   0  10   5    5.11    0.31
   0  10   5    4.71    0.37
  -1 -10  -5    6.50    0.37
   1 -10   5    5.62    0.33
   1 -10   5    5.99    0.40
  -1 -10  -5    6.01    0.40
   1  10   5    6.17    0.35
   1  10   5    6.13    0.42
  -1  10  -5    5.54    0.38
   1  10   5    5.49    0.41
  -1  10  -5    5.83    0.37
   2 -10   5    1.79    0.19
  -2 -10  -5    1.35    0.24
  -2 -10  -5    1.88    0.22
   2 -10   5    2.23    0.29
  -2  10  -5    2.25    0.26
  -2  10  -5    1.48    0.22
   2  10   5    1.61    0.28
   2  10   5    2.01    0.22
   2  10   5    1.54    0.25
   3 -10   5    2.40    0.30
  -3 -10  -5    1.80    0.29
  -3 -10  -5    2.03    0.31
   3 -10   5    1.83    0.19
   3  10   5    1.67    0.27
   3  10   5    1.61    0.31
  -3  10  -5    2.02    0.26
  -3  10  -5    2.04    0.27
   3  10   5    1.83    0.24
  -4 -10  -5    0.28    0.16
   4 -10   5    0.46    0.19
   4 -10   5    0.14    0.09
   4  10   5    0.37    0.15
   4  10   5    0.37    0.21
  -4  10  -5    0.16    0.14
  -7 -11   5    0.11    0.18
   7 -11  -5   -0.13    0.11
   7 -11  -5    0.01    0.09
   7  11  -5    0.00    0.11
  -7  11   5    0.15    0.18
   7  11  -5    0.20    0.18
   6 -11  -5   10.23    0.58
  -6 -11   5    8.98    0.53
   6 -11  -5    9.66    0.48
  -6 -11   5    7.92    0.57
   6 -11  -5    9.20    0.51
   6  11  -5   10.48    0.56
   6  11  -5    9.70    0.58
  -6  11   5    9.53    0.63
  -5 -11   5   -0.05    0.12
   5 -11  -5   -0.01    0.11
   5 -11  -5   -0.13    0.07
  -5 -11   5   -0.01    0.12
   5 -11  -5   -0.06    0.09
   5  11  -5   -0.16    0.09
  -5  11   5    0.00    0.15
   5  11  -5   -0.14    0.09
  -4 -11   5    5.23    0.39
  -4 -11   5    6.63    0.41
   4 -11  -5    6.94    0.37
   4 -11  -5    6.01    0.39
   4 -11  -5    6.18    0.38
   4  11  -5    6.92    0.41
  -4  11   5    6.61    0.47
  -3 -11   5    2.78    0.26
   3 -11  -5    2.84    0.24
  -3 -11   5    2.29    0.25
   3 -11  -5    2.55    0.23
   3 -11  -5    2.89    0.25
  -3  11   5    2.37    0.29
   3  11  -5    2.59    0.26
  -3  11   5    2.15    0.23
  -2 -11   5   13.43    0.60
   2 -11  -5   14.28    0.60
  -2 -11   5   13.64    0.64
   2 -11  -5   14.51    0.58
  -2 -11   5   14.02    0.60
   2 -11  -5   13.45    0.61
   2  11  -5   13.42    0.63
  -2  11   5   13.31    0.68
  -2  11   5   13.55    0.61
   2  11  -5   14.26    0.57
  -1 -11   5    0.97    0.17
   1 -11  -5    0.68    0.15
   1 -11  -5    1.41    0.28
  -1 -11   5    0.84    0.18
   1  11  -5    0.61    0.16
  -1  11   5    0.81    0.17
   1  11  -5    0.74    0.14
  -1  11   5    0.88    0.20
   0 -11  -5    6.71    0.38
   0 -11   5    6.66    0.36
   0 -11   5    6.15    0.41
   0 -11  -5    6.52    0.38
   0  11   5    6.07    0.40
   0  11  -5    5.73    0.38
   0  11   5    6.33    0.44
   0  11  -5    6.54    0.38
  -1 -11  -5    0.19    0.13
   1 -11   5    0.26    0.15
   1 -11   5    0.24    0.10
  -1 -11  -5    0.54    0.14
   1  11   5    0.32    0.15
  -1  11  -5    0.49    0.16
   1  11   5    0.56    0.17
  -1  11  -5    0.42    0.14
   1  11   5    0.27    0.11
  -2 -11  -5    1.97    0.27
  -2 -11  -5    1.93    0.23
   2 -11   5    2.00    0.21
   2 -11   5    1.69    0.27
   2  11   5    1.64    0.28
   2  11   5    1.85    0.23
  -2  11  -5    2.03    0.27
   2  11   5    2.24    0.31
  -2  11  -5    1.89    0.25
   3 -11   5    0.92    0.23
   3 -11   5    0.59    0.13
  -3 -11  -5    0.46    0.18
  -3  11  -5    0.56    0.18
  -3  11  -5    0.44    0.16
   3  11   5    0.47    0.15
   3  11   5    0.51    0.22
   3  11   5    0.50    0.19
  -4 -11  -5    1.56    0.29
   4 -11   5    1.75    0.19
   4 -11   5    1.86    0.31
   4  11   5    2.09    0.35
  -4  11  -5    2.33    0.30
   4  11   5    1.45    0.34
   4  11   5    1.60    0.25
   7 -12  -5    2.34    0.28
  -7 -12   5    1.86    0.33
   7 -12  -5    2.46    0.25
   7 -12  -5    2.72    0.34
   7  12  -5    2.02    0.34
  -7  12   5    1.74    0.36
   7  12  -5    1.94    0.29
  -6 -12   5    2.90    0.36
   6 -12  -5    3.41    0.28
  -6 -12   5    3.42    0.34
   6 -12  -5    3.33    0.34
   6 -12  -5    2.86    0.31
   6  12  -5    3.07    0.32
  -6  12   5    2.18    0.34
   6  12  -5    3.05    0.34
   5 -12  -5    6.21    0.40
   5 -12  -5    6.15    0.38
   5 -12  -5    6.91    0.44
  -5 -12   5    6.44    0.44
   5  12  -5    6.54    0.48
  -5  12   5    5.86    0.48
   5  12  -5    6.62    0.43
  -4 -12   5   -0.07    0.11
   4 -12  -5   -0.05    0.10
   4 -12  -5    0.08    0.11
   4 -12  -5    0.11    0.10
  -4 -12   5    0.12    0.12
  -4  12   5    0.06    0.14
   4  12  -5   -0.08    0.10
   3 -12  -5    6.48    0.36
   3 -12  -5    6.22    0.38
  -3 -12   5    5.57    0.40
  -3 -12   5    5.76    0.37
   3 -12  -5    6.06    0.36
   3  12  -5    6.01    0.40
  -3  12   5    5.67    0.43
  -2 -12   5   17.56    0.72
   2 -12  -5   17.90    0.73
  -2 -12   5   18.21    0.78
   2  12  -5   16.69    0.75
  -2  12   5   17.51    0.82
  -2  12   5   16.84    0.91
   2  12  -5   15.99    0.66
   1 -12  -5    6.86    0.40
  -1 -12   5    6.78    0.43
  -1 -12   5    6.91    0.38
   1  12  -5    6.75    0.42
   1  12  -5    6.69    0.38
  -1  12   5    6.68    0.40
  -1  12   5    6.55    0.45
   0 -12  -5   42.02    1.47
   0 -12  -5   42.14    1.48
   0 -12   5   40.71    1.53
   0 -12   5   43.18    1.45
   0  12  -5   40.94    1.46
   0  12   5   42.03    1.52
   0  12   5   41.49    1.58
   0  12  -5   41.39    1.51
  -1 -12  -5    9.27    0.48
   1 -12   5    9.76    0.47
   1 -12   5    9.50    0.56
  -1 -12  -5    9.01    0.52
   1  12   5    9.80    0.58
  -1  12  -5    9.89    0.54
   1  12   5    9.43    0.55
  -1  12  -5    9.08    0.49
   2 -12   5    0.02    0.09
   2 -12   5    0.09    0.12
  -2 -12  -5   -0.01    0.09
  -2 -12  -5   -0.08    0.13
   2  12   5    0.14    0.16
   2  12   5    0.10    0.12
   2  12   5    0.04    0.12
  -2  12  -5    0.00    0.10
  -2  12  -5   -0.01    0.13
   3 -12   5    3.43    0.27
  -3 -12  -5    3.42    0.36
   3 -12   5    3.74    0.38
   3  12   5    3.86    0.33
  -3  12  -5    3.47    0.35
  -3  12  -5    3.31    0.33
   3  12   5    4.08    0.42
   3  12   5    3.49    0.37
   6 -13  -5    4.08    0.38
   6 -13  -5    4.39    0.33
  -6 -13   5    4.20    0.40
  -6 -13   5    3.97    0.37
   6 -13  -5    3.86    0.34
  -6  13   5    4.54    0.47
   6  13  -5    3.57    0.37
   6  13  -5    4.53    0.37
   5 -13  -5    1.26    0.23
  -5 -13   5    0.66    0.18
   5 -13  -5    1.45    0.23
   5 -13  -5    1.34    0.21
  -5 -13   5    1.59    0.27
  -5  13   5    1.32    0.28
   5  13  -5    1.45    0.25
  -4 -13   5    0.07    0.13
  -4 -13   5    0.04    0.13
   4 -13  -5    0.30    0.13
   4 -13  -5    0.17    0.12
   4 -13  -5    0.01    0.10
  -4  13   5    0.03    0.16
   4  13  -5    0.16    0.13
  -3 -13   5    1.58    0.25
   3 -13  -5    1.70    0.22
   3 -13  -5    1.53    0.20
   3 -13  -5    1.95    0.22
  -3  13   5    1.63    0.28
   3  13  -5    1.60    0.22
  -2 -13   5    3.25    0.27
  -2 -13   5    2.50    0.30
   2 -13  -5    3.12    0.28
   2  13  -5    3.20    0.29
  -2  13   5    2.53    0.32
   2  13  -5    3.59    0.25
  -1 -13   5    4.68    0.33
  -1 -13   5    4.85    0.38
   1 -13  -5    5.41    0.35
   1  13  -5    4.54    0.31
   1  13  -5    4.51    0.35
  -1  13   5    4.15    0.38
   0 -13   5    2.92    0.31
   0 -13  -5    2.16    0.25
   0 -13  -5    2.39    0.26
   0 -13   5    2.71    0.26
   0  13  -5    2.99    0.27
   0  13   5    2.39    0.27
   0  13  -5    2.94    0.30
   0  13   5    2.55    0.33
   1 -13   5    7.74    0.42
  -1 -13  -5    6.55    0.45
   1 -13   5    7.99    0.50
  -1 -13  -5    7.43    0.43
  -1  13  -5    7.77    0.48
  -1  13  -5    7.47    0.44
   1  13   5    7.77    0.52
   1  13   5    6.60    0.47
   2 -13   5    0.81    0.16
  -2 -13  -5    0.69    0.20
  -2 -13  -5    1.15    0.19
   2 -13   5    1.42    0.26
   2  13   5    1.48    0.29
   2  13   5    1.10    0.25
  -2  13  -5    1.26    0.23
  -2  13  -5    1.06    0.23
   3 -13   5    4.47    0.31
  -3 -13  -5    3.27    0.37
   3 -13   5    5.35    0.45
  -3  13  -5    4.00    0.39
   3  13   5    4.66    0.43
  -3  13  -5    4.64    0.38
   3  13   5    4.86    0.37
   3  13   5    4.41    0.45
   6 -14  -5    1.16    0.25
   6 -14  -5    1.24    0.20
  -6 -14   5    1.50    0.27
  -6 -14   5    0.38    0.18
   6 -14  -5    0.63    0.18
  -6  14   5    0.94    0.30
   6  14  -5    0.74    0.20
   5 -14  -5    1.68    0.23
   5 -14  -5    2.13    0.29
   5 -14  -5    1.28    0.22
  -5 -14   5    1.51    0.27
  -5  14   5    1.80    0.35
   5  14  -5    2.28    0.28
   4 -14  -5    6.78    0.43
  -4 -14   5    6.35    0.45
   4 -14  -5    6.10    0.42
   4 -14  -5    6.38    0.39
   4  14  -5    6.68    0.45
  -4  14   5    6.35    0.51
   3 -14  -5    1.86    0.23
  -3 -14   5    2.06    0.27
   3 -14  -5    1.79    0.22
   3 -14  -5    1.44    0.22
  -3  14   5    1.56    0.30
   3  14  -5    1.60    0.23
   2 -14  -5    0.02    0.12
  -2 -14   5    0.11    0.14
  -2  14   5   -0.01    0.13
   2  14  -5    0.08    0.11
  -1 -14   5    2.13    0.25
   1 -14  -5    2.15    0.26
  -1 -14   5    1.81    0.28
  -1  14   5    2.12    0.30
   1  14  -5    2.20    0.22
   1  14  -5    2.21    0.28
   0 -14   5    5.56    0.36
   0 -14   5    5.05    0.40
   0 -14  -5    4.88    0.36
   0 -14  -5    5.21    0.36
   0  14  -5    5.58    0.40
   0  14  -5    4.63    0.34
   0  14   5    5.47    0.44
  -1 -14  -5    1.36    0.25
   1 -14   5    0.92    0.18
   1 -14   5    1.54    0.27
  -1 -14  -5    1.13    0.20
   1  14   5    0.87    0.22
   1  14   5    1.23    0.24
  -1  14  -5    1.12    0.23
  -1  14  -5    1.26    0.21
  -2 -14  -5    3.10    0.35
   2 -14   5    3.45    0.28
   2 -14   5    3.31    0.36
  -2 -14  -5    3.45    0.30
   2  14   5    4.00    0.39
   2  14   5    3.12    0.38
  -2  14  -5    3.24    0.32
  -2  14  -5    3.91    0.38
   3 -14   5    0.17    0.12
   3 -14   5    0.40    0.20
  -3 -14  -5    0.51    0.21
   3  14   5    0.20    0.17
  -3  14  -5    0.20    0.18
   3  14   5    0.31    0.20
  -3  14  -5    0.37    0.17
  -6  15   5    0.51    0.27
   5 -15  -5    0.35    0.15
   5 -15  -5    0.44    0.14
   5 -15  -5    0.44    0.18
  -5 -15   5    0.44    0.18
  -5  15   5    0.20    0.21
   5  15  -5    0.54    0.18
  -4 -15   5    9.16    0.56
   4 -15  -5    8.77    0.51
   4 -15  -5    8.76    0.48
   4 -15  -5    8.72    0.52
   4  15  -5    8.54    0.53
  -4  15   5    9.60    0.63
   3 -15  -5    0.43    0.16
  -3 -15   5    0.44    0.16
  -3  15   5    0.60    0.21
   3  15  -5    0.35    0.16
   2 -15  -5   10.64    0.54
  -2 -15   5    9.27    0.57
  -2  15   5    9.17    0.60
   2  15  -5    9.43    0.54
   1 -15  -5    0.52    0.16
  -1 -15   5    0.40    0.17
  -1 -15   5    0.27    0.13
   1  15  -5    0.31    0.15
  -1  15   5    0.42    0.19
   1  15  -5    0.40    0.14
   0 -15  -5    2.68    0.28
   0 -15   5    2.54    0.27
   0 -15   5    2.67    0.32
   0  15   5    2.44    0.33
   0  15  -5    2.41    0.26
   0  15  -5    2.62    0.31
   1 -15   5    1.09    0.24
  -1 -15  -5    1.12    0.22
   1 -15   5    1.04    0.19
  -1 -15  -5    0.77    0.18
   1  15   5    0.82    0.23
  -1  15  -5    1.12    0.22
  -1  15  -5    1.33    0.22
   2 -15   5    0.81    0.22
   2 -15   5    1.24    0.20
  -2 -15  -5    1.03    0.23
  -2  15  -5    0.90    0.20
   2  15   5    1.55    0.31
  -2  15  -5    1.07    0.25
   5 -16  -5    3.83    0.35
   5 -16  -5    3.74    0.32
  -5 -16   5    2.75    0.35
   5 -16  -5    3.56    0.36
  -5  16   5    3.47    0.45
   5  16  -5    2.94    0.33
   4 -16  -5    1.15    0.20
  -4 -16   5    1.13    0.24
   4 -16  -5    1.57    0.25
   4 -16  -5    0.92    0.20
  -4  16   5    1.02    0.22
   4  16  -5    1.08    0.22
  -4  16   5    1.24    0.29
   3 -16  -5    5.59    0.41
  -3 -16   5    6.41    0.47
   3  16  -5    5.04    0.41
  -3  16   5    6.19    0.51
  -2 -16   5    4.41    0.40
   2 -16  -5    4.95    0.37
   2  16  -5    4.04    0.36
  -2  16   5    3.78    0.42
  -1 -16   5    9.09    0.56
  -1 -16   5    8.95    0.49
   1 -16  -5    8.29    0.49
  -1  16   5    8.49    0.58
   1  16  -5    8.31    0.52
   1  16  -5    8.35    0.46
   0 -16   5    1.45    0.27
   0 -16  -5    1.24    0.22
   0 -16   5    1.60    0.24
   0  16   5    1.39    0.28
   0  16  -5    1.36    0.24
   0  16  -5    1.15    0.20
   1 -16   5    5.84    0.40
   1 -16   5    5.35    0.46
  -1 -16  -5    6.04    0.45
  -1 -16  -5    5.95    0.41
  -1  16  -5    6.26    0.47
  -1  16  -5    6.17    0.42
   1  16   5    6.46    0.51
  -2 -16  -5    0.09    0.17
   2 -16   5    0.17    0.12
   2 -16   5    0.11    0.15
  -2  16  -5    0.08    0.14
   2  16   5    0.04    0.15
  -2  16  -5    0.07    0.16
  -4 -17   5    5.51    0.46
   4 -17  -5    7.03    0.44
   4 -17  -5    6.02    0.44
  -4  17   5    4.31    0.39
  -4  17   5    6.31    0.55
   4  17  -5    5.60    0.44
  -3 -17   5    0.13    0.15
   3 -17  -5    0.11    0.14
   3  17  -5    0.12    0.13
  -3  17   5    0.09    0.17
   2 -17  -5    1.16    0.23
  -2 -17   5    1.06    0.25
  -2  17   5    0.77    0.23
   2  17  -5    1.13    0.22
  -1 -17   5    1.06    0.24
   1 -17  -5    0.49    0.17
  -1 -17   5    0.98    0.20
   1  17  -5    0.88    0.21
  -1  17   5    0.80    0.24
   1  17  -5    1.03    0.21
   0 -17   5    1.21    0.21
   0 -17  -5    1.13    0.22
   0 -17   5    0.88    0.23
   0  17  -5    0.84    0.19
   0  17   5    1.27    0.28
   0  17  -5    0.68    0.21
  -1 -17  -5    0.67    0.18
   1 -17   5    0.25    0.15
   1 -17   5    0.54    0.21
  -1  17  -5    0.43    0.17
  -1  17  -5    0.50    0.21
   1  17   5    0.01    0.16
  -3 -18   5    0.11    0.16
   3 -18  -5    0.12    0.15
  -3  18   5   -0.19    0.12
   3  18  -5   -0.02    0.13
  -2 -18   5    3.35    0.39
   2 -18  -5    3.45    0.35
  -2  18   5    4.06    0.44
   2  18  -5    3.85    0.37
   1 -18  -5   -0.01    0.13
  -1 -18   5   -0.05    0.14
  -1  18   5   -0.13    0.14
   1  18  -5   -0.02    0.13
   0 -18   5    0.60    0.18
   0 -18   5    0.66    0.21
   0 -18  -5    0.46    0.17
   0  18  -5    0.60    0.21
   0  18   5    0.34    0.20
   0  18  -5    0.59    0.18
  -8   0   6   34.02    1.42
   8   0  -6   34.19    1.37
   8   0  -6   33.56    1.24
   7   0  -6   -0.06    0.08
  -7   0   6   -0.01    0.17
  -7   0   6    0.04    0.11
   7   0  -6   -0.14    0.08
   6   0  -6   37.38    1.30
  -6   0   6   36.37    1.43
   6   0  -6   37.72    1.39
  -5   0   6    0.06    0.13
  -5   0   6   -0.05    0.09
   5   0  -6    0.02    0.07
   5   0  -6    0.06    0.10
   4   0  -6    1.88    0.17
   4   0  -6    2.28    0.20
   4   0  -6    1.98    0.20
  -4   0   6    1.76    0.22
  -4   0   6    1.82    0.25
  -3   0   6   -0.04    0.06
   3   0  -6   -0.08    0.06
  -3   0   6    0.05    0.08
   3   0  -6    0.00    0.07
  -3   0   6   -0.09    0.09
   3   0  -6    0.01    0.07
  -2   0   6   65.81    2.08
  -2   0   6   63.47    2.18
   2   0  -6   62.26    2.09
  -2   0   6   66.28    2.07
   2   0  -6   65.00    2.08
   1   0  -6    0.02    0.06
  -1   0   6    0.08    0.08
   1   0  -6    0.02    0.07
  -1   0   6    0.06    0.11
  -1   0   6   -0.17    0.06
   0   0   6  122.20    3.95
   0   0   6  123.18    3.88
   0   0   6  123.03    3.82
   0   0  -6  122.88    3.85
   1   0   6    0.03    0.10
   1   0   6   -0.11    0.08
   1   0   6    0.06    0.08
  -1   0  -6   -0.04    0.09
   2   0   6    8.53    0.52
   2   0   6    8.92    0.44
  -2   0  -6   10.05    0.49
   2   0   6    9.25    0.57
   3   0   6   -0.05    0.11
   3   0   6    0.07    0.08
  -3   0  -6    0.07    0.13
   3   0   6   -0.05    0.11
  -3   0  -6    0.01    0.12
  -4   0  -6    1.55    0.29
  -4   0  -6    1.33    0.23
   4   0   6    1.42    0.19
   4   0   6    1.63    0.31
  -8  -1   6    4.53    0.47
  -8  -1   6    4.91    0.48
   8  -1  -6    4.73    0.34
   8  -1  -6    4.90    0.42
  -8   1   6    4.21    0.45
   8   1  -6    5.12    0.42
   8   1  -6    5.11    0.35
  -8   1   6    5.01    0.47
   7  -1  -6    0.09    0.09
   7  -1  -6    0.25    0.14
  -7  -1   6   -0.04    0.16
  -7  -1   6    0.31    0.17
   7   1  -6    0.17    0.13
   7   1  -6    0.08    0.10
  -7   1   6    0.17    0.14
  -7   1   6    0.00    0.16
   6  -1  -6    5.00    0.31
  -6  -1   6    3.62    0.36
   6  -1  -6    4.30    0.34
  -6   1   6    2.68    0.32
  -6   1   6    3.79    0.36
   6   1  -6    4.48    0.30
   6   1  -6    4.45    0.34
  -5  -1   6    3.04    0.31
   5  -1  -6    3.14    0.28
   5  -1  -6    3.19    0.22
   5  -1  -6    3.04    0.24
   5   1  -6    3.66    0.29
   5   1  -6    3.32    0.24
  -5   1   6    2.89    0.30
  -5   1   6    2.33    0.28
  -4  -1   6    5.58    0.35
   4  -1  -6    6.31    0.33
   4  -1  -6    6.09    0.35
   4  -1  -6    5.70    0.31
  -4  -1   6    6.18    0.41
   4   1  -6    6.03    0.36
   4   1  -6    6.06    0.30
   4   1  -6    6.03    0.33
  -4   1   6    6.33    0.41
  -4   1   6    5.75    0.37
   3  -1  -6   11.65    0.49
   3  -1  -6   12.07    0.49
  -3  -1   6   11.53    0.46
  -3  -1   6   11.19    0.56
   3  -1  -6   11.03    0.50
   3   1  -6   10.60    0.47
  -3   1   6   11.82    0.57
   3   1  -6   11.26    0.48
   3   1  -6   11.40    0.51
  -2  -1   6    1.20    0.16
  -2  -1   6    1.00    0.15
  -2  -1   6    1.18    0.22
   2  -1  -6    0.90    0.13
   2  -1  -6    1.25    0.16
   2   1  -6    1.06    0.16
  -2   1   6    1.21    0.15
  -2   1   6    0.99    0.14
  -2   1   6    0.93    0.19
   2   1  -6    1.21    0.16
  -2   1   6    1.21    0.16
  -1  -1   6   10.64    0.56
   1  -1  -6   11.05    0.50
  -1  -1   6   11.57    0.51
   1  -1  -6   10.97    0.45
  -1  -1   6   11.20    0.49
   1   1  -6   11.22    0.50
   1   1  -6   10.83    0.47
  -1   1   6   11.34    0.48
  -1   1   6   10.93    0.56
  -1   1   6   11.79    0.50
   0  -1   6    1.10    0.17
   0  -1  -6    0.89    0.16
   0  -1   6    1.24    0.22
   0  -1   6    1.04    0.19
   0   1   6    0.59    0.13
   0   1   6    1.14    0.20
   0   1  -6    1.21    0.18
   0   1  -6    0.95    0.13
   0   1   6    0.89    0.17
   1  -1   6    2.97    0.28
  -1  -1  -6    2.75    0.25
   1  -1   6    2.43    0.21
   1  -1   6    2.62    0.28
  -1   1  -6    2.37    0.23
   1   1   6    2.91    0.28
   1   1   6    2.83    0.23
   1   1   6    2.29    0.28
   2  -1   6    5.17    0.41
  -2  -1  -6    4.77    0.34
   2  -1   6    5.10    0.31
   2  -1   6    4.94    0.39
   2   1   6    5.28    0.42
   2   1   6    5.04    0.39
   2   1   6    5.20    0.31
  -2   1  -6    5.21    0.36
   3  -1   6    1.64    0.29
  -3  -1  -6    1.45    0.26
   3  -1   6    1.87    0.20
   3  -1   6    1.62    0.28
  -3  -1  -6    1.52    0.23
   3   1   6    1.93    0.30
  -3   1  -6    1.45    0.23
   3   1   6    1.26    0.18
  -4  -1  -6    3.05    0.36
   4  -1   6    3.43    0.41
   4   1   6    3.75    0.28
  -4   1  -6    3.35    0.33
   4   1   6    3.62    0.42
  -4   1  -6    3.40    0.37
   8  -2  -6    2.81    0.33
  -8  -2   6    2.14    0.38
   8  -2  -6    3.04    0.28
   8   2  -6    2.50    0.37
   8   2  -6    2.46    0.31
  -8   2   6    2.42    0.37
  -8   2   6    2.81    0.38
   8   2  -6    2.92    0.28
  -7  -2   6    2.27    0.35
   7  -2  -6    2.65    0.29
   7  -2  -6    2.62    0.25
  -7   2   6    2.62    0.35
   7   2  -6    3.04    0.26
   7   2  -6    2.23    0.31
   7   2  -6    2.30    0.29
   6  -2  -6    0.80    0.18
   6  -2  -6    0.96    0.16
  -6  -2   6    0.89    0.23
  -6  -2   6    0.76    0.21
   6   2  -6    0.82    0.15
  -6   2   6    0.78    0.20
   6   2  -6    0.70    0.18
   6   2  -6    0.67    0.15
  -6   2   6    0.63    0.18
  -5  -2   6    2.77    0.29
   5  -2  -6    3.77    0.26
   5  -2  -6    3.50    0.23
   5  -2  -6    3.29    0.28
  -5  -2   6    3.07    0.32
  -5   2   6    3.57    0.33
   5   2  -6    3.45    0.25
   5   2  -6    3.63    0.29
  -5   2   6    2.82    0.30
   4  -2  -6    1.09    0.17
  -4  -2   6    1.19    0.20
   4  -2  -6    1.29    0.16
  -4  -2   6    1.12    0.18
   4  -2  -6    1.40    0.17
   4   2  -6    1.54    0.17
  -4   2   6    1.55    0.22
  -4   2   6    0.66    0.15
   4   2  -6    0.89    0.16
   4   2  -6    1.09    0.13
   3  -2  -6    7.04    0.36
   3  -2  -6    7.66    0.37
  -3  -2   6    7.14    0.35
  -3  -2   6    7.71    0.47
   3  -2  -6    7.64    0.38
  -3  -2   6    6.99    0.42
  -3   2   6    7.02    0.42
  -3   2   6    7.78    0.40
   3   2  -6    7.67    0.37
   3   2  -6    7.45    0.39
   3   2  -6    6.96    0.35
   2  -2  -6    5.67    0.30
  -2  -2   6    5.87    0.31
  -2  -2   6    5.27    0.31
  -2  -2   6    5.92    0.39
   2  -2  -6    5.22    0.30
  -2   2   6    5.69    0.31
   2   2  -6    4.95    0.30
   2   2  -6    5.85    0.32
  -2   2   6    5.49    0.37
  -2   2   6    5.53    0.29
   1  -2  -6    1.90    0.15
  -1  -2   6    1.31    0.20
  -1  -2   6    1.68    0.18
  -1  -2   6    1.48    0.18
   1  -2  -6    1.45    0.17
   1   2  -6    1.28    0.17
  -1   2   6    1.60    0.17
   1   2  -6    1.50    0.16
  -1   2   6    1.50    0.17
  -1   2   6    1.33    0.21
   0  -2  -6    4.07    0.28
   0  -2   6    4.38    0.34
   0  -2   6    4.63    0.28
   0  -2   6    4.29    0.32
   0   2  -6    4.57    0.26
   0   2   6    4.40    0.34
   0   2   6    4.33    0.28
   0   2   6    4.29    0.31
   0   2  -6    4.01    0.29
   1  -2   6    0.09    0.12
   1  -2   6    0.04    0.11
   1  -2   6    0.08    0.08
  -1  -2  -6    0.08    0.11
   1   2   6   -0.07    0.07
   1   2   6    0.12    0.12
  -1   2  -6    0.04    0.10
   1   2   6    0.18    0.12
  -2  -2  -6    6.48    0.40
   2  -2   6    6.19    0.44
   2  -2   6    6.18    0.45
  -2  -2  -6    7.20    0.45
   2  -2   6    6.72    0.35
   2   2   6    6.24    0.47
  -2   2  -6    6.32    0.40
   3  -2   6    0.08    0.13
   3  -2   6    0.02    0.08
   3  -2   6    0.08    0.14
  -3  -2  -6   -0.17    0.10
  -3  -2  -6   -0.01    0.13
   3   2   6    0.12    0.14
   3   2   6   -0.13    0.07
  -3   2  -6    0.09    0.12
  -4  -2  -6    3.70    0.35
   4  -2   6    4.26    0.43
  -4  -2  -6    3.93    0.40
   4  -2   6    3.63    0.41
   4  -2   6    4.45    0.29
   4   2   6    4.10    0.30
   4   2   6    4.40    0.46
  -4   2  -6    3.88    0.39
  -4   2  -6    4.43    0.36
   8  -3  -6    4.61    0.40
   8  -3  -6    4.80    0.33
  -8  -3   6    3.64    0.41
  -8   3   6    4.29    0.45
   8   3  -6    3.98    0.38
   8   3  -6    4.52    0.34
  -8   3   6    4.74    0.46
   8   3  -6    4.96    0.46
   7  -3  -6    1.09    0.23
   7  -3  -6    1.01    0.17
  -7  -3   6    0.90    0.26
   7   3  -6    0.73    0.21
   7   3  -6    1.22    0.22
  -7   3   6    0.85    0.23
  -7   3   6    0.84    0.23
   7   3  -6    0.88    0.17
  -6  -3   6    6.38    0.48
   6  -3  -6    6.58    0.37
   6  -3  -6    6.64    0.43
  -6   3   6    4.86    0.42
   6   3  -6    6.47    0.42
   6   3  -6    6.45    0.43
  -6   3   6    6.35    0.44
   6   3  -6    7.08    0.38
   5  -3  -6    1.26    0.18
  -5  -3   6    0.99    0.21
   5  -3  -6    1.09    0.18
   5  -3  -6    1.07    0.15
   5   3  -6    1.11    0.17
  -5   3   6    0.74    0.18
   5   3  -6    0.95    0.18
   5   3  -6    1.06    0.18
  -5   3   6    1.04    0.20
   4  -3  -6   11.23    0.51
  -4  -3   6   10.46    0.45
   4  -3  -6   10.61    0.47
   4  -3  -6   10.41    0.48
  -4  -3   6   10.55    0.56
   4   3  -6   10.58    0.52
   4   3  -6   10.90    0.44
  -4   3   6   10.79    0.56
  -4   3   6   11.50    0.56
   4   3  -6   10.53    0.47
  -3  -3   6    0.35    0.10
   3  -3  -6    0.38    0.10
  -3  -3   6    0.23    0.11
   3  -3  -6    0.14    0.09
  -3  -3   6    0.35    0.15
   3  -3  -6    0.31    0.10
  -3   3   6    0.23    0.11
   3   3  -6    0.52    0.11
  -3   3   6    0.29    0.14
   3   3  -6    0.26    0.10
  -2  -3   6   22.13    0.89
   2  -3  -6   21.08    0.78
  -2  -3   6   22.45    0.81
  -2  -3   6   21.38    0.81
   2  -3  -6   22.11    0.82
  -2   3   6   21.88    0.89
  -2   3   6   21.68    0.77
  -2   3   6   21.80    0.80
  -2   3   6   21.02    0.82
   2   3  -6   20.77    0.80
   2   3  -6   22.65    0.83
  -1  -3   6   -0.07    0.06
   1  -3  -6   -0.06    0.07
  -1  -3   6    0.04    0.09
   1  -3  -6   -0.03    0.05
  -1  -3   6   -0.15    0.08
  -1   3   6    0.05    0.09
   1   3  -6   -0.04    0.07
   1   3  -6   -0.10    0.06
  -1   3   6    0.04    0.07
  -1   3   6   -0.07    0.07
  -1   3   6    0.02    0.08
   0  -3  -6   15.43    0.65
   0  -3   6   15.24    0.62
   0  -3   6   16.21    0.69
   0  -3   6   15.48    0.71
   0   3   6   14.95    0.62
   0   3  -6   15.29    0.61
   0   3   6   15.35    0.72
   0   3   6   15.26    0.65
   0   3  -6   15.00    0.64
  -1  -3  -6    0.78    0.15
   1  -3   6    0.79    0.14
   1  -3   6    0.58    0.16
   1  -3   6    0.80    0.19
  -1  -3  -6    0.79    0.17
   1   3   6    0.60    0.17
  -1   3  -6    0.64    0.15
   2  -3   6    2.75    0.22
  -2  -3  -6    2.64    0.29
   2  -3   6    2.33    0.29
  -2  -3  -6    2.95    0.28
   2  -3   6    2.75    0.29
  -2   3  -6    2.86    0.27
   2   3   6    2.73    0.23
   2   3   6    2.22    0.29
   3  -3   6    0.56    0.19
   3  -3   6    0.52    0.12
  -3  -3  -6    0.41    0.15
  -3  -3  -6    0.47    0.18
   3  -3   6    0.44    0.17
   3   3   6    0.31    0.13
  -3   3  -6    0.71    0.17
   3   3   6    0.51    0.21
  -4  -3  -6    0.07    0.13
  -4  -3  -6    0.29    0.17
   4  -3   6   -0.02    0.08
   4  -3   6    0.03    0.16
   4  -3   6    0.12    0.16
   4   3   6   -0.03    0.15
   4   3   6    0.06    0.10
  -4   3  -6    0.04    0.14
  -8  -4   6    0.12    0.20
   8  -4  -6    0.21    0.16
   8  -4  -6   -0.08    0.09
   8   4  -6   -0.08    0.10
  -8   4   6   -0.03    0.18
  -8   4   6   -0.04    0.16
   8   4  -6    0.04    0.13
   8   4  -6    0.00    0.16
   7  -4  -6    0.11    0.11
  -7  -4   6    0.02    0.17
   7  -4  -6    0.10    0.13
  -7   4   6    0.06    0.15
   7   4  -6   -0.09    0.10
  -7   4   6    0.22    0.15
   7   4  -6   -0.15    0.11
   7   4  -6   -0.12    0.09
  -6  -4   6    0.11    0.16
   6  -4  -6    0.28    0.13
   6  -4  -6    0.15    0.10
  -6   4   6    0.11    0.13
   6   4  -6    0.00    0.10
   6   4  -6   -0.11    0.10
   6   4  -6    0.30    0.14
  -6   4   6    0.00    0.12
   5  -4  -6    0.58    0.16
   5  -4  -6    0.55    0.13
   5  -4  -6    0.41    0.11
  -5  -4   6    0.70    0.20
  -5   4   6    0.13    0.11
  -5   4   6    0.74    0.19
   5   4  -6    0.70    0.14
   5   4  -6    0.51    0.14
   5   4  -6    0.37    0.14
   4  -4  -6    0.77    0.14
   4  -4  -6    0.92    0.15
   4  -4  -6    0.97    0.17
  -4  -4   6    0.73    0.17
  -4  -4   6    1.05    0.14
  -4   4   6    0.92    0.20
   4   4  -6    0.81    0.12
   4   4  -6    0.93    0.15
  -4   4   6    0.74    0.17
   4   4  -6    0.89    0.14
   4   4  -6    0.73    0.16
  -3  -4   6    4.36    0.27
  -3  -4   6    4.05    0.32
   3  -4  -6    3.80    0.27
   3  -4  -6    4.29    0.27
  -3  -4   6    4.19    0.30
   3  -4  -6    4.10    0.27
   3   4  -6    4.06    0.29
  -3   4   6    3.79    0.30
   3   4  -6    4.41    0.25
  -3   4   6    4.41    0.33
   2  -4  -6    5.72    0.32
  -2  -4   6    5.35    0.32
   2  -4  -6    5.37    0.28
  -2  -4   6    5.61    0.31
  -2  -4   6    5.12    0.36
  -2   4   6    5.49    0.37
   2   4  -6    5.92    0.33
   2   4  -6    4.21    0.28
  -2   4   6    5.41    0.33
  -1  -4   6    1.92    0.24
  -1  -4   6    1.96    0.19
   1  -4  -6    1.58    0.17
   1  -4  -6    1.72    0.19
  -1  -4   6    2.11    0.22
   1   4  -6    1.93    0.20
  -1   4   6    1.36    0.22
  -1   4   6    1.68    0.19
   1   4  -6    2.00    0.20
   0  -4   6    8.22    0.48
   0  -4   6    8.79    0.47
   0  -4  -6    8.49    0.44
   0  -4   6    8.61    0.41
   0  -4  -6    9.05    0.44
   0   4   6    8.91    0.51
   0   4  -6    7.61    0.42
   0   4  -6    8.65    0.41
   0   4   6    9.08    0.42
   1  -4   6   -0.04    0.11
   1  -4   6    0.06    0.11
  -1  -4  -6   -0.01    0.10
   1  -4   6    0.00    0.08
  -1  -4  -6   -0.09    0.07
   1   4   6    0.03    0.08
   1   4   6    0.03    0.12
  -1   4  -6    0.10    0.10
  -2  -4  -6    0.94    0.18
   2  -4   6    0.74    0.20
   2  -4   6    0.44    0.17
  -2  -4  -6    0.70    0.18
   2  -4   6    0.66    0.13
  -2   4  -6    0.67    0.16
   2   4   6    0.74    0.15
   2   4   6    0.28    0.15
   3  -4   6    0.48    0.12
   3  -4   6    0.21    0.16
  -3  -4  -6    0.39    0.15
   3  -4   6    0.21    0.16
  -3  -4  -6    0.47    0.16
  -3   4  -6    0.39    0.14
   3   4   6    0.19    0.17
   3   4   6    0.56    0.13
   4  -4   6    1.65    0.19
   4  -4   6    2.27    0.33
  -4  -4  -6    1.49    0.28
  -4  -4  -6    1.62    0.25
   4  -4   6    1.76    0.33
  -4   4  -6    1.96    0.27
   4   4   6    2.00    0.22
   4   4   6    2.19    0.36
  -8  -5   6   -0.13    0.19
   8  -5  -6    0.02    0.09
   8  -5  -6   -0.26    0.09
   8   5  -6   -0.10    0.09
   8   5  -6    0.10    0.17
  -8   5   6    0.10    0.17
   8   5  -6   -0.03    0.12
  -8   5   6    0.00    0.18
   7  -5  -6    2.35    0.30
   7  -5  -6    2.17    0.23
  -7  -5   6    2.81    0.37
  -7   5   6    1.84    0.30
   7   5  -6    1.71    0.25
   7   5  -6    2.73    0.26
  -7   5   6    1.95    0.33
   7   5  -6    2.33    0.32
   6  -5  -6   -0.06    0.08
   6  -5  -6    0.09    0.12
  -6  -5   6   -0.04    0.14
   6   5  -6   -0.07    0.11
   6   5  -6    0.12    0.12
  -6   5   6    0.06    0.14
  -6   5   6   -0.10    0.13
   6   5  -6    0.02    0.10
  -5  -5   6    1.73    0.27
   5  -5  -6    2.43    0.25
   5  -5  -6    2.03    0.21
   5  -5  -6    2.40    0.22
   5   5  -6    2.04    0.24
   5   5  -6    2.27    0.24
  -5   5   6    1.78    0.26
  -5   5   6    1.14    0.23
   5   5  -6    2.02    0.21
  -4  -5   6    0.18    0.09
   4  -5  -6    0.25    0.10
   4  -5  -6    0.21    0.11
  -4  -5   6    0.01    0.13
   4  -5  -6    0.16    0.09
  -4   5   6    0.23    0.13
   4   5  -6   -0.03    0.12
  -4   5   6   -0.10    0.10
   4   5  -6    0.18    0.10
   3  -5  -6    6.66    0.36
   3  -5  -6    6.52    0.35
  -3  -5   6    6.27    0.35
  -3  -5   6    6.22    0.40
   3  -5  -6    6.27    0.34
   3   5  -6    6.16    0.37
   3   5  -6    6.05    0.32
  -3   5   6    6.31    0.41
  -3   5   6    6.62    0.40
  -2  -5   6    0.33    0.13
   2  -5  -6    0.11    0.07
   2  -5  -6    0.00    0.07
  -2  -5   6    0.20    0.10
  -2  -5   6    0.04    0.09
   2   5  -6    0.27    0.11
  -2   5   6    0.20    0.11
  -2   5   6    0.16    0.12
   2   5  -6    0.10    0.09
  -1  -5   6   14.31    0.59
   1  -5  -6   13.03    0.59
   1  -5  -6   13.74    0.58
  -1  -5   6   15.21    0.64
  -1  -5   6   14.27    0.65
   1   5  -6   14.40    0.60
  -1   5   6   13.73    0.61
  -1   5   6   14.33    0.67
  -1   5   6   14.17    0.58
   1   5  -6   14.35    0.60
   0  -5   6    3.95    0.31
   0  -5  -6    3.22    0.26
   0  -5   6    3.43    0.30
   0  -5  -6    3.17    0.25
   0  -5   6    3.27    0.25
   0   5   6    3.66    0.33
   0   5   6    3.63    0.25
   0   5  -6    3.08    0.25
   0   5   6    3.34    0.26
   0   5  -6    3.26    0.25
  -1  -5  -6    8.27    0.43
   1  -5   6    8.61    0.41
  -1  -5  -6    7.80    0.46
   1  -5   6    8.31    0.49
   1  -5   6    8.37    0.48
  -1   5  -6    8.33    0.44
   1   5   6    8.99    0.43
  -1   5  -6    8.01    0.41
   1   5   6    8.19    0.51
   2  -5   6    0.55    0.18
   2  -5   6    0.25    0.15
   2  -5   6    0.45    0.11
  -2  -5  -6    0.21    0.12
  -2  -5  -6    0.26    0.14
   2   5   6    0.29    0.12
  -2   5  -6    0.28    0.14
   2   5   6    0.29    0.16
   3  -5   6    8.75    0.56
   3  -5   6    8.95    0.56
  -3  -5  -6    8.33    0.46
   3  -5   6    8.74    0.42
  -3  -5  -6    9.26    0.56
  -3   5  -6    7.84    0.48
   3   5   6    8.64    0.45
   3   5   6    8.44    0.59
   4  -5   6    0.23    0.17
  -4  -5  -6    0.05    0.16
   4  -5   6    0.10    0.08
  -4   5  -6    0.14    0.15
   4   5   6    0.14    0.11
   4   5   6   -0.15    0.15
   8  -6  -6    0.08    0.15
  -8  -6   6    0.29    0.22
   8  -6  -6   -0.04    0.10
  -8   6   6    0.03    0.18
   8   6  -6   -0.10    0.10
   8   6  -6    0.05    0.12
  -8   6   6    0.22    0.20
   8   6  -6    0.09    0.16
   7  -6  -6    0.33    0.13
   7  -6  -6    0.02    0.13
  -7  -6   6    0.04    0.17
   7   6  -6   -0.03    0.10
   7   6  -6    0.35    0.13
   7   6  -6    0.01    0.15
  -7   6   6    0.12    0.16
  -7   6   6    0.34    0.19
  -6  -6   6    8.79    0.57
   6  -6  -6    9.06    0.45
   6  -6  -6    8.75    0.51
   6  -6  -6    9.03    0.46
   6   6  -6    9.19    0.53
   6   6  -6    8.31    0.50
  -6   6   6    8.92    0.52
  -6   6   6    8.55    0.57
   6   6  -6    7.77    0.45
  -5  -6   6    1.91    0.28
   5  -6  -6    2.03    0.24
   5  -6  -6    2.18    0.22
   5  -6  -6    1.93    0.21
  -5   6   6    1.27    0.24
  -5   6   6    2.37    0.28
   5   6  -6    1.89    0.21
   5   6  -6    2.08    0.24
   5   6  -6    1.93    0.24
   4  -6  -6   86.58    2.75
  -4  -6   6   84.24    2.74
  -4  -6   6   83.83    2.84
   4  -6  -6   86.68    2.78
   4  -6  -6   88.38    2.76
  -4   6   6   88.15    2.83
   4   6  -6   84.54    2.80
  -4   6   6   84.78    2.84
   3  -6  -6   16.30    0.65
  -3  -6   6   15.54    0.71
   3  -6  -6   15.39    0.63
   3  -6  -6   16.29    0.64
  -3  -6   6   15.21    0.65
  -3   6   6   16.17    0.71
   3   6  -6   14.55    0.60
  -3   6   6   16.17    0.71
   3   6  -6   15.86    0.68
  -2  -6   6   37.41    1.28
  -2  -6   6   36.33    1.30
   2  -6  -6   37.83    1.25
   2  -6  -6   35.61    1.29
  -2  -6   6   37.56    1.35
   2   6  -6   38.70    1.27
  -2   6   6   35.44    1.33
  -2   6   6   37.32    1.35
   2   6  -6   35.47    1.30
   1  -6  -6   14.86    0.66
  -1  -6   6   17.18    0.67
  -1  -6   6   16.22    0.72
  -1  -6   6   16.99    0.72
  -1   6   6   17.66    0.76
   1   6  -6   16.25    0.67
   1   6  -6   15.66    0.68
  -1   6   6   16.89    0.71
  -1   6   6   17.69    0.67
   0  -6   6    5.91    0.39
   0  -6   6    5.92    0.34
   0  -6   6    6.10    0.39
   0  -6  -6    5.65    0.34
   0  -6  -6    5.77    0.36
   0   6   6    6.02    0.36
   0   6   6    5.79    0.33
   0   6  -6    5.40    0.34
   0   6  -6    5.92    0.35
   0   6   6    6.04    0.42
  -1  -6  -6    0.07    0.09
   1  -6   6    0.12    0.09
  -1  -6  -6    0.15    0.11
   1  -6   6   -0.15    0.09
   1  -6   6   -0.02    0.11
  -1   6  -6    0.07    0.09
   1   6   6    0.08    0.10
  -1   6  -6    0.13    0.11
   1   6   6    0.02    0.10
  -2  -6  -6   20.70    0.82
   2  -6   6   20.62    0.78
   2  -6   6   21.03    0.91
  -2  -6  -6   17.30    0.86
   2  -6   6   19.74    0.90
   2   6   6   20.66    0.95
  -2   6  -6   20.93    0.86
   2   6   6   21.08    0.81
   3  -6   6    1.21    0.26
  -3  -6  -6    0.77    0.21
   3  -6   6    1.16    0.17
   3  -6   6    1.27    0.24
  -3  -6  -6    0.95    0.18
   3   6   6    1.37    0.30
   3   6   6    1.37    0.21
  -3   6  -6    0.95    0.20
   4  -6   6    8.21    0.41
  -4  -6  -6    7.85    0.56
   4  -6   6    8.44    0.58
   4   6   6    8.23    0.45
   4   6   6    8.00    0.63
  -4   6  -6    7.29    0.48
  -8   7   6    0.98    0.27
  -7  -7   6    0.35    0.22
   7  -7  -6    0.25    0.15
   7  -7  -6    0.08    0.10
  -7   7   6    0.17    0.19
   7   7  -6    0.15    0.13
   7   7  -6    0.34    0.17
  -7   7   6   -0.08    0.14
   7   7  -6    0.03    0.11
  -6  -7   6    6.88    0.50
   6  -7  -6    6.02    0.43
   6  -7  -6    6.17    0.37
   6  -7  -6    6.33    0.38
  -6   7   6    7.07    0.46
  -6   7   6    4.43    0.43
   6   7  -6    6.33    0.43
   6   7  -6    6.16    0.43
   6   7  -6    6.16    0.38
  -5  -7   6    0.58    0.19
  -5  -7   6    0.43    0.13
   5  -7  -6    0.70    0.14
   5  -7  -6    0.38    0.13
   5  -7  -6    0.60    0.16
   5   7  -6    0.64    0.17
   5   7  -6    0.53    0.14
  -5   7   6    0.47    0.16
  -5   7   6    0.44    0.17
   4  -7  -6    9.01    0.44
   4  -7  -6    8.08    0.42
   4  -7  -6    9.20    0.45
  -4  -7   6    8.42    0.50
  -4  -7   6    8.03    0.42
  -4   7   6    7.99    0.50
  -4   7   6    8.29    0.47
   4   7  -6    7.89    0.46
   3  -7  -6    0.00    0.08
   3  -7  -6   -0.04    0.07
   3  -7  -6   -0.05    0.08
  -3  -7   6   -0.17    0.11
  -3  -7   6    0.04    0.09
  -3   7   6    0.01    0.11
   3   7  -6    0.08    0.09
  -3   7   6   -0.02    0.09
   3   7  -6    0.10    0.08
  -2  -7   6    6.99    0.37
   2  -7  -6    6.44    0.37
   2  -7  -6    6.61    0.33
  -2  -7   6    6.83    0.42
  -2  -7   6    6.36    0.38
  -2   7   6    7.45    0.43
  -2   7   6    6.92    0.42
   2   7  -6    6.60    0.39
   2   7  -6    6.25    0.35
  -1  -7   6    0.02    0.09
   1  -7  -6    0.04    0.08
  -1  -7   6    0.05    0.10
  -1  -7   6    0.08    0.09
   1  -7  -6    0.11    0.10
  -1   7   6    0.02    0.08
   1   7  -6    0.20    0.11
   1   7  -6    0.13    0.09
  -1   7   6   -0.01    0.11
  -1   7   6    0.05    0.10
   0  -7   6    5.06    0.36
   0  -7  -6    3.87    0.30
   0  -7  -6    4.66    0.31
   0  -7   6    5.22    0.35
   0  -7   6    5.05    0.31
   0   7   6    4.74    0.30
   0   7   6    5.63    0.40
   0   7   6    4.73    0.34
   0   7  -6    4.81    0.32
   0   7  -6    4.88    0.32
   1  -7   6    4.21    0.36
   1  -7   6    4.15    0.28
   1  -7   6    4.09    0.34
  -1  -7  -6    4.44    0.31
   1   7   6    5.26    0.41
   1   7   6    4.29    0.30
  -1   7  -6    4.30    0.32
  -1   7  -6    4.63    0.31
   1   7   6    5.12    0.51
   2  -7   6    0.02    0.12
  -2  -7  -6   -0.12    0.09
  -2  -7  -6   -0.02    0.10
   2  -7   6    0.05    0.09
   2  -7   6    0.14    0.14
   2   7   6   -0.04    0.12
  -2   7  -6    0.16    0.13
   2   7   6   -0.01    0.10
  -3  -7  -6    0.16    0.13
   3  -7   6   -0.03    0.12
   3  -7   6    0.06    0.08
  -3  -7  -6   -0.10    0.10
  -3   7  -6   -0.17    0.11
   3   7   6   -0.08    0.15
   3   7   6   -0.08    0.09
  -7  -8   6   10.36    0.64
   7  -8  -6    9.60    0.49
   7  -8  -6    9.88    0.59
   7   8  -6    9.03    0.55
   7   8  -6    9.61    0.60
  -7   8   6    6.80    0.57
   7   8  -6   10.01    0.52
  -6  -8   6    0.51    0.21
   6  -8  -6    0.36    0.13
   6  -8  -6    0.57    0.15
   6  -8  -6    0.40    0.16
   6   8  -6    0.55    0.18
  -6   8   6    0.19    0.17
   6   8  -6    0.31    0.14
  -6   8   6    0.18    0.14
   5  -8  -6   11.92    0.54
  -5  -8   6   11.76    0.63
   5  -8  -6   11.41    0.55
  -5  -8   6   11.42    0.55
   5  -8  -6   12.07    0.59
  -5   8   6   10.36    0.63
  -5   8   6   11.67    0.59
   5   8  -6   11.10    0.58
   4  -8  -6    7.50    0.42
   4  -8  -6    7.12    0.39
  -4  -8   6    7.40    0.42
   4  -8  -6    8.05    0.42
  -4  -8   6    7.34    0.46
  -4   8   6    7.67    0.45
  -4   8   6    7.86    0.49
   4   8  -6    7.30    0.44
   3  -8  -6    0.85    0.15
  -3  -8   6    0.54    0.15
   3  -8  -6    0.38    0.13
   3  -8  -6    0.88    0.16
  -3  -8   6    0.62    0.17
   3   8  -6    0.77    0.16
  -3   8   6    0.68    0.18
   3   8  -6    0.65    0.12
  -3   8   6    0.75    0.17
  -2  -8   6    0.07    0.10
  -2  -8   6    0.12    0.12
  -2  -8   6    0.24    0.11
   2  -8  -6    0.27    0.12
  -2   8   6    0.08    0.12
  -2   8   6    0.24    0.13
   2   8  -6    0.12    0.09
   2   8  -6    0.05    0.10
  -1  -8   6    0.07    0.11
  -1  -8   6    0.02    0.10
   1  -8  -6    0.11    0.11
  -1  -8   6    0.01    0.09
   1  -8  -6    0.16    0.09
   1   8  -6    0.10    0.10
   1   8  -6    0.00    0.09
  -1   8   6    0.05    0.12
  -1   8   6    0.01    0.12
   0  -8   6    1.06    0.21
   0  -8  -6    0.78    0.17
   0  -8  -6    0.74    0.16
   0  -8   6    0.62    0.14
   0  -8   6    0.70    0.16
   0   8  -6    0.60    0.15
   0   8   6    0.72    0.15
   0   8   6    0.56    0.16
   0   8   6    0.47    0.16
   0   8  -6    0.56    0.14
   1  -8   6    3.78    0.31
  -1  -8  -6    3.67    0.32
   1  -8   6    3.73    0.27
   1  -8   6    3.54    0.34
  -1  -8  -6    3.91    0.30
  -1   8  -6    3.97    0.30
   1   8   6    4.35    0.34
  -1   8  -6    3.42    0.29
   1   8   6    3.87    0.29
   1   8   6    3.74    0.37
  -2  -8  -6    1.43    0.22
   2  -8   6    1.75    0.20
  -2  -8  -6    1.67    0.26
   2  -8   6    1.67    0.27
  -2   8  -6    1.29    0.21
   2   8   6    1.60    0.30
   2   8   6    1.38    0.22
  -3  -8  -6    0.53    0.21
   3  -8   6    0.43    0.18
  -3  -8  -6    0.38    0.13
   3  -8   6    0.37    0.12
  -3   8  -6    0.48    0.16
   3   8   6    0.19    0.17
   3   8   6    0.46    0.15
  -7  -9   6    0.36    0.22
   7  -9  -6    0.08    0.11
   7  -9  -6    0.25    0.17
   7   9  -6    0.36    0.18
  -7   9   6    0.39    0.22
   7   9  -6    0.26    0.15
   6  -9  -6    6.61    0.40
  -6  -9   6    5.93    0.48
   6  -9  -6    5.89    0.43
   6  -9  -6    5.53    0.37
  -6   9   6    5.90    0.49
   6   9  -6    6.22    0.63
   6   9  -6    6.10    0.42
   5  -9  -6    0.99    0.17
   5  -9  -6    1.18    0.22
  -5  -9   6    0.71    0.17
   5  -9  -6    0.79    0.16
  -5  -9   6    1.17    0.23
  -5   9   6    0.88    0.23
  -5   9   6    1.25    0.24
   5   9  -6    0.62    0.16
  -4  -9   6   12.11    0.57
   4  -9  -6   11.43    0.54
   4  -9  -6   12.08    0.56
  -4  -9   6   12.26    0.61
   4  -9  -6   11.49    0.56
  -4   9   6   11.49    0.63
  -4   9   6   10.72    0.57
   4   9  -6   10.86    0.57
   3  -9  -6    2.70    0.23
   3  -9  -6    2.72    0.24
  -3  -9   6    2.58    0.26
  -3  -9   6    2.75    0.28
   3  -9  -6    2.76    0.25
  -3   9   6    2.72    0.27
  -3   9   6    2.89    0.31
   3   9  -6    2.98    0.28
   2  -9  -6    2.95    0.25
  -2  -9   6    3.28    0.28
  -2  -9   6    2.82    0.27
  -2  -9   6    3.01    0.25
  -2   9   6    2.89    0.30
   2   9  -6    2.56    0.22
   2   9  -6    2.76    0.27
  -2   9   6    2.68    0.28
  -1  -9   6    3.92    0.32
   1  -9  -6    4.17    0.31
  -1  -9   6    4.78    0.30
  -1  -9   6    4.05    0.31
   1   9  -6    3.39    0.27
  -1   9   6    4.12    0.34
   1   9  -6    4.27    0.32
  -1   9   6    3.99    0.34
   0  -9   6    0.74    0.15
   0  -9  -6    0.64    0.16
   0  -9   6    0.61    0.16
   0  -9  -6    0.63    0.16
   0  -9   6    0.62    0.16
   0   9  -6    0.83    0.16
   0   9   6    0.94    0.20
   0   9   6    0.92    0.21
   0   9   6    0.62    0.14
   0   9  -6    0.86    0.17
   1  -9   6    2.95    0.32
  -1  -9  -6    2.36    0.25
   1  -9   6    2.80    0.24
  -1  -9  -6    2.38    0.28
  -1   9  -6    2.41    0.27
   1   9   6    2.85    0.33
  -1   9  -6    2.88    0.27
   1   9   6    2.61    0.29
   1   9   6    3.09    0.27
   2  -9   6    1.91    0.29
   2  -9   6    1.58    0.20
  -2  -9  -6    1.42    0.27
  -2  -9  -6    2.11    0.24
  -2   9  -6    1.99    0.25
   2   9   6    1.83    0.24
   2   9   6    1.98    0.31
  -2   9  -6    1.77    0.25
  -3  -9  -6    0.17    0.13
  -3  -9  -6    0.19    0.17
   3  -9   6    0.02    0.13
   3  -9   6    0.16    0.11
   3   9   6    0.13    0.12
  -3   9  -6    0.03    0.13
   3   9   6    0.25    0.19
   7 -10  -6    1.84    0.23
   7 -10  -6    1.60    0.28
  -7 -10   6    0.86    0.25
   7  10  -6    1.70    0.27
  -7  10   6    1.30    0.30
   7  10  -6    1.64    0.32
   6 -10  -6    0.53    0.15
   6 -10  -6    0.20    0.14
   6 -10  -6    0.50    0.18
  -6 -10   6    0.46    0.20
   6  10  -6    0.33    0.15
  -6  10   6    0.51    0.20
   5 -10  -6    0.97    0.20
   5 -10  -6    0.92    0.17
   5 -10  -6    0.77    0.16
  -5 -10   6    0.86    0.21
  -5 -10   6    0.93    0.19
   5  10  -6    0.56    0.15
  -5  10   6    0.71    0.22
   4 -10  -6    2.54    0.26
  -4 -10   6    2.71    0.27
  -4 -10   6    2.88    0.30
   4 -10  -6    2.34    0.24
   4 -10  -6    2.83    0.26
  -4  10   6    2.38    0.30
   4  10  -6    2.73    0.27
  -4  10   6    2.19    0.26
  -3 -10   6    0.29    0.14
  -3 -10   6    0.39    0.15
   3 -10  -6    0.48    0.14
   3 -10  -6    0.18    0.10
  -3  10   6    0.24    0.13
  -3  10   6    0.41    0.17
   3  10  -6    0.05    0.11
  -2 -10   6    4.45    0.31
   2 -10  -6    3.80    0.30
  -2 -10   6    4.02    0.33
  -2 -10   6    3.95    0.32
  -2  10   6    4.50    0.37
   2  10  -6    4.05    0.28
  -2  10   6    4.09    0.34
   2  10  -6    3.67    0.32
  -1 -10   6    1.16    0.21
   1 -10  -6    1.27    0.20
  -1 -10   6    1.32    0.23
  -1 -10   6    1.14    0.19
  -1  10   6    1.16    0.23
   1  10  -6    1.09    0.20
  -1  10   6    1.22    0.23
   1  10  -6    1.26    0.19
   0 -10   6    6.76    0.43
   0 -10  -6    5.87    0.38
   0 -10   6    6.31    0.37
   0 -10  -6    4.81    0.36
   0  10   6    6.08    0.43
   0  10   6    6.51    0.44
   0  10  -6    5.66    0.38
   0  10  -6    5.37    0.36
  -1 -10  -6    2.04    0.25
   1 -10   6    2.26    0.23
   1 -10   6    2.23    0.29
  -1 -10  -6    1.98    0.27
   1  10   6    2.39    0.25
  -1  10  -6    2.09    0.26
   1  10   6    2.27    0.29
   1  10   6    2.35    0.31
  -1  10  -6    2.41    0.25
  -2 -10  -6    5.52    0.44
   2 -10   6    6.15    0.36
   2 -10   6    6.86    0.49
  -2 -10  -6    5.95    0.39
  -2  10  -6    6.24    0.41
   2  10   6    5.32    0.47
   2  10   6    5.99    0.39
  -2  10  -6    5.83    0.40
  -3 -10  -6    0.03    0.14
   3 -10   6    0.28    0.17
   3 -10   6    0.05    0.09
   3  10   6    0.09    0.13
   3  10   6   -0.09    0.17
  -3  10  -6   -0.16    0.10
  -7 -11   6    0.27    0.22
   7 -11  -6    0.37    0.19
   7 -11  -6    0.16    0.12
  -7  11   6    0.28    0.21
   7  11  -6    0.26    0.16
   6 -11  -6    0.33    0.17
   6 -11  -6    0.11    0.11
  -6 -11   6   -0.08    0.14
   6 -11  -6    0.00    0.11
  -6  11   6   -0.02    0.17
   6  11  -6    0.25    0.15
   5 -11  -6    4.85    0.33
   5 -11  -6    4.63    0.35
  -5 -11   6    4.57    0.37
  -5 -11   6    3.44    0.36
   5 -11  -6    4.70    0.37
  -5  11   6    3.16    0.37
   5  11  -6    4.85    0.37
   4 -11  -6    0.35    0.12
  -4 -11   6    0.56    0.18
   4 -11  -6    0.38    0.14
   4 -11  -6    0.34    0.13
  -4 -11   6    0.47    0.16
   4  11  -6    0.46    0.17
  -4  11   6    0.50    0.19
   3 -11  -6    6.41    0.40
  -3 -11   6    6.07    0.40
  -3 -11   6    6.82    0.43
   3 -11  -6    6.38    0.40
  -3  11   6    6.81    0.41
   3  11  -6    6.56    0.43
  -3  11   6    6.45    0.47
   2 -11  -6    1.22    0.20
  -2 -11   6    0.77    0.18
  -2 -11   6    1.25    0.19
  -2  11   6    1.15    0.21
  -2  11   6    0.75    0.20
   2  11  -6    0.62    0.13
   2  11  -6    0.92    0.19
   1 -11  -6    5.07    0.35
  -1 -11   6    5.46    0.35
  -1 -11   6    4.89    0.39
  -1  11   6    5.93    0.40
   1  11  -6    4.16    0.31
  -1  11   6    5.21    0.41
   1  11  -6    5.72    0.39
   0 -11  -6    1.07    0.19
   0 -11   6    1.87    0.28
   0 -11   6    1.35    0.21
   0 -11  -6    1.16    0.21
   0  11  -6    1.31    0.21
   0  11   6    2.06    0.29
   0  11  -6    1.44    0.23
   0  11   6    1.20    0.24
  -1 -11  -6   14.29    0.67
   1 -11   6   14.72    0.74
  -1 -11  -6   15.34    0.72
   1 -11   6   14.69    0.65
  -1  11  -6   14.02    0.69
   1  11   6   16.20    0.78
   1  11   6   13.68    0.73
  -1  11  -6   14.70    0.68
  -2 -11  -6    0.14    0.12
   2 -11   6    0.01    0.13
   2 -11   6   -0.04    0.09
  -2 -11  -6   -0.13    0.13
   2  11   6    0.15    0.15
   2  11   6    0.15    0.15
  -2  11  -6    0.22    0.13
   2  11   6   -0.08    0.10
  -2  11  -6    0.07    0.13
   3 -11   6    6.32    0.51
   3 -11   6    6.13    0.39
  -3 -11  -6    6.33    0.50
  -3  11  -6    5.21    0.42
   3  11   6    6.09    0.54
   3  11   6    6.59    0.43
   6 -12  -6    3.87    0.34
  -6 -12   6    3.77    0.38
   6 -12  -6    3.96    0.32
   6 -12  -6    3.78    0.37
  -6  12   6    4.26    0.45
   6  12  -6    3.59    0.36
   5 -12  -6   20.88    0.87
  -5 -12   6   19.08    0.90
   5 -12  -6   20.23    0.84
  -5 -12   6   20.05    0.89
   5 -12  -6   20.99    0.90
  -5  12   6   19.98    0.98
   5  12  -6   19.97    0.90
   4 -12  -6    3.08    0.29
   4 -12  -6    3.04    0.29
  -4 -12   6    3.31    0.32
   4 -12  -6    3.28    0.30
  -4 -12   6    3.28    0.32
  -4  12   6    3.85    0.40
   4  12  -6    3.15    0.32
  -3 -12   6    0.30    0.14
   3 -12  -6    0.15    0.11
   3  12  -6    0.10    0.12
  -3  12   6    0.20    0.16
   2 -12  -6    8.75    0.49
  -2 -12   6    9.28    0.53
  -2 -12   6    8.97    0.47
  -2  12   6    9.07    0.56
   2  12  -6    9.24    0.52
   2  12  -6    8.11    0.43
  -2  12   6    8.45    0.49
  -1 -12   6    1.24    0.20
   1 -12  -6    1.10    0.20
  -1 -12   6    1.54    0.24
  -1  12   6    1.07    0.21
   1  12  -6    0.92    0.18
   1  12  -6    1.16    0.22
  -1  12   6    0.58    0.20
   0 -12  -6   10.52    0.53
   0 -12   6    9.62    0.51
   0 -12   6   10.30    0.60
   0  12  -6    9.03    0.53
   0  12   6   10.63    0.62
   0  12  -6    9.53    0.51
   0  12   6   10.43    0.59
  -1 -12  -6   17.35    0.72
   1 -12   6   17.12    0.70
  -1 -12  -6   12.33    0.71
   1 -12   6   16.69    0.81
  -1  12  -6   15.21    0.71
  -1  12  -6   15.40    0.74
   1  12   6   15.91    0.81
   1  12   6   16.23    0.81
   2 -12   6    3.53    0.38
  -2 -12  -6    3.96    0.32
  -2 -12  -6    2.72    0.34
   2 -12   6    2.91    0.28
   2  12   6    3.65    0.39
  -2  12  -6    3.75    0.33
  -2  12  -6    3.25    0.34
   2  12   6    3.91    0.43
   6 -13  -6    2.98    0.31
   6 -13  -6    2.65    0.33
   6 -13  -6    2.54    0.28
  -6 -13   6    2.28    0.31
   6  13  -6    2.50    0.31
  -6  13   6    2.15    0.36
   5 -13  -6    0.01    0.12
   5 -13  -6    0.01    0.11
  -5 -13   6   -0.16    0.12
   5 -13  -6   -0.11    0.10
  -5 -13   6   -0.08    0.13
  -5  13   6   -0.25    0.15
   5  13  -6    0.00    0.12
   4 -13  -6    2.91    0.28
   4 -13  -6    2.74    0.29
   4 -13  -6    3.37    0.30
  -4 -13   6    2.92    0.32
  -4  13   6    3.03    0.37
   4  13  -6    2.52    0.30
  -3 -13   6    0.17    0.14
   3 -13  -6    0.17    0.13
   3  13  -6    0.08    0.12
  -3  13   6   -0.02    0.14
   2 -13  -6    4.28    0.33
  -2 -13   6    4.82    0.39
   2  13  -6    4.44    0.37
   2  13  -6    4.87    0.42
  -2  13   6    4.20    0.40
  -1 -13   6    0.03    0.14
  -1 -13   6    0.21    0.13
   1 -13  -6    0.27    0.14
   1  13  -6    0.21    0.11
   1  13  -6    0.16    0.15
  -1  13   6    0.15    0.16
  -1  13   6    0.28    0.18
   0 -13  -6    4.77    0.36
   0 -13   6    4.54    0.41
   0 -13   6    4.31    0.34
   0  13  -6    4.65    0.35
   0  13  -6    4.95    0.38
   0  13   6    3.65    0.37
   0  13   6    5.00    0.44
   1 -13   6    5.87    0.39
   1 -13   6    7.61    0.52
  -1 -13  -6    6.26    0.45
  -1 -13  -6    5.75    0.40
   1  13   6    6.42    0.49
   1  13   6    6.43    0.50
  -1  13  -6    6.36    0.45
  -1  13  -6    5.91    0.41
  -2 -13  -6    1.46    0.24
   2 -13   6    1.37    0.29
   2 -13   6    1.67    0.23
  -2 -13  -6    1.75    0.29
   2  13   6    1.21    0.27
  -2  13  -6    1.70    0.26
  -2  13  -6    1.23    0.25
   2  13   6    1.41    0.29
  -5 -14   6    0.08    0.16
   5 -14  -6   -0.22    0.10
   5 -14  -6   -0.05    0.11
   5 -14  -6    0.09    0.13
  -5  14   6    0.26    0.20
   5  14  -6    0.14    0.13
   4 -14  -6    0.23    0.15
   4 -14  -6    0.38    0.16
  -4 -14   6    0.22    0.16
  -4  14   6    0.39    0.21
   4  14  -6    0.33    0.15
   3 -14  -6    8.23    0.49
  -3 -14   6    7.58    0.51
  -3  14   6    7.58    0.55
   3  14  -6    8.09    0.51
   2 -14  -6    0.39    0.17
  -2 -14   6    0.75    0.21
  -2  14   6    0.38    0.18
   2  14  -6    0.43    0.16
  -1 -14   6    0.76    0.18
  -1 -14   6    0.74    0.21
   1 -14  -6    0.30    0.15
   1  14  -6    0.46    0.15
  -1  14   6    0.46    0.20
   1  14  -6    0.25    0.14
   0 -14  -6    1.67    0.25
   0 -14   6    1.36    0.23
   0 -14   6    1.03    0.24
   0  14  -6    1.05    0.20
   0  14  -6    1.14    0.22
   0  14   6    1.62    0.31
  -1 -14  -6    8.45    0.53
  -1 -14  -6    8.20    0.49
   1 -14   6    8.72    0.49
   1 -14   6    9.63    0.61
  -1  14  -6    9.07    0.52
   1  14   6    9.22    0.59
  -1  14  -6    9.33    0.56
   1  14   6    9.32    0.62
  -5 -15   6    1.44    0.27
   5 -15  -6    1.62    0.25
   5 -15  -6    1.19    0.23
   5 -15  -6    1.63    0.27
   5  15  -6    1.55    0.28
  -5  15   6    1.98    0.36
  -4 -15   6    0.01    0.14
   4 -15  -6    0.02    0.12
  -4  15   6   -0.06    0.14
   4  15  -6   -0.07    0.11
   3 -15  -6    6.44    0.44
  -3 -15   6    5.88    0.46
   3  15  -6    5.66    0.44
  -3  15   6    6.36    0.52
  -2 -15   6    0.84    0.23
   2 -15  -6    0.46    0.17
  -2  15   6    0.41    0.18
   2  15  -6    0.61    0.19
  -1 -15   6    2.64    0.34
  -1 -15   6    2.80    0.29
   1 -15  -6    2.53    0.30
  -1  15   6    2.61    0.36
   1  15  -6    2.11    0.25
   1  15  -6    2.70    0.32
   0 -15  -6    0.29    0.15
   0 -15   6    0.51    0.16
   0 -15   6    0.69    0.22
   0  15   6    0.44    0.21
   0  15  -6    0.65    0.18
   0  15  -6    0.50    0.17
   1 -15   6    0.06    0.14
   1 -15   6    0.32    0.15
  -1 -15  -6   -0.01    0.13
   1  15   6    0.43    0.19
  -1  15  -6    0.04    0.14
  -1  15  -6    0.12    0.16
  -4 -16   6    4.45    0.41
   4 -16  -6    4.24    0.37
  -4  16   6    3.96    0.45
   4  16  -6    3.57    0.37
  -3 -16   6    1.45    0.28
   3 -16  -6    1.58    0.26
  -3  16   6    1.67    0.33
   3  16  -6    1.19    0.25
  -2 -16   6    4.85    0.44
   2 -16  -6    4.69    0.39
   2  16  -6    4.27    0.39
  -2  16   6    5.06    0.47
   1 -16  -6    1.65    0.26
  -1 -16   6    1.46    0.25
  -1 -16   6    1.88    0.32
  -1  16   6    1.30    0.28
   1  16  -6    1.20    0.24
   1  16  -6    1.02    0.20
   0 -16  -6    4.27    0.37
   0 -16   6    4.91    0.45
   0 -16   6    4.42    0.37
   0  16  -6    5.01    0.38
   0  16   6    4.06    0.45
   0  16  -6    5.20    0.42
   3 -17  -6    2.35    0.32
  -3 -17   6    2.26    0.33
   3  17  -6    2.10    0.31
  -3  17   6    2.30    0.36
   2 -17  -6    0.28    0.16
  -2 -17   6    0.44    0.21
   2  17  -6    0.09    0.17
  -2  17   6    0.02    0.17
   1 -17  -6    4.71    0.40
  -1 -17   6    5.88    0.50
   1  17  -6    5.70    0.46
  -1  17   6    5.43    0.51
  -8   0   7    0.06    0.19
   8   0  -7    0.02    0.11
  -8   0   7    0.08    0.19
   8   0  -7   -0.14    0.13
   7   0  -7    3.38    0.30
   7   0  -7    3.89    0.36
  -7   0   7    3.02    0.37
  -7   0   7    3.13    0.39
   6   0  -7    0.16    0.12
  -6   0   7    0.02    0.15
   6   0  -7    0.15    0.11
  -6   0   7    0.16    0.16
  -5   0   7    9.27    0.55
   5   0  -7    8.93    0.49
   5   0  -7    8.44    0.44
  -4   0   7    0.09    0.12
  -4   0   7   -0.01    0.10
   4   0  -7   -0.08    0.07
   4   0  -7   -0.03    0.09
  -3   0   7    0.81    0.20
   3   0  -7    0.83    0.14
   3   0  -7    0.82    0.15
  -2   0   7    0.05    0.12
  -2   0   7   -0.03    0.08
   2   0  -7    0.12    0.08
   2   0  -7   -0.07    0.09
  -2   0   7   -0.02    0.08
  -1   0   7    2.34    0.28
   1   0  -7    1.51    0.21
  -1   0   7    1.87    0.21
  -1   0   7    1.88    0.23
   0   0   7   -0.13    0.07
   0   0   7    0.03    0.11
   0   0  -7    0.06    0.11
   0   0   7   -0.05    0.11
  -1   0  -7    6.72    0.43
   1   0   7    7.21    0.41
   1   0   7    7.05    0.48
   1   0   7    6.88    0.50
   2   0   7    0.12    0.14
   2   0   7   -0.05    0.13
   2   0   7   -0.15    0.08
  -2   0  -7   -0.13    0.12
  -3   0  -7   -0.10    0.12
  -3   0  -7    0.18    0.15
   3   0   7    0.12    0.16
  -8  -1   7    0.22    0.17
   8  -1  -7    0.15    0.13
  -8  -1   7    0.32    0.23
   8  -1  -7    0.23    0.17
  -8   1   7   -0.24    0.15
   8   1  -7    0.46    0.18
   8   1  -7    0.20    0.12
  -8   1   7    0.14    0.16
   7  -1  -7    4.15    0.32
  -7  -1   7    3.65    0.40
  -7  -1   7    2.74    0.35
   7  -1  -7    3.65    0.36
  -7   1   7    2.96    0.37
   7   1  -7    3.56    0.30
  -7   1   7    3.32    0.36
   7   1  -7    2.79    0.32
   6  -1  -7    1.74    0.25
   6  -1  -7    2.45    0.24
  -6  -1   7    1.55    0.30
  -6   1   7    1.95    0.30
   6   1  -7    1.77    0.25
  -6   1   7    1.60    0.27
   6   1  -7    1.61    0.21
  -5  -1   7   11.86    0.64
   5  -1  -7   12.34    0.55
   5  -1  -7   11.90    0.59
   5  -1  -7   11.97    0.52
   5   1  -7   12.76    0.56
  -5   1   7   12.25    0.65
  -5   1   7   10.95    0.60
   5   1  -7   12.05    0.60
  -4  -1   7    0.99    0.21
   4  -1  -7    1.54    0.19
   4  -1  -7    1.25    0.19
   4   1  -7    1.28    0.19
   4   1  -7    1.53    0.17
  -4   1   7    1.19    0.21
  -4   1   7    1.18    0.24
   3  -1  -7    0.43    0.11
   3  -1  -7    0.35    0.11
  -3  -1   7    0.41    0.17
   3   1  -7    0.33    0.11
   3   1  -7    0.65    0.14
  -3   1   7    0.40    0.16
  -2  -1   7   -0.13    0.07
  -2  -1   7    0.08    0.09
   2  -1  -7    0.13    0.09
  -2  -1   7   -0.07    0.13
   2  -1  -7    0.08    0.08
  -2   1   7   -0.15    0.09
   2   1  -7   -0.03    0.08
  -2   1   7    0.10    0.09
   2   1  -7   -0.07    0.08
  -2   1   7    0.03    0.07
  -1  -1   7    8.79    0.44
  -1  -1   7    8.60    0.53
  -1  -1   7    8.69    0.47
   1  -1  -7    8.96    0.47
  -1   1   7    9.31    0.45
   1   1  -7    8.91    0.46
  -1   1   7    9.62    0.47
  -1   1   7    8.73    0.53
   1   1  -7    9.21    0.42
   0  -1   7    0.24    0.14
   0  -1  -7    0.13    0.12
   0  -1   7    0.25    0.15
   0  -1   7    0.21    0.11
   0   1   7    0.47    0.15
   0   1   7    0.46    0.13
   0   1  -7    0.28    0.14
   0   1   7    0.00    0.12
   1  -1   7   50.73    1.70
   1  -1   7   50.85    1.81
   1  -1   7   49.21    1.85
  -1  -1  -7   48.86    1.74
  -1   1  -7   48.32    1.73
   1   1   7   51.34    1.70
   1   1   7   48.09    1.85
   1   1   7   51.56    1.81
  -2  -1  -7    0.15    0.16
  -2  -1  -7    0.59    0.18
   2  -1   7    0.41    0.13
   2  -1   7    0.67    0.20
   2  -1   7    0.61    0.22
   2   1   7    0.78    0.16
   2   1   7    0.14    0.15
   2   1   7    0.18    0.17
  -2   1  -7    0.31    0.15
  -3  -1  -7    6.17    0.49
   3  -1   7    7.16    0.41
  -3  -1  -7    7.99    0.49
   3  -1   7    6.61    0.52
   3  -1   7    8.08    0.58
   3   1   7    7.08    0.55
  -3   1  -7    6.50    0.46
   3   1   7    7.11    0.41
  -3   1  -7    6.46    0.50
   8  -2  -7   -0.27    0.09
  -8  -2   7   -0.17    0.15
  -8  -2   7   -0.19    0.18
   8  -2  -7    0.09    0.16
  -8   2   7   -0.16    0.14
   8   2  -7    0.09    0.11
  -8   2   7   -0.12    0.16
   8   2  -7   -0.03    0.12
  -7  -2   7    0.04    0.18
   7  -2  -7    0.15    0.14
   7  -2  -7    0.09    0.11
  -7  -2   7   -0.09    0.14
   7   2  -7    0.14    0.12
   7   2  -7    0.09    0.11
  -7   2   7   -0.09    0.15
  -7   2   7    0.02    0.12
  -6  -2   7    1.23    0.26
  -6  -2   7    0.62    0.19
   6  -2  -7    1.27    0.23
   6  -2  -7    1.22    0.20
  -6   2   7    0.71    0.20
  -6   2   7    1.36    0.27
   6   2  -7    1.14    0.18
   6   2  -7    1.37    0.23
   5  -2  -7    1.63    0.19
   5  -2  -7    1.53    0.22
  -5  -2   7    1.50    0.27
  -5  -2   7    1.30    0.22
   5  -2  -7    1.20    0.20
  -5   2   7    0.63    0.18
  -5   2   7    1.35    0.26
   5   2  -7    1.82    0.22
   4  -2  -7    8.79    0.45
   4  -2  -7    7.77    0.41
  -4  -2   7    8.09    0.50
  -4   2   7    8.06    0.50
   4   2  -7    7.81    0.45
   4   2  -7    8.12    0.39
   3  -2  -7    1.81    0.20
  -3  -2   7    1.31    0.25
   3  -2  -7    1.55    0.18
  -3  -2   7    2.07    0.20
   3   2  -7    1.53    0.18
   3   2  -7    1.63    0.20
  -3   2   7    1.73    0.25
   2  -2  -7    6.60    0.35
  -2  -2   7    6.61    0.38
  -2  -2   7    6.64    0.44
  -2  -2   7    6.76    0.37
   2  -2  -7    6.37    0.37
   2   2  -7    6.33    0.37
   2   2  -7    6.33    0.36
  -2   2   7    7.15    0.36
  -2   2   7    7.76    0.47
  -2   2   7    7.13    0.38
   1  -2  -7    0.75    0.15
  -1  -2   7    0.80    0.17
  -1  -2   7    0.84    0.20
  -1  -2   7    0.38    0.12
   1   2  -7    0.80    0.16
   1   2  -7    0.57    0.12
  -1   2   7    0.60    0.17
  -1   2   7    0.87    0.17
  -1   2   7    0.40    0.12
   0  -2   7    4.84    0.32
   0  -2   7    4.69    0.36
   0  -2   7    4.26    0.38
   0  -2  -7    4.62    0.34
   0   2   7    5.03    0.32
   0   2   7    4.61    0.34
   0   2  -7    5.22    0.35
   0   2   7    4.58    0.39
   1  -2   7    1.25    0.26
  -1  -2  -7    0.91    0.19
  -1  -2  -7    1.83    0.26
   1  -2   7    2.23    0.29
   1  -2   7    1.31    0.20
  -1   2  -7    1.06    0.21
   1   2   7    1.39    0.25
   1   2   7    1.23    0.19
   1   2   7    0.98    0.23
   2  -2   7    3.00    0.35
  -2  -2  -7    2.99    0.33
   2  -2   7    2.40    0.34
   2  -2   7    3.15    0.27
  -2  -2  -7    3.59    0.33
   2   2   7    3.29    0.36
   2   2   7    3.43    0.28
  -2   2  -7    3.51    0.32
   3  -2   7    0.45    0.19
   3  -2   7    0.41    0.13
  -3  -2  -7    0.56    0.20
   3  -2   7    0.54    0.21
  -3  -2  -7    0.42    0.17
  -3   2  -7    0.46    0.17
   3   2   7    0.50    0.21
   3   2   7    0.62    0.16
  -8  -3   7   -0.03    0.18
   8  -3  -7   -0.02    0.15
   8  -3  -7    0.20    0.13
  -8  -3   7    0.04    0.19
   8   3  -7   -0.18    0.10
  -8   3   7    0.16    0.19
  -8   3   7   -0.22    0.16
   8   3  -7   -0.17    0.11
   7  -3  -7    6.89    0.42
  -7  -3   7    7.43    0.55
   7  -3  -7    6.89    0.49
  -7   3   7    6.29    0.50
  -7   3   7    6.57    0.53
   7   3  -7    7.30    0.48
   7   3  -7    6.86    0.42
   6  -3  -7    0.08    0.10
   6  -3  -7    0.03    0.12
  -6  -3   7   -0.18    0.13
  -6  -3   7    0.05    0.11
   6   3  -7    0.10    0.12
   6   3  -7    0.04    0.10
  -6   3   7    0.15    0.17
  -6   3   7    0.22    0.17
   5  -3  -7   12.34    0.56
   5  -3  -7   11.94    0.59
  -5  -3   7   11.53    0.64
   5  -3  -7   12.01    0.53
  -5   3   7   10.46    0.60
  -5   3   7   12.19    0.64
   5   3  -7   11.63    0.59
  -4  -3   7    0.66    0.19
   4  -3  -7    0.58    0.14
   4  -3  -7    0.73    0.15
   4   3  -7    0.55    0.11
  -4   3   7    0.43    0.17
   4   3  -7    0.50    0.15
  -4   3   7    0.60    0.16
   3  -3  -7   15.52    0.63
  -3  -3   7   15.19    0.73
  -3  -3   7   15.01    0.62
   3  -3  -7   15.51    0.64
   3   3  -7   15.21    0.65
   3   3  -7   12.87    0.60
  -3   3   7   15.73    0.66
  -3   3   7   14.14    0.71
  -2  -3   7    1.67    0.21
   2  -3  -7    1.62    0.20
   2  -3  -7    1.91    0.18
  -2  -3   7    1.83    0.27
  -2  -3   7    1.68    0.20
   2   3  -7    1.70    0.19
   2   3  -7    1.62    0.20
  -2   3   7    1.73    0.26
  -1  -3   7   10.33    0.47
  -1  -3   7    9.62    0.54
  -1  -3   7    9.62    0.50
   1  -3  -7    9.07    0.47
  -1   3   7    9.03    0.54
   1   3  -7    8.16    0.45
   1   3  -7    8.80    0.44
  -1   3   7    9.26    0.46
  -1   3   7    8.49    0.44
   0  -3  -7    1.07    0.18
   0  -3   7    1.23    0.19
   0  -3  -7    0.62    0.17
   0  -3   7    1.04    0.22
   0  -3   7    1.00    0.21
   0   3   7    0.86    0.22
   0   3   7    1.16    0.18
   0   3  -7    0.73    0.16
   0   3   7    1.11    0.21
   1  -3   7    2.78    0.32
   1  -3   7    3.32    0.33
   1  -3   7    2.90    0.26
  -1  -3  -7    3.16    0.31
  -1  -3  -7    2.13    0.26
   1   3   7    2.53    0.32
  -1   3  -7    2.48    0.26
   1   3   7    3.10    0.26
   2  -3   7    0.11    0.15
  -2  -3  -7    0.15    0.14
   2  -3   7    0.05    0.10
   2  -3   7   -0.09    0.14
  -2  -3  -7   -0.03    0.12
   2   3   7    0.04    0.10
  -2   3  -7    0.07    0.13
   2   3   7   -0.08    0.13
   3  -3   7    1.34    0.30
   3  -3   7    1.34    0.22
  -3  -3  -7    1.04    0.20
  -3  -3  -7    1.74    0.28
   3  -3   7    1.18    0.26
   3   3   7    1.47    0.22
  -3   3  -7    1.09    0.22
   3   3   7    1.26    0.28
  -8  -4   7    0.42    0.22
  -8   4   7    0.22    0.18
   7  -4  -7    6.78    0.41
  -7  -4   7    7.80    0.56
   7  -4  -7    6.13    0.46
  -7  -4   7    5.21    0.47
  -7   4   7    6.67    0.53
  -7   4   7    6.41    0.49
   7   4  -7    6.96    0.43
   7   4  -7    7.30    0.48
   7   4  -7    6.92    0.51
  -6  -4   7    2.43    0.34
   6  -4  -7    2.84    0.30
   6  -4  -7    2.95    0.27
  -6  -4   7    1.98    0.32
   6   4  -7    3.14    0.42
  -6   4   7    3.39    0.35
  -6   4   7    2.42    0.33
   6   4  -7    2.31    0.29
  -5  -4   7    8.68    0.53
   5  -4  -7    8.01    0.42
   5  -4  -7    8.57    0.47
   5  -4  -7    7.95    0.43
  -5   4   7    6.01    0.46
  -5   4   7    7.87    0.50
   5   4  -7    8.38    0.48
  -4  -4   7    7.44    0.49
   4  -4  -7    6.81    0.38
   4  -4  -7    7.67    0.42
  -4   4   7    7.19    0.47
  -4   4   7    7.38    0.45
   4   4  -7    7.27    0.41
   4   4  -7    6.97    0.43
  -3  -4   7   -0.02    0.09
   3  -4  -7    0.07    0.08
  -3  -4   7    0.17    0.14
   3  -4  -7   -0.04    0.09
   3   4  -7   -0.04    0.09
  -3   4   7    0.15    0.12
  -3   4   7    0.36    0.15
   3   4  -7    0.02    0.09
   2  -4  -7    6.44    0.36
  -2  -4   7    5.51    0.36
  -2  -4   7    6.45    0.43
  -2  -4   7    5.82    0.35
  -2   4   7    6.37    0.43
   2   4  -7    6.04    0.36
   2   4  -7    4.34    0.31
   1  -4  -7    0.42    0.12
  -1  -4   7    0.85    0.19
  -1  -4   7    0.78    0.15
  -1  -4   7    0.83    0.17
   1  -4  -7    0.44    0.13
   1   4  -7    0.86    0.16
  -1   4   7    0.90    0.21
   1   4  -7    0.75    0.16
  -1   4   7    0.73    0.14
   0  -4  -7    1.92    0.23
   0  -4   7    2.51    0.29
   0  -4  -7    2.41    0.25
   0  -4   7    2.30    0.23
   0  -4   7    2.52    0.28
   0   4   7    2.70    0.24
   0   4  -7    2.42    0.25
   0   4   7    2.20    0.28
   1  -4   7    0.31    0.16
   1  -4   7    0.24    0.15
  -1  -4  -7   -0.16    0.08
  -1  -4  -7    0.02    0.12
   1  -4   7   -0.02    0.09
   1   4   7   -0.11    0.09
   1   4   7   -0.02    0.11
  -1   4  -7    0.11    0.13
  -2  -4  -7    1.03    0.20
  -2  -4  -7    1.57    0.27
   2  -4   7    1.16    0.19
   2  -4   7    1.19    0.25
   2  -4   7    1.00    0.25
   2   4   7    1.46    0.22
  -2   4  -7    0.77    0.19
   2   4   7    1.28    0.27
  -3  -4  -7    0.08    0.14
   3  -4   7   -0.11    0.14
   3  -4   7    0.06    0.10
  -3  -4  -7    0.23    0.15
   3  -4   7    0.12    0.16
  -3   4  -7   -0.01    0.13
   3   4   7    0.37    0.14
   3   4   7    0.15    0.19
  -7  -5   7    0.39    0.22
   7  -5  -7    0.25    0.14
   7  -5  -7    0.17    0.15
  -7   5   7    0.13    0.17
   7   5  -7    0.41    0.15
   7   5  -7    0.49    0.17
  -7   5   7   -0.14    0.16
   7   5  -7    0.32    0.17
   6  -5  -7   -0.04    0.11
   6  -5  -7    0.00    0.10
  -6  -5   7    0.03    0.15
  -6   5   7   -0.07    0.13
   6   5  -7    0.03    0.11
  -6   5   7    0.13    0.15
   5  -5  -7   -0.05    0.08
   5  -5  -7   -0.05    0.09
  -5  -5   7    0.01    0.13
   5  -5  -7   -0.07    0.10
   5   5  -7    0.01    0.10
  -5   5   7   -0.06    0.13
  -5   5   7   -0.14    0.08
   4  -5  -7    2.28    0.23
  -4  -5   7    2.57    0.31
   4  -5  -7    2.80    0.25
  -4   5   7    2.36    0.29
   4   5  -7    2.41    0.26
  -4   5   7    2.59    0.31
  -3  -5   7    7.21    0.40
   3  -5  -7    6.50    0.40
  -3  -5   7    6.97    0.47
   3  -5  -7    6.52    0.37
   3   5  -7    7.78    0.39
   3   5  -7    7.61    0.43
  -3   5   7    7.93    0.45
  -3   5   7    7.69    0.48
  -2  -5   7    0.28    0.15
  -2  -5   7    0.08    0.10
   2  -5  -7    0.22    0.11
  -2  -5   7    0.02    0.10
   2   5  -7    0.01    0.09
  -2   5   7    0.01    0.10
  -2   5   7    0.10    0.13
   2   5  -7   -0.01    0.09
  -1  -5   7    8.19    0.48
   1  -5  -7    7.54    0.42
   1  -5  -7    8.62    0.44
  -1  -5   7    7.98    0.50
  -1  -5   7    8.70    0.44
  -1   5   7    8.25    0.52
   1   5  -7    8.33    0.44
   1   5  -7    8.16    0.43
  -1   5   7    8.84    0.43
   0  -5   7    1.56    0.25
   0  -5   7    1.59    0.21
   0  -5  -7    1.47    0.21
   0  -5   7    1.62    0.26
   0  -5  -7    0.96    0.19
   0   5  -7    1.33    0.18
   0   5   7    1.40    0.19
   0   5  -7    1.12    0.19
   0   5   7    1.09    0.24
   1  -5   7    0.20    0.11
   1  -5   7    0.02    0.14
  -1  -5  -7    0.16    0.13
  -1  -5  -7    0.10    0.11
   1  -5   7   -0.07    0.13
  -1   5  -7    0.10    0.11
   1   5   7   -0.01    0.13
   1   5   7    0.09    0.10
   2  -5   7    1.85    0.23
  -2  -5  -7    1.34    0.24
   2  -5   7    2.03    0.32
   2  -5   7    2.07    0.32
  -2  -5  -7    1.86    0.26
   2   5   7    1.41    0.30
   2   5   7    1.76    0.24
  -2   5  -7    2.19    0.28
  -3  -5  -7    4.01    0.34
   3  -5   7    4.12    0.43
   3  -5   7    3.84    0.41
  -3  -5  -7    3.36    0.38
   3  -5   7    3.69    0.30
   3   5   7    3.40    0.43
   3   5   7    4.11    0.33
  -3   5  -7    3.33    0.35
   7  -6  -7    0.09    0.12
  -7  -6   7   -0.01    0.16
   7  -6  -7    0.30    0.16
   7   6  -7    0.33    0.14
  -7   6   7    0.41    0.21
  -7   6   7    0.18    0.17
   6  -6  -7    3.95    0.35
   6  -6  -7    3.71    0.31
   6  -6  -7    4.58    0.40
  -6  -6   7    3.42    0.36
  -6   6   7    3.46    0.36
   6   6  -7    4.30    0.36
  -6   6   7    2.34    0.35
   5  -6  -7    0.05    0.11
   5  -6  -7    0.01    0.10
   5  -6  -7    0.06    0.11
  -5  -6   7    0.18    0.16
  -5   6   7    0.29    0.16
   5   6  -7    0.20    0.12
  -5   6   7    0.37    0.17
   4  -6  -7   16.10    0.68
  -4  -6   7   15.42    0.66
   4  -6  -7   15.86    0.68
  -4  -6   7   13.98    0.73
  -4   6   7   15.72    0.75
   4   6  -7   15.00    0.70
  -4   6   7   16.72    0.77
  -3  -6   7    7.91    0.51
   3  -6  -7    8.74    0.43
  -3  -6   7    8.55    0.45
   3  -6  -7    8.09    0.45
  -3   6   7    8.43    0.51
  -3   6   7    9.14    0.50
   3   6  -7    8.78    0.48
   3   6  -7    7.64    0.41
  -2  -6   7    2.17    0.24
  -2  -6   7    2.19    0.23
  -2  -6   7    1.57    0.26
   2  -6  -7    2.08    0.23
   2   6  -7    2.41    0.23
   2   6  -7    2.12    0.24
  -2   6   7    2.16    0.27
  -2   6   7    2.37    0.26
   1  -6  -7    1.32    0.29
  -1  -6   7    2.00    0.27
  -1  -6   7    2.18    0.24
   1  -6  -7    2.27    0.24
  -1  -6   7    1.72    0.24
   1   6  -7    2.16    0.23
   1   6  -7    1.76    0.22
  -1   6   7    2.19    0.27
   0  -6   7    1.16    0.23
   0  -6  -7    1.02    0.19
   0  -6   7    1.03    0.17
   0  -6  -7    1.13    0.19
   0  -6   7    0.96    0.21
   0   6   7    1.28    0.26
   0   6   7    0.80    0.16
   0   6  -7    0.70    0.16
   0   6  -7    1.24    0.19
   1  -6   7    0.28    0.16
   1  -6   7    0.20    0.15
   1  -6   7    0.42    0.13
  -1  -6  -7    0.32    0.13
  -1  -6  -7    0.20    0.12
   1   6   7    0.45    0.14
  -1   6  -7    0.08    0.13
   1   6   7    0.25    0.16
   2  -6   7    3.05    0.37
   2  -6   7    3.55    0.37
  -2  -6  -7    3.00    0.30
   2  -6   7    3.32    0.28
  -2  -6  -7    2.72    0.33
   2   6   7    3.53    0.30
  -2   6  -7    3.38    0.33
   2   6   7    3.39    0.38
   3  -6   7   -0.05    0.11
  -3  -6  -7    0.01    0.13
  -3  -6  -7    0.03    0.15
   3  -6   7    0.13    0.18
  -3   6  -7    0.10    0.14
   3   6   7   -0.04    0.10
   3   6   7   -0.26    0.14
   7  -7  -7    0.26    0.16
  -7  -7   7    0.23    0.21
   7  -7  -7    0.25    0.14
  -7   7   7    0.26    0.17
   7   7  -7    0.28    0.14
  -7   7   7    0.53    0.24
  -6  -7   7    0.25    0.16
   6  -7  -7   -0.06    0.11
   6  -7  -7   -0.23    0.09
   6  -7  -7   -0.06    0.09
  -6   7   7    0.03    0.14
   6   7  -7    0.00    0.11
  -6   7   7    0.29    0.18
   5  -7  -7    3.02    0.27
   5  -7  -7    3.05    0.29
   5  -7  -7    3.09    0.27
  -5  -7   7    3.28    0.36
  -5   7   7    2.57    0.32
   5   7  -7    3.30    0.32
  -5   7   7    3.04    0.35
  -4  -7   7    4.43    0.38
   4  -7  -7    4.94    0.33
   4  -7  -7    4.50    0.33
  -4  -7   7    5.30    0.33
  -4   7   7    3.91    0.37
  -4   7   7    4.85    0.39
   4   7  -7    4.66    0.36
   3  -7  -7   35.92    1.24
   3  -7  -7   37.59    1.28
  -3  -7   7   37.17    1.29
  -3  -7   7   31.05    1.32
   3   7  -7   36.57    1.31
   3   7  -7   31.84    1.21
  -3   7   7   35.33    1.35
  -3   7   7   35.28    1.34
  -2  -7   7    0.12    0.12
  -2  -7   7    0.11    0.11
  -2  -7   7   -0.03    0.13
   2  -7  -7    0.09    0.10
   2   7  -7   -0.03    0.09
   2   7  -7    0.03    0.10
  -2   7   7    0.11    0.12
  -2   7   7   -0.04    0.12
   1  -7  -7   25.84    1.03
  -1  -7   7   27.15    1.10
  -1  -7   7   27.65    1.03
  -1  -7   7   27.14    1.08
   1   7  -7   28.14    1.04
  -1   7   7   27.00    1.13
   1   7  -7   27.30    1.04
   0  -7   7    1.90    0.26
   0  -7  -7    2.10    0.24
   0  -7   7    2.00    0.28
   0  -7   7    2.23    0.24
   0  -7  -7    1.95    0.25
   0   7   7    1.91    0.23
   0   7  -7    2.69    0.27
   0   7   7    1.88    0.27
   0   7  -7    2.45    0.25
   1  -7   7    2.24    0.29
   1  -7   7    2.15    0.28
  -1  -7  -7    1.93    0.25
   1  -7   7    1.71    0.22
  -1  -7  -7    1.62    0.26
   1   7   7    1.91    0.32
   1   7   7    2.38    0.26
  -1   7  -7    1.79    0.25
  -2  -7  -7    0.64    0.19
   2  -7   7    0.86    0.24
   2  -7   7    1.33    0.20
  -2  -7  -7    0.97    0.20
  -2   7  -7    0.68    0.18
   2   7   7    0.90    0.18
   2   7   7    1.11    0.28
   7  -8  -7    0.75    0.17
  -7  -8   7    0.91    0.25
   7  -8  -7    1.05    0.24
  -7   8   7    0.81    0.25
   7   8  -7    0.79    0.20
   6  -8  -7    1.16    0.21
  -6  -8   7    1.03    0.27
   6  -8  -7    1.19    0.23
   6  -8  -7    1.33    0.21
   6   8  -7    0.98    0.22
  -6   8   7    0.99    0.25
  -6   8   7    0.92    0.23
  -5  -8   7    1.59    0.28
   5  -8  -7    0.73    0.17
   5  -8  -7    1.61    0.22
   5  -8  -7    1.25    0.22
  -5   8   7    1.25    0.25
   5   8  -7    1.33    0.22
  -5   8   7    1.26    0.26
  -4  -8   7    0.97    0.23
   4  -8  -7    0.86    0.18
   4  -8  -7    1.05    0.19
  -4  -8   7    0.99    0.18
   4   8  -7    1.18    0.20
  -4   8   7    1.02    0.23
  -4   8   7    1.00    0.22
   3  -8  -7    1.71    0.22
  -3  -8   7    1.26    0.21
  -3  -8   7    1.27    0.26
  -3   8   7    1.28    0.24
   3   8  -7    1.61    0.20
  -3   8   7    2.00    0.27
   3   8  -7    1.40    0.23
  -2  -8   7    2.69    0.31
  -2  -8   7    2.90    0.29
  -2  -8   7    2.80    0.27
   2  -8  -7    3.02    0.28
  -2   8   7    3.27    0.31
  -2   8   7    2.83    0.31
   2   8  -7    3.39    0.27
   2   8  -7    2.28    0.26
   1  -8  -7    2.29    0.26
  -1  -8   7    2.22    0.24
  -1  -8   7    2.17    0.27
  -1  -8   7    2.68    0.29
  -1   8   7    2.19    0.30
   1   8  -7    1.96    0.24
  -1   8   7    2.00    0.25
   1   8  -7    1.96    0.25
   0  -8   7   10.65    0.61
   0  -8  -7   10.77    0.55
   0  -8   7   10.89    0.59
   0  -8   7   10.91    0.53
   0   8  -7   10.77    0.55
   0   8   7   10.77    0.59
   0   8  -7   10.60    0.54
   0   8   7   11.40    0.64
  -1  -8  -7    0.18    0.14
   1  -8   7    0.05    0.11
  -1  -8  -7   -0.02    0.10
   1  -8   7    0.30    0.17
   1   8   7    0.13    0.16
   1   8   7    0.05    0.11
  -1   8  -7   -0.02    0.12
   2  -8   7    3.68    0.39
  -2  -8  -7    2.36    0.31
  -2  -8  -7    3.28    0.32
   2  -8   7    3.33    0.28
  -2   8  -7    3.18    0.33
   2   8   7    2.84    0.30
   2   8   7    3.09    0.38
   7  -9  -7    4.08    0.34
  -7  -9   7    4.23    0.44
   7  -9  -7    4.32    0.40
  -7   9   7    3.30    0.42
   7   9  -7    4.01    0.38
   6  -9  -7    4.99    0.37
   6  -9  -7    5.07    0.41
   6  -9  -7    5.39    0.37
  -6  -9   7    4.73    0.44
  -6   9   7    5.33    0.48
   6   9  -7    4.90    0.40
   5  -9  -7    8.25    0.47
  -5  -9   7    8.26    0.54
   5  -9  -7    8.36    0.49
   5  -9  -7    8.36    0.47
   5   9  -7    8.27    0.51
  -5   9   7    8.41    0.57
  -5   9   7    8.19    0.53
  -4  -9   7    7.09    0.49
   4  -9  -7    7.15    0.43
  -4  -9   7    6.79    0.43
   4  -9  -7    7.51    0.42
  -4   9   7    7.13    0.46
  -4   9   7    6.79    0.49
   4   9  -7    6.56    0.45
   3  -9  -7    6.54    0.40
  -3  -9   7    6.16    0.44
  -3  -9   7    5.62    0.40
  -3   9   7    6.03    0.42
  -3   9   7    6.07    0.44
   3   9  -7    5.69    0.40
  -2  -9   7    0.80    0.18
   2  -9  -7    0.92    0.18
  -2  -9   7    1.11    0.19
  -2  -9   7    0.85    0.20
  -2   9   7    0.94    0.23
  -2   9   7    0.85    0.21
   2   9  -7    0.84    0.18
   2   9  -7    1.17    0.19
  -1  -9   7    5.77    0.37
   1  -9  -7    5.46    0.38
  -1  -9   7    5.62    0.41
  -1  -9   7    5.75    0.42
  -1   9   7    5.80    0.42
  -1   9   7    5.87    0.44
   1   9  -7    5.34    0.36
   1   9  -7    5.56    0.39
   0  -9  -7   -0.04    0.10
   0  -9   7    0.12    0.14
   0  -9  -7   -0.06    0.10
   0  -9   7   -0.03    0.10
   0   9  -7    0.01    0.12
   0   9   7   -0.04    0.14
   0   9  -7    0.04    0.12
   1  -9   7    3.72    0.38
  -1  -9  -7    3.62    0.32
   1  -9   7    3.26    0.29
  -1  -9  -7    2.95    0.33
   1   9   7    4.00    0.40
  -1   9  -7    3.66    0.33
   1   9   7    3.72    0.32
   2  -9   7    0.53    0.15
   2  -9   7    0.45    0.19
  -2  -9  -7    0.33    0.20
  -2  -9  -7    0.49    0.16
   2   9   7    0.39    0.20
  -2   9  -7    0.44    0.18
   2   9   7    0.60    0.17
   6 -10  -7    1.81    0.28
  -6 -10   7    1.86    0.32
   6 -10  -7    2.81    0.29
   6 -10  -7    1.97    0.27
   6  10  -7    2.38    0.30
  -6  10   7    2.61    0.37
   5 -10  -7    0.96    0.20
   5 -10  -7    0.99    0.20
  -5 -10   7    1.20    0.23
  -5 -10   7    1.22    0.27
   5 -10  -7    1.45    0.23
   5  10  -7    0.97    0.21
  -5  10   7    0.98    0.26
  -4 -10   7    0.91    0.23
  -4 -10   7    0.72    0.19
   4 -10  -7    1.05    0.19
   4 -10  -7    0.62    0.16
   4  10  -7    0.37    0.17
  -4  10   7    0.61    0.22
  -4  10   7    0.44    0.17
  -3 -10   7    1.67    0.25
   3 -10  -7    1.86    0.24
  -3 -10   7    1.69    0.28
   3  10  -7    2.21    0.27
  -3  10   7    1.88    0.26
  -3  10   7    2.03    0.30
   2 -10  -7    0.75    0.18
  -2 -10   7    0.62    0.18
  -2 -10   7    0.75    0.18
  -2 -10   7    0.79    0.17
   2  10  -7    0.55    0.17
  -2  10   7    0.74    0.20
   2  10  -7    0.76    0.16
  -2  10   7    0.58    0.19
  -1 -10   7   -0.03    0.10
   1 -10  -7    0.19    0.13
  -1 -10   7    0.08    0.14
   1  10  -7   -0.02    0.11
  -1  10   7    0.06    0.14
  -1  10   7    0.10    0.14
   1  10  -7    0.31    0.14
   0 -10  -7    0.38    0.15
   0 -10   7    0.29    0.14
   0 -10   7    0.33    0.17
   0  10  -7    0.40    0.14
   0  10  -7    0.42    0.16
   0  10   7    0.36    0.19
  -1 -10  -7    0.25    0.15
   1 -10   7    0.12    0.15
  -1 -10  -7    0.11    0.14
   1 -10   7    0.04    0.11
  -1  10  -7    0.04    0.14
   1  10   7    0.05    0.16
  -1  10  -7    0.12    0.12
   2 -10   7   -0.01    0.16
  -2 -10  -7    0.09    0.13
  -2 -10  -7    0.12    0.16
   2 -10   7   -0.08    0.09
  -2  10  -7    0.17    0.15
   2  10   7    0.20    0.19
   2  10   7    0.03    0.13
   6 -11  -7    0.47    0.17
   6 -11  -7    0.14    0.15
   6 -11  -7    0.29    0.14
  -6 -11   7    0.47    0.18
  -6  11   7    0.42    0.22
   6  11  -7    0.12    0.13
  -5 -11   7    0.07    0.13
   5 -11  -7    0.03    0.12
   5 -11  -7    0.00    0.14
   5 -11  -7   -0.13    0.11
  -5 -11   7    0.07    0.15
  -5  11   7    0.10    0.16
   5  11  -7    0.16    0.14
  -4 -11   7    0.46    0.16
   4 -11  -7    0.22    0.14
  -4 -11   7    0.09    0.15
  -4  11   7    0.25    0.18
   4  11  -7    0.76    0.19
  -3 -11   7   -0.20    0.12
  -3 -11   7    0.23    0.14
   3 -11  -7    0.23    0.13
  -3  11   7    0.00    0.12
  -3  11   7    0.22    0.16
   3  11  -7   -0.09    0.11
  -2 -11   7    1.16    0.22
   2 -11  -7    1.19    0.22
   2  11  -7    1.30    0.23
  -2  11   7    1.09    0.24
   2  11  -7    1.32    0.20
  -2  11   7    1.40    0.28
   1 -11  -7    0.07    0.12
  -1 -11   7    0.01    0.13
  -1 -11   7    0.01    0.11
  -1  11   7   -0.19    0.12
   1  11  -7    0.18    0.13
  -1  11   7   -0.03    0.12
   1  11  -7   -0.06    0.12
   0 -11   7    5.25    0.37
   0 -11   7    4.85    0.42
   0 -11  -7    5.14    0.38
   0  11  -7    4.47    0.38
   0  11   7    5.06    0.47
   0  11   7    4.98    0.44
   0  11  -7    5.10    0.38
  -1 -11  -7    0.05    0.13
  -1 -11  -7   -0.05    0.13
   1 -11   7   -0.04    0.16
   1 -11   7   -0.01    0.11
   1  11   7    0.18    0.18
  -1  11  -7    0.07    0.14
  -1  11  -7   -0.01    0.12
   6 -12  -7    8.18    0.53
  -6 -12   7    7.44    0.54
   6 -12  -7    8.48    0.49
   6 -12  -7    7.45    0.48
  -6  12   7    7.68    0.60
   6  12  -7    6.72    0.51
  -5 -12   7    0.24    0.16
  -5 -12   7    0.37    0.19
   5 -12  -7    0.31    0.15
   5 -12  -7    0.28    0.16
   5  12  -7    0.56    0.19
  -5  12   7    0.21    0.18
  -4 -12   7    2.36    0.52
  -4 -12   7    2.74    0.32
   4 -12  -7    3.08    0.30
  -4  12   7    2.85    0.37
   4  12  -7    3.28    0.34
   3 -12  -7    0.05    0.12
  -3 -12   7    0.09    0.15
   3  12  -7    0.12    0.15
  -3  12   7    0.02    0.16
   2 -12  -7   17.61    0.78
  -2 -12   7   16.57    0.81
   2  12  -7   16.57    0.80
  -2  12   7   17.82    0.82
   2  12  -7   16.39    0.72
  -2  12   7   16.81    0.85
   1 -12  -7    0.02    0.13
  -1 -12   7    0.05    0.12
  -1 -12   7    0.10    0.14
   1  12  -7    0.18    0.14
  -1  12   7   -0.06    0.13
  -1  12   7   -0.16    0.13
   1  12  -7   -0.10    0.09
   0 -12   7   11.88    0.58
   0 -12   7   10.94    0.65
   0 -12  -7   10.89    0.58
   0  12   7   11.30    0.67
   0  12  -7   11.38    0.59
   0  12  -7    9.84    0.58
   0  12   7   10.55    0.65
   1 -12   7    0.12    0.12
  -1 -12  -7    0.10    0.13
   1 -12   7   -0.16    0.13
   1  12   7    0.00    0.17
  -1  12  -7    0.15    0.14
  -1  12  -7    0.15    0.15
   5 -13  -7    4.91    0.39
   5 -13  -7    4.76    0.39
  -5 -13   7    4.88    0.42
  -5  13   7    5.17    0.50
   5  13  -7    5.25    0.43
   4 -13  -7    3.65    0.34
  -4 -13   7    3.34    0.36
   4  13  -7    3.78    0.37
  -4  13   7    2.96    0.38
   3 -13  -7    4.01    0.36
  -3 -13   7    4.01    0.39
  -3  13   7    5.02    0.46
   3  13  -7    5.02    0.41
  -2 -13   7    0.69    0.21
   2 -13  -7    0.97    0.21
   2  13  -7    0.78    0.20
  -2  13   7    0.69    0.22
  -1 -13   7    8.14    0.54
   1 -13  -7    7.78    0.48
  -1 -13   7    7.16    0.46
   1  13  -7    7.15    0.48
   1  13  -7    6.28    0.42
  -1  13   7    6.70    0.51
   0 -13  -7    4.67    0.37
   0 -13   7    5.34    0.38
   0 -13   7    4.13    0.43
   0  13   7    4.20    0.42
   0  13  -7    4.09    0.36
   0  13   7    4.57    0.45
   0  13  -7    4.46    0.40
  -5  14   7    0.03    0.17
  -4 -14   7    5.76    0.48
   4 -14  -7    6.43    0.45
  -4  14   7    6.41    0.54
   4  14  -7    6.39    0.48
  -3 -14   7    0.55    0.20
   3 -14  -7    0.16    0.14
  -3  14   7   -0.11    0.14
   3  14  -7    0.29    0.18
  -2 -14   7    0.80    0.22
   2 -14  -7    1.20    0.23
  -2  14   7    1.12    0.25
   2  14  -7    0.73    0.20
  -1 -14   7    0.05    0.14
   1 -14  -7   -0.04    0.13
  -1 -14   7    0.03    0.11
   1  14  -7    0.24    0.14
   1  14  -7    0.10    0.12
  -1  14   7    0.02    0.15
   0 -14  -7    0.09    0.14
   0 -14   7    0.09    0.17
   0 -14   7   -0.14    0.11
   0  14   7   -0.06    0.16
   0  14  -7    0.07    0.14
   0  14  -7   -0.05    0.12
  -3 -15   7    0.67    0.21
   3 -15  -7    0.97    0.22
   3  15  -7    0.81    0.22
  -3  15   7    0.53    0.22
  -2 -15   7    4.36    0.42
   2 -15  -7    4.34    0.39
  -2  15   7    4.54    0.45
   2  15  -7    4.20    0.40
   1 -15  -7    1.35    0.24
  -1 -15   7    1.83    0.29
  -1 -15   7    1.26    0.27
   1  15  -7    1.08    0.22
   1  15  -7    1.58    0.29
  -1  15   7    0.96    0.26
  -7   0   8   -0.06    0.15
   7   0  -8   -0.07    0.13
  -7   0   8    0.20    0.20
   6   0  -8   17.28    0.79
  -6   0   8   14.69    0.81
  -5   0   8   -0.06    0.13
   5   0  -8   -0.08    0.10
   4   0  -8    7.84    0.43
   4   0  -8    8.19    0.47
  -4   0   8    8.12    0.54
   3   0  -8    0.00    0.09
   3   0  -8   -0.16    0.09
  -3   0   8    0.06    0.14
  -2   0   8   12.98    0.70
   1   0  -8    0.03    0.11
  -1   0   8   -0.09    0.08
  -1   0   8   -0.13    0.10
  -1   0   8    0.00    0.14
   0   0   8    9.86    0.63
   0   0   8    9.78    0.52
   0   0   8   11.49    0.61
  -1   0  -8   -0.02    0.13
   1   0   8   -0.06    0.12
   1   0   8    0.08    0.12
   1   0   8    0.00    0.13
   2   0   8   11.35    0.68
  -2   0  -8    9.36    0.63
   2   0   8   10.84    0.56
   2   0   8   10.47    0.70
   7  -1  -8    0.08    0.15
  -7  -1   8    0.48    0.23
   7  -1  -8    0.29    0.15
   7   1  -8    0.65    0.20
  -7   1   8    0.26    0.20
  -7   1   8    0.01    0.13
  -6  -1   8    2.85    0.39
   6  -1  -8    2.79    0.31
  -6   1   8    3.18    0.39
   6   1  -8    3.25    0.33
  -5  -1   8    2.67    0.34
   5  -1  -8    2.41    0.28
  -5   1   8    2.67    0.34
   5   1  -8    2.62    0.29
  -4  -1   8    1.09    0.26
   4  -1  -8    1.43    0.21
   4  -1  -8    1.22    0.20
   4   1  -8    1.47    0.22
   4   1  -8    1.19    0.19
  -4   1   8    1.16    0.25
   3  -1  -8    6.49    0.38
  -3  -1   8    6.38    0.46
   3  -1  -8    6.01    0.37
  -3   1   8    6.32    0.47
   3   1  -8    6.05    0.38
   3   1  -8    6.23    0.37
  -2  -1   8   10.00    0.51
   2  -1  -8    9.26    0.50
  -2  -1   8    9.92    0.60
  -2   1   8    9.62    0.59
   2   1  -8    9.96    0.51
   2   1  -8   10.20    0.49
  -1  -1   8    2.38    0.25
  -1  -1   8    2.19    0.27
   1  -1  -8    2.40    0.26
  -1  -1   8    2.36    0.32
  -1   1   8    2.48    0.26
  -1   1   8    2.24    0.32
   1   1  -8    2.62    0.28
  -1   1   8    2.46    0.27
   0  -1   8   14.92    0.74
   0  -1   8   14.16    0.78
   0  -1   8   14.87    0.67
   0  -1  -8   15.20    0.70
   0   1  -8   13.60    0.68
   0   1   8   15.62    0.74
   0   1   8   14.98    0.67
   0   1   8   13.54    0.77
   1  -1   8    0.01    0.15
  -1  -1  -8    0.09    0.15
   1  -1   8   -0.01    0.13
   1  -1   8    0.16    0.12
  -1  -1  -8   -0.14    0.11
  -1   1  -8    0.05    0.14
   1   1   8   -0.01    0.14
   1   1   8    0.06    0.13
   1   1   8   -0.15    0.10
   2  -1   8    1.83    0.32
  -2  -1  -8    0.76    0.23
  -2  -1  -8    1.02    0.22
   2  -1   8    1.14    0.29
   2  -1   8    0.89    0.20
   2   1   8    2.07    0.25
  -2   1  -8    0.90    0.21
   2   1   8    1.20    0.30
   7  -2  -8   -0.08    0.12
   7  -2  -8    0.23    0.13
  -7  -2   8   -0.02    0.18
   7   2  -8   -0.15    0.11
  -7   2   8    0.00    0.15
  -7   2   8   -0.02    0.15
   6  -2  -8    0.03    0.13
  -6  -2   8    0.21    0.18
  -6   2   8   -0.05    0.14
   6   2  -8    0.11    0.14
  -6   2   8    0.13    0.16
   5  -2  -8    0.14    0.12
   5  -2  -8    0.17    0.11
  -5  -2   8   -0.12    0.15
  -5   2   8    0.29    0.17
   5   2  -8    0.15    0.13
   4  -2  -8    0.58    0.15
  -4  -2   8    0.53    0.20
   4  -2  -8    0.43    0.14
  -4   2   8    0.73    0.21
   4   2  -8    0.47    0.15
   4   2  -8    0.60    0.14
  -3  -2   8    0.14    0.15
   3  -2  -8    0.12    0.10
   3  -2  -8    0.00    0.09
   3   2  -8    0.12    0.10
   3   2  -8    0.06    0.09
  -3   2   8    0.10    0.15
   2  -2  -8    0.95    0.19
  -2  -2   8    1.33    0.27
  -2  -2   8    1.07    0.20
   2   2  -8    1.01    0.18
   2   2  -8    1.13    0.20
  -2   2   8    0.87    0.23
  -1  -2   8    0.93    0.18
   1  -2  -8    1.12    0.19
  -1  -2   8    0.90    0.21
  -1  -2   8    1.04    0.24
   1   2  -8    0.88    0.18
  -1   2   8    1.24    0.22
  -1   2   8    0.69    0.16
  -1   2   8    0.71    0.21
   0  -2   8    1.71    0.30
   0  -2   8    2.06    0.30
   0  -2   8    2.31    0.26
   0  -2  -8    1.30    0.23
   0   2   8    2.78    0.28
   0   2   8    2.35    0.29
   0   2   8    2.64    0.34
   0   2  -8    2.41    0.27
  -1  -2  -8    0.86    0.21
   1  -2   8    0.87    0.24
  -1  -2  -8    0.73    0.18
   1  -2   8    1.11    0.25
   1  -2   8    0.81    0.17
   1   2   8    0.87    0.24
  -1   2  -8    0.81    0.20
   2  -2   8    0.18    0.20
  -2  -2  -8    0.50    0.20
   2  -2   8    0.01    0.15
  -2  -2  -8    0.04    0.15
   2  -2   8    0.35    0.15
  -2   2  -8    0.23    0.16
   2   2   8    0.37    0.15
   2   2   8    0.14    0.20
   7  -3  -8    0.84    0.22
   7  -3  -8    1.01    0.20
  -7  -3   8    0.71    0.26
  -7   3   8    0.49    0.22
   7   3  -8    0.73    0.22
  -7   3   8    0.79    0.26
   6  -3  -8    2.06    0.28
  -6  -3   8    1.83    0.33
  -6   3   8    1.77    0.29
   6   3  -8    1.66    0.27
  -5  -3   8    0.69    0.22
   5  -3  -8    0.28    0.14
   5  -3  -8    0.14    0.11
   5   3  -8    0.11    0.12
  -5   3   8    0.03    0.15
   4  -3  -8    0.88    0.18
  -4  -3   8    0.72    0.22
   4  -3  -8    0.76    0.17
   4   3  -8    0.59    0.16
   4   3  -8    0.57    0.13
  -4   3   8    0.49    0.20
  -3  -3   8    0.04    0.14
   3  -3  -8    0.14    0.10
   3  -3  -8   -0.05    0.10
   3   3  -8    0.08    0.11
   3   3  -8    0.16    0.11
  -3   3   8    0.00    0.12
   2  -3  -8    0.71    0.16
  -2  -3   8    0.96    0.23
  -2  -3   8    0.83    0.21
  -2  -3   8    0.97    0.19
   2   3  -8    0.60    0.15
  -2   3   8    0.75    0.23
   2   3  -8    0.98    0.18
  -1  -3   8    0.25    0.14
   1  -3  -8    0.03    0.10
  -1  -3   8   -0.12    0.12
  -1  -3   8    0.00    0.10
   1  -3  -8   -0.12    0.09
   1   3  -8   -0.07    0.07
  -1   3   8   -0.04    0.14
   0  -3  -8    0.10    0.13
   0  -3  -8    0.06    0.12
   0  -3   8    0.22    0.16
   0  -3   8    0.14    0.11
   0  -3   8   -0.05    0.13
   0   3  -8    0.13    0.13
   0   3   8   -0.08    0.14
   0   3   8    0.03    0.10
   1  -3   8    0.18    0.17
  -1  -3  -8    0.07    0.12
  -1  -3  -8    0.13    0.13
   1  -3   8    0.08    0.15
   1  -3   8   -0.01    0.11
   1   3   8    0.22    0.13
  -1   3  -8   -0.05    0.13
   1   3   8    0.08    0.16
  -2  -3  -8    1.58    0.29
  -2  -3  -8    0.79    0.20
   2  -3   8    1.60    0.31
   2  -3   8    1.91    0.33
   2  -3   8    1.52    0.24
   2   3   8    1.63    0.32
   2   3   8    1.71    0.25
  -2   3  -8    1.20    0.23
  -7  -4   8   -0.05    0.17
   7  -4  -8   -0.17    0.10
   7  -4  -8    0.03    0.14
  -7   4   8    0.13    0.17
  -7   4   8   -0.08    0.14
   7   4  -8   -0.04    0.13
   6  -4  -8    1.14    0.23
  -6  -4   8    1.32    0.29
  -6   4   8    1.65    0.30
  -6   4   8    0.85    0.23
   6   4  -8    1.19    0.23
  -5  -4   8    0.17    0.17
   5  -4  -8    0.11    0.12
   5  -4  -8    0.05    0.11
  -5   4   8   -0.02    0.13
  -5   4   8   -0.07    0.13
   5   4  -8    0.13    0.13
   4  -4  -8    4.10    0.31
  -4  -4   8    3.25    0.37
   4  -4  -8    3.88    0.31
   4   4  -8    3.38    0.32
  -4   4   8    3.42    0.36
  -3  -4   8    0.39    0.20
   3  -4  -8    0.39    0.15
  -3  -4   8    0.40    0.21
  -3   4   8    0.40    0.18
   3   4  -8    0.30    0.12
   3   4  -8    0.27    0.13
  -2  -4   8    7.86    0.53
  -2  -4   8    8.26    0.49
   2  -4  -8    7.99    0.45
  -2  -4   8    8.37    0.47
  -2   4   8    7.62    0.53
   2   4  -8    7.83    0.44
   2   4  -8    7.67    0.45
  -1  -4   8    1.41    0.27
  -1  -4   8    1.55    0.25
  -1  -4   8    1.55    0.23
   1  -4  -8    1.48    0.22
   1   4  -8    1.37    0.23
  -1   4   8    1.80    0.30
   0  -4  -8    2.65    0.29
   0  -4  -8    2.78    0.29
   0  -4   8    2.76    0.33
   0  -4   8    3.35    0.37
   0  -4   8    2.91    0.29
   0   4  -8    2.58    0.29
   0   4   8    3.04    0.29
   0   4   8    2.66    0.35
   1  -4   8    0.52    0.21
   1  -4   8    0.44    0.16
  -1  -4  -8    0.53    0.17
   1  -4   8    0.69    0.22
  -1  -4  -8    0.42    0.17
   1   4   8    0.80    0.18
  -1   4  -8    0.93    0.21
   1   4   8    0.35    0.19
  -2  -4  -8    0.90    0.23
  -7  -5   8    0.35    0.19
   7  -5  -8    0.52    0.18
   7  -5  -8    0.26    0.16
  -7   5   8    0.24    0.19
  -7   5   8    0.33    0.21
   7   5  -8    0.14    0.16
  -6  -5   8    2.82    0.37
   6  -5  -8    2.20    0.29
   6   5  -8    2.83    0.32
  -6   5   8    2.76    0.35
  -6   5   8    2.77    0.35
   5  -5  -8    0.65    0.16
   5  -5  -8    0.75    0.18
  -5  -5   8    0.48    0.21
   5   5  -8    0.83    0.20
  -5   5   8    0.45    0.19
  -5   5   8    0.35    0.19
   4  -5  -8   16.10    0.71
   4  -5  -8   16.52    0.72
  -4  -5   8   16.31    0.83
  -4   5   8   16.72    0.82
   4   5  -8   17.17    0.77
   3  -5  -8   12.81    0.60
  -3  -5   8   13.24    0.60
  -3  -5   8   12.39    0.69
  -3   5   8   11.81    0.68
   3   5  -8   12.48    0.61
   3   5  -8   10.55    0.55
  -2  -5   8    0.14    0.15
   2  -5  -8    0.44    0.15
  -2  -5   8    0.27    0.14
  -2  -5   8    0.37    0.15
  -2   5   8    0.17    0.16
   2   5  -8    0.38    0.14
   2   5  -8    0.31    0.13
  -1  -5   8   11.47    0.60
  -1  -5   8   10.09    0.62
  -1  -5   8   11.18    0.55
   1  -5  -8   10.23    0.54
   1   5  -8   10.39    0.54
  -1   5   8   11.23    0.66
   1   5  -8   10.21    0.54
   0  -5   8    1.13    0.25
   0  -5   8    0.99    0.19
   0  -5  -8    0.82    0.19
   0  -5  -8    1.16    0.21
   0  -5   8    1.52    0.28
   0   5   8    1.16    0.26
   0   5  -8    0.68    0.19
   0   5   8    1.33    0.22
   1  -5   8    1.98    0.32
  -1  -5  -8    1.16    0.24
   1  -5   8    1.47    0.28
  -1  -5  -8    1.46    0.25
   1  -5   8    1.58    0.24
   1   5   8    1.51    0.25
  -1   5  -8    1.95    0.28
   1   5   8    1.77    0.34
   7  -6  -8    0.05    0.14
   7  -6  -8    0.05    0.14
  -7  -6   8    0.20    0.20
  -7   6   8    0.26    0.17
   7   6  -8    0.32    0.19
  -7   6   8    0.38    0.20
  -6  -6   8    7.87    0.58
   6  -6  -8    9.35    0.54
   6   6  -8    8.03    0.53
  -6   6   8    8.05    0.57
  -6   6   8    9.39    0.60
   5  -6  -8    0.16    0.12
   5  -6  -8    0.27    0.13
  -5  -6   8    0.10    0.18
  -5   6   8    0.24    0.19
   5   6  -8    0.14    0.14
  -5   6   8    0.06    0.14
   4  -6  -8   18.94    0.83
  -4  -6   8   20.58    0.95
   4  -6  -8   20.01    0.83
  -4   6   8   19.45    0.95
  -4   6   8   20.14    0.93
   4   6  -8   21.04    0.89
  -3  -6   8    0.04    0.15
   3  -6  -8    0.20    0.13
  -3  -6   8    0.11    0.12
  -3   6   8    0.06    0.15
   3   6  -8    0.04    0.12
   3   6  -8    0.05    0.11
  -2  -6   8   12.75    0.70
  -2  -6   8   12.03    0.67
   2  -6  -8   11.95    0.60
  -2  -6   8   13.15    0.64
   2   6  -8   13.49    0.61
  -2   6   8   11.69    0.68
   2   6  -8   11.79    0.60
  -1  -6   8   -0.18    0.12
  -1  -6   8   -0.15    0.09
   1  -6  -8   -0.06    0.10
  -1  -6   8    0.05    0.14
  -1   6   8   -0.08    0.14
   1   6  -8   -0.10    0.09
   1   6  -8    0.14    0.11
   0  -6  -8    7.47    0.46
   0  -6   8    7.48    0.44
   0  -6   8    5.90    0.48
   0  -6   8    7.13    0.50
   0   6   8    7.81    0.49
   0   6  -8    7.44    0.46
   0   6   8    7.17    0.54
   1  -6   8    0.04    0.11
  -1  -6  -8   -0.09    0.12
   1  -6   8    0.30    0.16
  -1  -6  -8   -0.16    0.11
   1  -6   8   -0.03    0.12
  -1   6  -8    0.25    0.16
   1   6   8   -0.16    0.10
   1   6   8   -0.05    0.16
   6  -7  -8   -0.04    0.13
   6  -7  -8   -0.02    0.13
  -6  -7   8   -0.16    0.14
  -6   7   8    0.13    0.17
  -6   7   8   -0.01    0.16
   6   7  -8    0.43    0.18
   5  -7  -8    2.33    0.26
  -5  -7   8    2.38    0.35
   5  -7  -8    2.53    0.28
   5   7  -8    2.52    0.31
  -5   7   8    2.41    0.34
  -5   7   8    1.74    0.32
  -4  -7   8   10.86    0.64
   4  -7  -8   10.59    0.56
   4   7  -8   10.45    0.59
  -4   7   8   11.52    0.63
  -4   7   8   10.65    0.63
  -3  -7   8    5.99    0.40
   3  -7  -8    5.18    0.38
  -3  -7   8    5.02    0.45
  -3   7   8    5.80    0.45
   3   7  -8    5.57    0.36
   3   7  -8    5.74    0.40
  -2  -7   8    0.58    0.20
   2  -7  -8    0.92    0.18
  -2  -7   8    0.68    0.19
   2   7  -8    0.67    0.16
  -2   7   8    0.85    0.22
   2   7  -8    0.65    0.18
  -1  -7   8    1.63    0.29
  -1  -7   8    1.42    0.27
  -1  -7   8    1.41    0.23
   1  -7  -8    1.11    0.21
   1   7  -8    1.49    0.23
  -1   7   8    1.46    0.29
   1   7  -8    1.68    0.24
   0  -7   8    0.09    0.11
   0  -7  -8    0.20    0.14
   0  -7   8   -0.07    0.13
   0  -7   8    0.18    0.16
   0   7   8    0.07    0.16
   0   7  -8    0.20    0.14
  -1  -7  -8    1.86    0.27
   1  -7   8    1.56    0.24
   1  -7   8    1.73    0.30
  -1  -7  -8    1.47    0.26
   1   7   8    1.35    0.29
  -1   7  -8    1.52    0.25
   1   7   8    1.64    0.27
   6  -8  -8    0.01    0.11
  -6  -8   8    0.03    0.16
   6  -8  -8    0.10    0.13
  -6   8   8   -0.10    0.15
   6   8  -8    0.06    0.15
  -6   8   8   -0.04    0.16
  -5  -8   8   -0.10    0.15
   5  -8  -8   -0.03    0.11
   5  -8  -8    0.18    0.13
  -5   8   8    0.03    0.16
   5   8  -8    0.04    0.14
  -5   8   8    0.06    0.16
  -4  -8   8   -0.06    0.13
   4  -8  -8    0.16    0.13
   4   8  -8    0.17    0.13
  -4   8   8    0.58    0.20
  -4   8   8    0.07    0.15
  -3  -8   8    0.51    0.20
  -3  -8   8    0.74    0.19
   3  -8  -8    0.76    0.18
   3   8  -8    0.81    0.20
  -3   8   8    0.79    0.21
   3   8  -8    0.73    0.27
   2  -8  -8    0.11    0.12
  -2  -8   8    0.12    0.16
  -2  -8   8    0.28    0.16
   2   8  -8    0.08    0.11
  -2   8   8    0.09    0.15
   2   8  -8    0.08    0.12
   1  -8  -8    0.56    0.17
  -1  -8   8    0.64    0.20
  -1  -8   8    0.57    0.19
  -1  -8   8    0.41    0.16
  -1   8   8    0.78    0.23
   1   8  -8    0.90    0.20
   1   8  -8    0.93    0.19
   0  -8  -8   -0.10    0.12
   0  -8   8    0.01    0.11
   0  -8   8    0.01    0.14
   0   8   8    0.01    0.15
   0   8  -8    0.16    0.13
   1  -8   8    1.19    0.27
  -1  -8  -8    0.64    0.19
  -1  -8  -8    0.69    0.20
   1  -8   8    0.72    0.18
   1   8   8    0.92    0.28
  -1   8  -8    0.76    0.19
   6  -9  -8    1.05    0.23
   6  -9  -8    1.17    0.22
  -6  -9   8    0.93    0.28
   6   9  -8    0.71    0.20
  -6   9   8    0.82    0.25
   5  -9  -8    4.46    0.37
   5  -9  -8    4.49    0.36
  -5  -9   8    3.70    0.42
   5   9  -8    4.40    0.39
  -5   9   8    3.89    0.40
  -5   9   8    3.22    0.39
   4  -9  -8    1.52    0.25
  -4  -9   8    1.73    0.31
  -4  -9   8    1.79    0.26
   4   9  -8    1.28    0.24
  -4   9   8    1.51    0.29
  -4   9   8    1.54    0.29
  -3  -9   8    0.34    0.16
   3  -9  -8    0.18    0.13
  -3  -9   8    0.27    0.18
  -3   9   8   -0.17    0.13
   3   9  -8    0.26    0.15
  -3   9   8    0.34    0.18
  -2  -9   8    0.47    0.17
   2  -9  -8    0.36    0.16
  -2  -9   8    0.35    0.17
   2   9  -8    0.37    0.15
   2   9  -8    0.47    0.15
  -2   9   8    0.17    0.17
  -1  -9   8    0.12    0.14
  -1  -9   8    0.13    0.13
   1  -9  -8    0.10    0.13
   1   9  -8    0.22    0.14
   1   9  -8    0.26    0.14
  -1   9   8    0.25    0.18
   0  -9   8    1.23    0.22
   0  -9  -8    1.27    0.23
   0  -9   8    1.68    0.30
   0   9   8    1.79    0.32
   0   9  -8    2.01    0.27
  -5 -10   8    1.36    0.27
   5 -10  -8    1.15    0.23
  -5  10   8    0.81    0.23
   5  10  -8    1.03    0.23
   4 -10  -8    5.61    0.41
  -4 -10   8    5.67    0.43
  -4  10   8    5.11    0.45
   4  10  -8    6.08    0.44
  -4  10   8    5.20    0.46
  -3 -10   8    0.13    0.15
   3 -10  -8    0.10    0.13
  -3 -10   8    0.35    0.17
  -3  10   8    0.23    0.17
  -3  10   8    0.22    0.17
   3  10  -8    0.18    0.15
  -2 -10   8    4.84    0.40
   2 -10  -8    4.19    0.35
   2  10  -8    4.09    0.36
  -2  10   8    4.23    0.42
   2  10  -8    3.66    0.32
  -1 -10   8   -0.06    0.13
   1 -10  -8    0.17    0.15
  -1 -10   8   -0.05    0.11
   1  10  -8   -0.03    0.12
  -1  10   8   -0.03    0.15
   1  10  -8    0.05    0.13
   0 -10   8    3.99    0.41
   0 -10  -8    4.18    0.37
   0 -10   8    4.30    0.35
   0  10  -8    3.37    0.35
   0  10  -8    3.71    0.44
   0  10   8    3.30    0.40
   5 -11  -8    7.69    0.49
  -5 -11   8    7.69    0.55
   5  11  -8    7.55    0.53
   4 -11  -8    0.14    0.13
  -4 -11   8    0.12    0.15
  -4 -11   8    0.38    0.20
   4  11  -8    0.30    0.18
  -4  11   8    0.01    0.16
  -3 -11   8    1.29    0.24
   3 -11  -8    1.53    0.25
  -3  11   8    1.24    0.26
  -3  11   8    1.52    0.31
   3  11  -8    0.92    0.20
  -2 -11   8    0.90    0.23
   2 -11  -8    0.67    0.20
   2  11  -8    0.79    0.18
   2  11  -8    0.37    0.18
  -2  11   8    1.58    0.30
  -1 -11   8    4.27    0.41
  -1 -11   8    4.16    0.36
   1 -11  -8    3.45    0.34
   1  11  -8    3.60    0.35
   1  11  -8    4.01    0.35
  -1  11   8    3.55    0.40
  -4 -12   8    2.57    0.34
   4 -12  -8    2.29    0.29
  -4  12   8    1.55    0.30
   4  12  -8    2.36    0.33
  -3 -12   8    0.15    0.15
   3 -12  -8    0.17    0.14
  -3  12   8    0.48    0.20
   3  12  -8    0.01    0.14
  -2 -12   8    3.23    0.37
   2 -12  -8    2.67    0.32
  -2  12   8    3.19    0.37
   2  12  -8    3.06    0.34
  -1 -12   8    0.38    0.17
   1 -12  -8    0.41    0.18
  -1 -12   8    0.48    0.20
  -1  12   8    0.77    0.24
   1  12  -8    0.45    0.18
   1  12  -8    0.60    0.18
   3 -13  -8    0.65    0.23
  -3 -13   8    0.47    0.20
  -3  13   8    1.14    0.26
   3  13  -8    0.72    0.21
  -6   0   9    0.10    0.19
   6   0  -9   -0.04    0.12
   5   0  -9    4.37    0.38
  -5   0   9    4.04    0.44
   4   0  -9   -0.02    0.11
  -4   0   9    0.30    0.17
   4   0  -9   -0.10    0.10
   3   0  -9    0.56    0.16
  -3   0   9    0.11    0.17
   2   0  -9    0.02    0.12
  -2   0   9    0.14    0.16
   1   0  -9    4.61    0.37
  -1   0   9    4.09    0.44
   0   0   9    0.05    0.13
   0   0  -9   -0.36    0.12
   0   0   9    0.10    0.15
   0   0   9    0.05    0.15
  -6  -1   9   -0.09    0.17
   6  -1  -9   -0.01    0.14
  -6   1   9   -0.26    0.14
   6   1  -9   -0.09    0.12
  -5  -1   9   10.86    0.68
   5  -1  -9   10.30    0.58
   5   1  -9   10.92    0.59
  -5   1   9    9.56    0.65
  -4  -1   9    0.96    0.25
   4  -1  -9    0.84    0.17
   4  -1  -9    0.74    0.18
  -4   1   9    0.40    0.21
   4   1  -9    0.59    0.18
   4   1  -9    0.94    0.17
   3  -1  -9    0.00    0.10
  -3  -1   9    0.29    0.19
   3   1  -9    0.11    0.12
  -3   1   9    0.12    0.18
   2  -1  -9    1.40    0.23
  -2  -1   9    0.71    0.22
  -2   1   9    1.69    0.30
   2   1  -9    0.70    0.17
  -1  -1   9    3.49    0.35
  -1  -1   9    2.78    0.32
   1  -1  -9    3.06    0.31
  -1  -1   9    2.89    0.37
  -1   1   9    2.97    0.38
   1   1  -9    2.04    0.28
   0  -1   9    1.14    0.27
   0  -1  -9    0.88    0.20
   0  -1   9    1.59    0.26
   0  -1  -9    0.64    0.20
   0  -1   9    1.20    0.28
   0   1   9    1.14    0.28
   0   1   9    1.20    0.22
   0   1   9    1.19    0.26
   0   1  -9    0.84    0.22
   6  -2  -9    1.61    0.28
  -6  -2   9    1.45    0.32
   6   2  -9    1.67    0.27
  -6   2   9    1.38    0.31
   5  -2  -9    0.19    0.14
  -5  -2   9    0.23    0.18
  -5   2   9    0.12    0.19
   5   2  -9    0.34    0.16
   4  -2  -9    2.98    0.29
  -4  -2   9    2.65    0.38
   4  -2  -9    2.79    0.28
  -4   2   9    3.05    0.39
   4   2  -9    2.67    0.30
   4   2  -9    2.81    0.27
   3  -2  -9    0.48    0.16
  -3  -2   9    0.45    0.19
   3   2  -9    0.77    0.18
  -3   2   9    0.53    0.23
   3   2  -9    0.48    0.16
  -2  -2   9    2.24    0.33
   2  -2  -9    1.85    0.24
  -2   2   9    1.73    0.32
   2   2  -9    1.40    0.24
  -1  -2   9    0.16    0.18
   1  -2  -9    0.51    0.17
  -1  -2   9    0.04    0.11
  -1  -2   9    0.29    0.17
   1   2  -9   -0.09    0.13
  -1   2   9    0.07    0.17
   0  -2  -9    0.62    0.19
   0  -2   9    1.09    0.22
   0  -2   9    0.96    0.25
   0  -2  -9    0.30    0.17
   0  -2   9    0.52    0.24
   0   2  -9    0.65    0.19
   0   2   9    0.68    0.24
   6  -3  -9   -0.08    0.13
  -6  -3   9    0.37    0.21
   6   3  -9   -0.07    0.12
  -6   3   9    0.00    0.18
  -5  -3   9    2.28    0.37
   5  -3  -9    2.96    0.29
   5  -3  -9    3.41    0.32
   5   3  -9    2.82    0.32
  -5   3   9    2.95    0.40
   4  -3  -9    0.07    0.12
  -4  -3   9   -0.26    0.15
  -4   3   9   -0.04    0.16
   4   3  -9   -0.19    0.10
  -3  -3   9    2.49    0.33
   3  -3  -9    2.92    0.29
   3   3  -9    2.81    0.29
  -3   3   9    2.15    0.35
   2  -3  -9    0.40    0.14
  -2  -3   9    0.10    0.14
  -2   3   9    0.13    0.18
   2   3  -9    0.11    0.13
  -1  -3   9    1.66    0.26
  -1  -3   9    1.25    0.24
   1  -3  -9    1.15    0.22
  -1  -3   9    0.89    0.25
   1   3  -9    1.21    0.22
  -1   3   9    1.78    0.34
   0  -3   9    0.01    0.12
   0  -3   9   -0.25    0.12
   0  -3   9   -0.18    0.14
   0  -3  -9   -0.07    0.13
   0   3   9   -0.05    0.15
   0   3  -9    0.17    0.14
   0   3   9   -0.01    0.12
  -6  -4   9   -0.02    0.16
   6  -4  -9    0.04    0.12
   6   4  -9    0.43    0.18
  -6   4   9   -0.19    0.15
   5  -4  -9    0.08    0.13
  -5  -4   9   -0.12    0.17
   5  -4  -9    0.15    0.14
   5   4  -9   -0.01    0.13
  -5   4   9   -0.03    0.17
   4  -4  -9   -0.15    0.10
  -4  -4   9    0.06    0.17
   4   4  -9    0.11    0.14
  -4   4   9   -0.04    0.16
   3  -4  -9    0.47    0.17
  -3  -4   9    0.01    0.15
   3   4  -9    0.21    0.14
   3   4  -9    0.20    0.14
  -3   4   9    0.49    0.22
   2  -4  -9    0.35    0.14
  -2  -4   9    0.46    0.18
  -2  -4   9    0.25    0.19
   2   4  -9    0.47    0.16
  -2   4   9    0.35    0.21
   1  -4  -9    0.25    0.14
  -1  -4   9    0.30    0.17
  -1  -4   9    0.24    0.15
  -1  -4   9   -0.04    0.15
   1   4  -9    0.30    0.15
  -1   4   9    0.30    0.21
   0  -4   9    0.22    0.19
   0  -4  -9    0.31    0.17
   0  -4   9    0.27    0.15
   0  -4   9    0.09    0.18
   0   4  -9    0.37    0.16
   0   4   9    0.17    0.17
   6  -5  -9    2.05    0.30
  -6  -5   9    2.78    0.39
   6   5  -9    2.74    0.33
  -6   5   9    2.05    0.36
   5  -5  -9    0.29    0.14
   5  -5  -9    0.68    0.19
  -5  -5   9    0.39    0.21
   5   5  -9    0.34    0.17
  -5   5   9    0.48    0.21
   4  -5  -9    6.95    0.45
  -4   5   9    7.10    0.54
   4   5  -9    6.88    0.47
  -3  -5   9    6.07    0.51
   3  -5  -9    6.33    0.43
  -3   5   9    5.86    0.50
   3   5  -9    6.02    0.43
   3   5  -9    5.80    0.41
  -2  -5   9    1.00    0.26
   2  -5  -9    0.81    0.19
  -2  -5   9    0.81    0.21
  -2   5   9    0.76    0.24
   2   5  -9    0.83    0.20
  -1  -5   9    1.92    0.35
  -1  -5   9    2.47    0.30
  -1  -5   9    2.79    0.34
   1  -5  -9    2.00    0.29
   1   5  -9    2.30    0.28
  -1   5   9    2.51    0.35
   0  -5  -9    0.59    0.19
   0  -5   9    0.58    0.22
   0   5  -9    0.36    0.17
   5  -6  -9    0.67    0.18
  -5  -6   9    0.92    0.26
   5   6  -9    0.62    0.20
  -5   6   9    0.88    0.26
  -4  -6   9   -0.20    0.15
   4  -6  -9    0.10    0.15
  -4   6   9    0.04    0.18
   4   6  -9    0.03    0.14
  -3  -6   9    7.55    0.57
   3   6  -9    8.24    0.48
   3   6  -9    8.06    0.50
  -3   6   9    8.34    0.58
   2  -6  -9    1.14    0.23
  -2  -6   9    0.84    0.22
  -2  -6   9    0.83    0.24
  -2   6   9    1.13    0.27
   2   6  -9    0.78    0.20
   2   6  -9    0.83    0.19
  -1  -6   9    6.87    0.53
  -1  -6   9    5.86    0.48
  -1  -6   9    7.58    0.48
   1  -6  -9    6.65    0.46
  -1   6   9    6.44    0.55
   1   6  -9    6.84    0.46
   5  -7  -9    0.91    0.20
  -5  -7   9    0.56    0.24
  -5   7   9    0.96    0.25
   5   7  -9    0.83    0.21
   4  -7  -9    5.06    0.38
  -4  -7   9    4.56    0.46
  -4   7   9    4.21    0.44
   4   7  -9    4.48    0.40
   3  -7  -9   16.68    0.77
  -3  -7   9   16.63    0.86
   3   7  -9   14.85    0.75
   3   7  -9   14.81    0.75
  -3   7   9   16.91    0.86
  -2  -7   9    0.10    0.16
   2  -7  -9    0.55    0.18
  -2  -7   9    0.34    0.18
   2   7  -9    0.71    0.19
   2   7  -9    0.39    0.16
  -2   7   9    0.14    0.17
   1  -7  -9    6.06    0.45
  -1  -7   9    6.22    0.52
  -1  -7   9    7.19    0.52
  -1  -7   9    7.75    0.48
  -1   7   9    6.94    0.56
   1   7  -9    6.14    0.44
   4  -8  -9    2.38    0.29
  -4  -8   9    2.87    0.38
   4   8  -9    2.66    0.32
  -4   8   9    2.38    0.35
   3  -8  -9    0.63    0.18
  -3  -8   9    0.57    0.22
  -3  -8   9    0.58    0.26
  -3   8   9    0.55    0.22
   3   8  -9    0.50    0.18
  -2  -8   9    0.48    0.20
  -2  -8   9    0.27    0.19
   2  -8  -9    0.58    0.19
  -2   8   9    0.56    0.24
   2   8  -9    0.36    0.17
   2   8  -9    0.33    0.16
   4  -9  -9    1.47    0.25
  -4  -9   9    1.93    0.34
   4   9  -9    1.70    0.29
  -4   9   9    1.28    0.29
  -3  -9   9    1.25    0.25
  -3  -9   9    1.36    0.28
   3  -9  -9    1.56    0.26
  -3   9   9    0.91    0.26
   3   9  -9    1.49    0.27
   2  -9  -9    0.00    0.14
  -2  -9   9    0.11    0.17
   2   9  -9    0.26    0.16
   2   9  -9    0.25    0.15
  -2   9   9    0.53    0.23
   3   0 -10   -0.07    0.12
   0   0   0    0.00    0.00
;
_shelx_hkl_checksum              65556
_shelx_res_file
;
TITL MM1827C in P2(1)/n
CELL 0.71073   6.17390  15.23810   7.01230  90.0000 112.4916  90.0000
ZERR    4.00   0.00150   0.00380   0.00180   0.0000   0.0035   0.0000
LATT 1
SYMM 0.5-X, 0.5+Y, 0.5-Z
SFAC C  H  N  Cl
UNIT 24  12  8  4
L.S.16
ACTA
BOND
BOND $H
CONF
FMAP 2
PLAN 20
LIST 4
HTAB 2.3
EQIV $1 -1+x, y, z
HTAB C4 N1_$1
EQIV $2 -x+3/2, y-1/2, -z+3/2
HTAB C5 N2_$2
MPLA Cl N1 N2 C1 C2 C3 C4 C5 C6
TEMP -148
SIZE 0.2 0.15 0.03
REM EXTI    0.000000
WGHT    0.042400    0.169700
FVAR       0.25040
CL    4    1.010497    0.095964    0.820651    11.00000    0.03124    0.02096 =
         0.03084   -0.00400    0.01070    0.00422
N1    3    0.980122    0.265449    0.822583    11.00000    0.01350    0.02125 =
         0.01683   -0.00137    0.00576   -0.00036
N2    3    1.102865    0.478889    0.792862    11.00000    0.03432    0.02938 =
         0.04297    0.00135    0.01642   -0.00682
C1    1    1.000591    0.419660    0.811697    11.00000    0.02073    0.02368 =
         0.02498   -0.00059    0.00854    0.00065
C2    1    0.874120    0.341692    0.832982    11.00000    0.01478    0.01987 =
         0.01670   -0.00007    0.00548   -0.00070
C3    1    0.662234    0.347871    0.857697    11.00000    0.01540    0.02381 =
         0.02044    0.00102    0.00705    0.00354
AFIX  43
H3A   2    0.595836    0.403230    0.866396    11.00000   -1.20000
AFIX   0
C4    1    0.550437    0.269756    0.869285    11.00000    0.01355    0.03170 =
         0.01871    0.00102    0.00719   -0.00120
AFIX  43
H4A   2    0.404110    0.271035    0.884633    11.00000   -1.20000
AFIX   0
C5    1    0.654045    0.190086    0.858279    11.00000    0.01816    0.02464 =
         0.01864    0.00042    0.00683   -0.00508
AFIX  43
H5A   2    0.581778    0.135880    0.865922    11.00000   -1.20000
AFIX   0
C6    1    0.868970    0.192952    0.835501    11.00000    0.01747    0.01930 =
         0.01507   -0.00119    0.00519    0.00041
HKLF 4
REM  MM1827C in P2(1)/n
REM R1 =  0.0284 for    1657 Fo > 4sig(Fo)  and  0.0328 for all    1868 data
REM     82 parameters refined using      0 restraints
END
WGHT      0.0424      0.1697
REM Instructions for potential hydrogen bonds
EQIV $3 -x+3/2, y+1/2, -z+3/2
HTAB C3 Cl_$3
EQIV $4 -x+2, -y+1, -z+2
HTAB C3 N2_$4
HTAB C5 N2_$2
REM Highest difference peak  0.478,  deepest hole -0.188,  1-sigma level  0.053
Q1    1   0.7593  0.1923  0.8428  11.00000  0.05    0.48
Q2    1   0.7686  0.3445  0.8340  11.00000  0.05    0.43
Q3    1   0.6033  0.3075  0.8431  11.00000  0.05    0.42
Q4    1   0.9199  0.3025  0.8212  11.00000  0.05    0.37
Q5    1   0.6165  0.2311  0.8760  11.00000  0.05    0.36
Q6    1   0.9198  0.2332  0.8285  11.00000  0.05    0.36
Q7    1   1.0663  0.4301  0.7548  11.00000  0.05    0.28
Q8    1   0.9251  0.3778  0.8193  11.00000  0.05    0.27
Q9    1   1.0039  0.4649  0.8178  11.00000  0.05    0.26
Q10   1   1.0752  0.2631  0.8268  11.00000  0.05    0.24
Q11   1   0.9362  0.1470  0.8331  11.00000  0.05    0.24
Q12   1   1.0074  0.0491  0.8568  11.00000  0.05    0.23
Q13   1   0.9295  0.0858  0.7024  11.00000  0.05    0.22
Q14   1   0.9608  0.0745  0.8835  11.00000  0.05    0.21
Q15   1   0.8790  0.0574  0.7890  11.00000  0.05    0.12
Q16   1   1.0491  0.0855  0.6777  11.00000  0.05    0.11
Q17   1   1.0039  0.1274  0.6764  11.00000  0.05    0.11
Q18   1   1.1011  0.0698  0.9628  11.00000  0.05    0.10
Q19   1   1.1361  0.1059  0.9622  11.00000  0.05    0.10
Q20   1   1.1912  0.4871  0.8893  11.00000  0.05    0.10
;
_shelx_res_checksum              84262
loop_
_space_group_symop_operation_xyz
'x, y, z'
'-x+1/2, y+1/2, -z+1/2'
'-x, -y, -z'
'x-1/2, -y-1/2, z-1/2'
loop_
_atom_site_type_symbol
_atom_site_label
_atom_site_fract_x
_atom_site_fract_y
_atom_site_fract_z
_atom_site_U_iso_or_equiv
_atom_site_adp_type
_atom_site_calc_flag
_atom_site_occupancy
Cl Cl 1.01050(5) 0.09596(2) 0.82065(4) 0.02803(10) Uani d 1
N N1 0.98012(14) 0.26545(6) 0.82258(13) 0.01720(17) Uani d 1
N N2 1.10287(19) 0.47889(7) 0.79286(18) 0.0351(2) Uani d 1
C C1 1.00059(18) 0.41966(8) 0.81170(17) 0.0232(2) Uani d 1
C C2 0.87412(16) 0.34169(7) 0.83298(15) 0.01728(19) Uani d 1
C C3 0.66223(17) 0.34787(7) 0.85770(15) 0.0198(2) Uani d 1
H H3A 0.5958 0.4032 0.8664 0.024 Uiso calc 1
C C4 0.55044(17) 0.26976(8) 0.86928(16) 0.0210(2) Uani d 1
H H4A 0.4041 0.271 0.8846 0.025 Uiso calc 1
C C5 0.65405(17) 0.19009(7) 0.85828(15) 0.0205(2) Uani d 1
H H5A 0.5818 0.1359 0.8659 0.025 Uiso calc 1
C C6 0.86897(17) 0.19295(7) 0.83550(15) 0.01759(19) Uani d 1
loop_
_atom_site_aniso_label
_atom_site_aniso_U_11
_atom_site_aniso_U_22
_atom_site_aniso_U_33
_atom_site_aniso_U_12
_atom_site_aniso_U_13
_atom_site_aniso_U_23
Cl 0.03124(16) 0.02096(15) 0.03084(16) 0.00422(9) 0.01070(11) -0.00400(9)
N1 0.0135(3) 0.0212(4) 0.0168(4) -0.0004(3) 0.0058(3) -0.0014(3)
N2 0.0343(5) 0.0294(5) 0.0430(6) -0.0068(4) 0.0164(5) 0.0013(4)
C1 0.0207(5) 0.0237(5) 0.0250(5) 0.0006(4) 0.0085(4) -0.0006(4)
C2 0.0148(4) 0.0199(4) 0.0167(4) -0.0007(3) 0.0055(3) -0.0001(3)
C3 0.0154(4) 0.0238(5) 0.0204(4) 0.0035(3) 0.0071(3) 0.0010(4)
C4 0.0135(4) 0.0317(5) 0.0187(4) -0.0012(4) 0.0072(3) 0.0010(4)
C5 0.0182(4) 0.0246(5) 0.0186(4) -0.0051(3) 0.0068(3) 0.0004(4)
C6 0.0175(4) 0.0193(4) 0.0151(4) 0.0004(3) 0.0052(3) -0.0012(3)
loop_
_atom_type_symbol
_atom_type_description
_atom_type_scat_dispersion_real
_atom_type_scat_dispersion_imag
_atom_type_scat_source
C C 0.0033 0.0016 'International Tables Vol C Tables 4.2.6.8 and 6.1.1.4'
H H 0.0000 0.0000 'International Tables Vol C Tables 4.2.6.8 and 6.1.1.4'
N N 0.0061 0.0033 'International Tables Vol C Tables 4.2.6.8 and 6.1.1.4'
Cl Cl 0.1484 0.1585 'International Tables Vol C Tables 4.2.6.8 and 6.1.1.4'
loop_
_geom_angle_atom_site_label_1
_geom_angle_atom_site_label_2
_geom_angle_atom_site_label_3
_geom_angle
C6 N1 C2 116.15(9)
N2 C1 C2 177.99(12)
N1 C2 C3 124.44(9)
N1 C2 C1 113.94(9)
C3 C2 C1 121.62(9)
C2 C3 C4 117.46(9)
C2 C3 H3A 121.3
C4 C3 H3A 121.3
C5 C4 C3 119.65(9)
C5 C4 H4A 120.2
C3 C4 H4A 120.2
C4 C5 C6 117.21(9)
C4 C5 H5A 121.4
C6 C5 H5A 121.4
N1 C6 C5 125.09(9)
N1 C6 Cl 114.83(8)
C5 C6 Cl 120.07(8)
loop_
_geom_bond_atom_site_label_1
_geom_bond_atom_site_label_2
_geom_bond_distance
Cl C6 1.7402(11)
N1 C6 1.3218(13)
N1 C2 1.3490(13)
N2 C1 1.1378(16)
C1 C2 1.4604(15)
C2 C3 1.3870(14)
C3 C4 1.3938(15)
C3 H3A 0.95
C4 C5 1.3881(16)
C4 H4A 0.95
C5 C6 1.3965(14)
C5 H5A 0.95
loop_
_geom_hbond_atom_site_label_D
_geom_hbond_atom_site_label_H
_geom_hbond_atom_site_label_A
_geom_hbond_site_symmetry_A
_geom_hbond_distance_DH
_geom_hbond_distance_HA
_geom_hbond_distance_DA
_geom_hbond_angle_DHA
_geom_hbond_publ_flag
C4 H4A N1 1_455 0.95 2.49 3.4099(15) 164.4 y
C5 H5A N2 2_646 0.95 2.70 3.5651(17) 151.7 y
loop_
_geom_torsion_atom_site_label_1
_geom_torsion_atom_site_label_2
_geom_torsion_atom_site_label_3
_geom_torsion_atom_site_label_4
_geom_torsion
C6 N1 C2 C3 0.62(14)
C6 N1 C2 C1 -178.24(8)
N1 C2 C3 C4 -1.03(15)
C1 C2 C3 C4 177.74(9)
C2 C3 C4 C5 0.71(15)
C3 C4 C5 C6 -0.07(15)
C2 N1 C6 C5 0.12(15)
C2 N1 C6 Cl 179.80(7)
C4 C5 C6 N1 -0.38(15)
C4 C5 C6 Cl 179.96(7)

_cod_database_fobs_code 2240877
