#------------------------------------------------------------------------------
#$Date: 2015-05-13 23:44:39 +0300 (Wed, 13 May 2015) $
#$Revision: 136448 $
#$URL: svn://www.crystallography.net/cod/cif/2/24/06/2240664.cif $
#------------------------------------------------------------------------------
#
# This file is available in the Crystallography Open Database (COD),
# http://www.crystallography.net/. The original data for this entry
# were provided by IUCr Journals, http://journals.iucr.org/.
#
# The file may be used within the scientific community so long as
# proper attribution is given to the journal article from which the
# data were obtained.
#
data_2240664
loop_
_publ_author_name
'Gomes, Ligia R.'
'Low, John Nicolson'
'Cagide, Fernando'
'Chavarria, Daniel'
'Borges, Fernanda'
_publ_section_title
;
 New insights in the discovery of novel <i>h</i>-MAO-B inhibitors:
 structural characterization of a series of
 <i>N</i>-phenyl-4-oxo-4<i>H</i>-chromene-3-carboxamide derivatives
;
_journal_coeditor_code           LH5762
_journal_issue                   5
_journal_name_full               'Acta Crystallographica Section E'
_journal_page_first              547
_journal_page_last               554
_journal_paper_doi               10.1107/S2056989015007859
_journal_volume                  71
_journal_year                    2015
_chemical_formula_iupac          'C17 H13 N O3'
_chemical_formula_moiety         'C17 H13 N O3'
_chemical_formula_sum            'C17 H13 N O3'
_chemical_formula_weight         279.28
_chemical_name_systematic
;
<i>N</i>-(4-Methylphenyl)-4-oxo-4<i>H</i>-chromene-3-carboxamide
;
_space_group_crystal_system      triclinic
_space_group_IT_number           2
_space_group_name_Hall           '-P 1'
_space_group_name_H-M_alt        'P -1'
_symmetry_space_group_name_Hall  '-P 1'
_symmetry_space_group_name_H-M   'P -1'
_atom_sites_solution_hydrogens   mixed
_audit_creation_method           SHELXL2014
_cell_angle_alpha                91.444(6)
_cell_angle_beta                 95.238(6)
_cell_angle_gamma                112.551(8)
_cell_formula_units_Z            2
_cell_length_a                   6.6106(5)
_cell_length_b                   7.0143(5)
_cell_length_c                   15.3749(11)
_cell_measurement_reflns_used    8940
_cell_measurement_temperature    100(2)
_cell_measurement_theta_max      27.5
_cell_measurement_theta_min      3.2
_cell_volume                     654.25(9)
_computing_cell_refinement
;
<i>CrystalClear-SM Expert</i> (Rigaku, 2012)
;
_computing_data_collection
;
<i>CrystalClear-SM Expert</i> (Rigaku, 2012)
;
_computing_data_reduction
;
<i>CrystalClear-SM Expert</i> (Rigaku, 2012)
;
_computing_molecular_graphics
;
Mercury (Macrae <i>et al.</i>, 2006)
;
_computing_publication_material
;
OSCAIL (McArdle <i>et al.</i>,  2004),
SHELXL2014 (Sheldrick, 2015) and
PLATON (Spek, 2009)
;
_computing_structure_refinement
;
OSCAIL (McArdle <i>et al.</i>,  2004),
<i>ShelXle</i> (H\"ubschle <i>et al.</i>,  2011) and
SHELXL2014 (Sheldrick, 2015)
;
_computing_structure_solution
;
SHELXS97 (Sheldrick, 2008),
PLATON (Spek, 2009) and
<i>Flipper 25</i> (Oszl\'anyi & S\"ut\>o, 2004)
;
_diffrn_ambient_temperature      100(2)
_diffrn_detector_area_resol_mean 28.5714
_diffrn_measured_fraction_theta_full 0.997
_diffrn_measured_fraction_theta_max 0.990
_diffrn_measurement_device
;
AFC12 (Right): Kappa 3 circle
;
_diffrn_measurement_device_type
;
Rigaku Saturn724+ (2x2 bin mode)
;
_diffrn_measurement_method       'profile data from \w-scans'
_diffrn_radiation_monochromator  Mirrors
_diffrn_radiation_type           MoK\a
_diffrn_radiation_wavelength     0.71075
_diffrn_reflns_av_R_equivalents  0.0349
_diffrn_reflns_limit_h_max       8
_diffrn_reflns_limit_h_min       -8
_diffrn_reflns_limit_k_max       8
_diffrn_reflns_limit_k_min       -9
_diffrn_reflns_limit_l_max       19
_diffrn_reflns_limit_l_min       -19
_diffrn_reflns_number            9400
_diffrn_reflns_theta_full        25.000
_diffrn_reflns_theta_max         27.547
_diffrn_reflns_theta_min         3.152
_exptl_absorpt_coefficient_mu    0.098
_exptl_absorpt_correction_T_max  0.9980
_exptl_absorpt_correction_T_min  0.9845
_exptl_absorpt_correction_type   multi-scan
_exptl_absorpt_process_details
;
(<i>CrystalClear-SM Expert</i>; Rigaku, 2012)
;
_exptl_crystal_colour            colourless
_exptl_crystal_density_diffrn    1.418
_exptl_crystal_description       Plate
_exptl_crystal_F_000             292
_exptl_crystal_size_max          0.160
_exptl_crystal_size_mid          0.090
_exptl_crystal_size_min          0.020
_refine_diff_density_max         0.330
_refine_diff_density_min         -0.260
_refine_ls_extinction_method     none
_refine_ls_goodness_of_fit_ref   1.075
_refine_ls_hydrogen_treatment    mixed
_refine_ls_matrix_type           full
_refine_ls_number_parameters     196
_refine_ls_number_reflns         2986
_refine_ls_number_restraints     0
_refine_ls_restrained_S_all      1.075
_refine_ls_R_factor_all          0.0473
_refine_ls_R_factor_gt           0.0430
_refine_ls_shift/su_max          0.004
_refine_ls_shift/su_mean         0.000
_refine_ls_structure_factor_coef Fsqd
_refine_ls_weighting_details
'w=1/[\s^2^(Fo^2^)+(0.0687P)^2^+0.1454P] where P=(Fo^2^+2Fc^2^)/3'
_refine_ls_weighting_scheme      calc
_refine_ls_wR_factor_gt          0.1192
_refine_ls_wR_factor_ref         0.1233
_reflns_number_gt                2645
_reflns_number_total             2986
_reflns_threshold_expression     I>2\s(I)
_cod_data_source_file            lh5762sup1.cif
_cod_data_source_block           4d
_cod_database_code               2240664
_shelx_space_group_comment
;
The symmetry employed for this shelxl refinement is uniquely defined
by the following loop, which should always be used as a source of
symmetry information in preference to the above space-group names.
They are only intended as comments.
;
_shelx_estimated_absorpt_t_min   0.984
_shelx_estimated_absorpt_t_max   0.998
_shelx_hkl_file
;
   0   0  -325799.21  672.69   1 0.00000 0.04092-0.32444-0.19569 0.94590 0.97981
   0   0   325626.70  631.49   1 0.00000-0.04092-0.18353-0.31227 0.98301 0.94910
   0   0  -322854.53  840.45   1-0.77393-0.73286 0.00355 0.13270 0.63325 0.66730
   0   0   322360.94  840.41   1-0.73594-0.77701 0.13469 0.00553 0.66350 0.62945
   0   0  -418532.65  746.96   1 0.00000 0.05456-0.34740-0.17573 0.93771 0.98292
   0   0   417898.86  659.85   1 0.00000-0.05456-0.15951-0.33118 0.98719 0.94198
   0   0  -419711.42  744.65   1-0.77882-0.72406-0.01843 0.15377 0.62697 0.67237
   0   0   419815.35  763.13   1-0.72817-0.78293 0.15641-0.01578 0.66730 0.62190
   0   0  -531902.96  780.45   1 0.00000 0.06642-0.37042-0.15536 0.92886 0.98562
   0   0   530113.19  719.74   1 0.00000-0.06821-0.13535-0.34993 0.99079 0.93428
   0   0  -532156.85  821.99   1-0.78329-0.71484-0.04045 0.17479 0.62033 0.67708
   0   0   530713.06  777.10   1-0.71998-0.78843 0.17810-0.03715 0.67074 0.61399
   0   0  -6136696.5 2041.73   1 0.00000 0.07971-0.39302-0.13494 0.91952 0.98764
   0   0   6132999.2 1926.62   1 0.00000-0.08185-0.11103-0.36852 0.99381 0.92600
   0   0  -6123747.5 1921.71   1-0.78734-0.70520-0.06252 0.19578 0.61333 0.68143
   0   0   6131806.6 2148.32   1-0.71137-0.79351 0.19974-0.05855 0.67382 0.60572
   0   0  -7821300.3 8136.13   1-0.79097-0.69514-0.08462 0.21672 0.60597 0.68542
   0   0   7819922.2 8109.18   1-0.70234-0.79816 0.22135-0.07999 0.67654 0.59709
   0   0  -850470.62  944.50   1 0.00000 0.10628-0.43774-0.09363 0.89910 0.98991
   0   0   848853.98  905.69   1 0.00000-0.10913-0.06192-0.40525 0.99808 0.90766
   0   0  -856730.50 1175.55   1-0.79416-0.68465-0.10677 0.23763 0.59824 0.68904
   0   0   849740.67  912.63   1-0.69287-0.80239 0.24292-0.10148 0.67890 0.58810
   0   0  -9 1289.42  119.75   1 0.00000 0.11956-0.45986-0.07274 0.88798 0.99015
   0   0   9 1172.02  140.98   1 0.00000-0.12278-0.03713-0.42337 0.99931 0.89759
   0   0  -9 1363.79  136.88   1-0.79693-0.67372-0.12895 0.25850 0.59014 0.69229
   0   0   9 1043.56  134.66   1-0.68251-0.80560 0.26543-0.12260 0.68096 0.57962
   0   0 -10 3901.32  241.06   1 0.00000 0.13285-0.48183-0.05169 0.87626 0.98978
   0   0  10 4038.40  222.63   1 0.00000-0.13642-0.01218-0.44134 0.99992 0.88690
   0   0 -10 3863.17  253.37   1-0.79926-0.66236-0.15117 0.27933 0.58165 0.69516
   0   0  10 3235.22  217.81   1-0.67215-0.80891 0.28693-0.14422 0.68254 0.56995
   0   0 -10 3487.10  167.80   1-0.79924-0.66578 0.15100 0.58164-0.58172-0.46735
   0   0 -1115079.35  470.45   1 0.00000 0.14613-0.50362-0.03047 0.86391 0.98879
   0   0  1114836.53  518.88   1 0.00000-0.15006 0.01293-0.45914 0.99991 0.87559
   0   0 -1118133.20  581.47   1-0.80113-0.65055-0.17343 0.30011 0.57279 0.69764
   0   0  1119269.96  586.07   1-0.66135-0.81178 0.30839-0.16588 0.68374 0.55989
   0   0 -1117570.60  478.73   1-0.79676-0.64995 0.12750 0.60120-0.59068-0.46487
   0   0 -12 3519.63  197.08   1 0.00000 0.15942-0.52526-0.00909 0.85094 0.98716
   0   0  12 3364.36  249.92   1 0.00000-0.16370 0.03821-0.47677 0.99926 0.86364
   0   0 -12 1944.75  155.46   1-0.80256-0.63828-0.19574 0.32086 0.56353 0.69974
   0   0  12 2389.98  203.67   1-0.65008-0.81419 0.32980-0.18759 0.68455 0.54944
   0   0 -12 1966.73  135.16   1-0.79375-0.63360 0.10374 0.62051-0.59932-0.46207
   0   0 -13 1108.84  119.96   1 0.00000 0.17270-0.54672 0.01245 0.83731 0.98489
   0   0  13  840.86  125.19   1 0.00000-0.17734 0.06367-0.49423 0.99797 0.85104
   0   0 -13  673.38  119.67   1-0.80352-0.62555-0.21809 0.34156 0.55388 0.70143
   0   0  13  751.72  118.62   1-0.63835-0.81614 0.35117-0.20933 0.68496 0.53859
   0   0 -13  607.03   89.86   1-0.79020-0.61670 0.07973 0.63956-0.60763-0.45895
   0   0 -1410393.19  337.77   1 0.00000 0.18599-0.56800 0.03418 0.82302 0.98195
   0   0  1410203.46  418.24   1 0.00000-0.19099 0.08930-0.51151 0.99600 0.83777
   0   0 -1410921.29  379.69   1-0.80400-0.61234-0.24048 0.36222 0.54382 0.70272
   0   0  1411134.61  494.38   1-0.62615-0.81761 0.37250-0.23112 0.68496 0.52733
   0   0 -1410176.86  327.57   1-0.78609-0.59924 0.05545 0.65835-0.61561-0.45549
   0   0 -1515286.44  449.98   1 0.00000 0.19927-0.58911 0.05609 0.80805 0.97833
   0   0  1514273.14  479.70   1 0.00000-0.20463 0.11512-0.52862 0.99335 0.82382
   0   0 -1514908.80  480.41   1-0.80400-0.59865-0.26291 0.38284 0.53334 0.70359
   0   0  1514281.72  485.45   1-0.61346-0.81860 0.39378-0.25296 0.68454 0.51565
   0   0 -1513662.65  347.94   1-0.78140-0.58121 0.03091 0.67687-0.62325-0.45169
   0   0 -16 4323.46  226.16   1 0.00000 0.21256-0.61003 0.07818 0.79237 0.97401
   0   0  16 3482.83  271.35   1 0.00000-0.21827 0.14112-0.54553 0.98999 0.80916
   0   0 -16 3615.71  262.98   1-0.80350-0.58446-0.28540 0.40341 0.52243 0.70403
   0   0  16 3242.76  268.31   1-0.60026-0.81908 0.41501-0.27484 0.68369 0.50354
   0   0 -16 3015.84  191.32   1-0.77613-0.56259 0.00609 0.69512-0.63054-0.44754
   0   0 -17  181.11  112.52   1 0.00000 0.22584-0.63075 0.10047 0.77597 0.96896
   0   0 -17   47.90   93.34   1-0.80248-0.56975-0.30793 0.42393 0.51107 0.70403
   0   0 -17   85.39   71.56   1-0.77024-0.54336-0.01900 0.71307-0.63746-0.44302
   0   0 -18 4950.89  251.36   1 0.00000 0.23913-0.65129 0.12295 0.75882 0.96316
   0   0 -18 5012.95  315.70   1-0.80093-0.55451-0.33050 0.44440 0.49926 0.70357
   0   0 -1910637.84  438.50   1 0.00000 0.25242-0.67161 0.14564 0.74090 0.95659
   0   0 -1911073.60  459.07   1-0.79883-0.53872-0.35313 0.46482 0.48698 0.70264
   0   1 -19   35.73   79.88   1 0.00000 0.17173-0.72327 0.09146 0.69055 0.98088
   0   1 -18   10.18   97.79   1 0.00000 0.15844-0.70789 0.06383 0.70632 0.98530
   0   1 -18  -35.59   70.68   1-0.78480-0.61822-0.44267 0.32997 0.43372 0.71337
   0   1 -17 2304.89  234.37   1 0.00000 0.14516-0.69280 0.03591 0.72112 0.98875
   0   1 -17 2028.34  169.73   1-0.78776-0.63488-0.42798 0.30161 0.44300 0.71130
   0   1 -16  343.73   91.78   1 0.00000 0.13187-0.67810 0.00758 0.73496 0.99123
   0  -1  16  208.11  116.74   1 0.00000-0.13778 0.03082-0.65379 0.99952 0.74401
   0   1 -16  440.65  109.70   1-0.79030-0.65110-0.41421 0.27232 0.45149 0.70845
   0  -1  16  192.51  100.24   1-0.67194-0.81084 0.28737-0.40039 0.68257 0.42687
   0   1 -16  202.44   69.78   1-0.77127-0.63762-0.01479 0.67132-0.63633-0.37784
   0   1 -15 3304.93  194.28   1 0.00000 0.11859-0.66393-0.02124 0.74779 0.99271
   0  -1  15 3330.03  289.08   1 0.00000-0.12414-0.00122-0.64293 0.99999 0.75579
   0   1 -15 3133.26  248.43   1-0.79242-0.66691-0.40154 0.24194 0.45915 0.70475
   0  -1  15 2767.79  216.59   1-0.68677-0.81199 0.25632-0.38832 0.68017 0.43573
   0   1 -15 2478.28  179.28   1-0.77636-0.65605 0.00714 0.65019-0.63024-0.38318
   0   1 -14  732.36  103.12   1 0.00000 0.10530-0.65042-0.05075 0.75957 0.99314
   0  -1  14  533.84  116.39   1 0.00000-0.11050-0.03384-0.63263 0.99942 0.76652
   0   1 -14  848.18  144.38   1-0.79417-0.68235-0.39018 0.21025 0.46588 0.70013
   0  -1  14  860.72  162.93   1-0.70164-0.81346 0.22297-0.37746 0.67673 0.44248
   0   1 -14  933.52  105.80   1-0.78091-0.67395 0.02846 0.62845-0.62399-0.38837
   0   1 -13 7828.46  307.56   1 0.00000 0.09202-0.63776-0.08110 0.77023 0.99244
   0  -1  13 7586.92  385.62   1 0.00000-0.09685-0.06720-0.62307 0.99773 0.77613
   0   1 -13 7584.85  331.69   1-0.79555-0.69742-0.38042 0.17696 0.47156 0.69446
   0  -1  13 7423.75  382.62   1-0.71569-0.81382 0.18902-0.36836 0.67234 0.44944
   0   1 -13 7270.66  247.44   1-0.78492-0.69131 0.04910 0.60603-0.61763-0.39345
   0   1 -1218191.58  543.50   1 0.00000 0.07873-0.62621-0.11256 0.77965 0.99051
   0  -1  1218601.86  560.80   1 0.00000-0.08321-0.10151-0.61447 0.99483 0.78453
   0   1 -1219022.76  580.01   1-0.79657-0.71213-0.37263 0.14170 0.47604 0.68759
   0  -1  1219072.45  644.14   1-0.72938-0.81382 0.15311-0.36122 0.66674 0.45519
   0   1 -1217395.15  424.44   1-0.78844-0.70817 0.06897 0.58283-0.61122-0.39848
   0   1 -1166097.10 1239.83   1 0.00000 0.06545-0.61607-0.14544 0.78768 0.98719
   0  -1  1168311.95 1326.55   1 0.00000-0.06957-0.13707-0.60711 0.99056 0.79156
   0   1 -1164490.40 1258.94   1-0.79723-0.72648-0.36730 0.10398 0.47906 0.67926
   0  -1  1165936.71 1301.29   1-0.74271-0.81346 0.11473-0.35655 0.65970 0.45950
   0   1 -1165259.70 1186.47   1-0.79147-0.72455 0.08793 0.55872-0.60484-0.40353
   0   1 -10 9373.15  350.27   1 0.00000 0.05216-0.60780-0.18019 0.79408 0.98224
   0  -1  10 9344.33  405.39   1 0.00000-0.05593-0.17424-0.60137 0.98470 0.79700
   0   1 -10 8426.85  468.37   1-0.79749-0.74043-0.36511 0.06312 0.48030 0.66915
   0  -1  10 9101.63  386.31   1-0.75565-0.81271 0.07321-0.35502 0.65086 0.46201
   0   1 -10 9430.96  325.54   1-0.79403-0.74046 0.10580 0.53353-0.59858-0.40871
   0   1  -9 9838.16  374.22   1 0.00000 0.03888-0.60199-0.21739 0.79850 0.97531
   0  -1   910142.09  357.93   1 0.00000-0.04228-0.21358-0.59779 0.97692 0.80053
   0   1  -9 8946.73  490.15   1-0.79727-0.75390-0.36700 0.01818 0.47923 0.65673
   0  -1   9 8782.42  508.96   1-0.76810-0.81147 0.02761-0.35757 0.63973 0.46223
   0   1  -9 8703.98  442.04   1-0.79615-0.75592 0.12232 0.50699-0.59260-0.41416
   0   1  -8214014.2 2705.73   1 0.00000 0.02559-0.59950-0.25791 0.80037 0.96582
   0  -1   8224962.8 2565.09   1 0.00000-0.02864-0.25584-0.59713 0.96671 0.80162
   0   1  -8209827.2 2566.32   1-0.79635-0.76667-0.37432-0.03218 0.47507 0.64122
   0   1  -8203005.2 2339.99   1-0.79783-0.77095 0.13709 0.47870-0.58707-0.42008
   0   1  -713031.88  539.94   1 0.00000 0.01231-0.60159-0.30302 0.79879 0.95290
   0  -1   713056.46  516.58   1 0.00000-0.01500-0.30213-0.60051 0.95326 0.79947
   0   1  -710004.31  506.97   1-0.79433-0.77835-0.38904-0.08995 0.46655 0.62135
   0  -1   7 8539.48  378.97   1-0.79053-0.80652-0.08183-0.38092 0.60692 0.45212
   0   1  -7 8973.09  360.46   1-0.79910-0.78556 0.14953 0.44807-0.58229-0.42674
   0   1  -6 5635.86  283.91   1 0.00000-0.00097-0.61019-0.35463 0.79225 0.93500
   0  -1   6 6731.42  398.41   1 0.00000-0.00136-0.35414-0.60960 0.93519 0.79270
   0   1  -6 4445.48  282.41   1-0.79031-0.78801-0.41411-0.15807 0.45156 0.59501
   0  -1   6 3412.43  216.99   1-0.79920-0.80150-0.15061-0.40665 0.58187 0.43842
   0   1  -6 3247.29  181.08   1-0.79994-0.79975 0.15867 0.41414-0.57871-0.43459
   0   1  -567807.52 1181.95   1 0.00000-0.01425-0.62831-0.41576 0.77795 0.90935
   0   1  -566897.25 1049.55   1-0.80030-0.81345 0.16283 0.37524-0.57706-0.44438
   0   1  -473014.50 1256.35   1 0.00000-0.02754-0.66091-0.49138 0.75046 0.87050
   0  -1   472135.67 1303.64   1 0.00000 0.02754-0.48840-0.65793 0.87261 0.75257
   0   1  -471196.21 1212.54   1-0.79996-0.82646 0.15891 0.32826-0.57861-0.45737
   0   1  -336333.25  744.62   1 0.00000-0.04082-0.71615-0.58963 0.69794 0.80663
   0  -1   335051.08  829.14   1 0.00000 0.04082-0.58205-0.70857 0.81314 0.70445
   0   1  -336582.48  746.97   1-0.79818-0.83803 0.14036 0.26664-0.58583-0.47602
   0   1  -2160486.1 2288.94   1 0.00000-0.05411-0.80600-0.72250 0.59190 0.68924
   0  -1   2178445.0 2528.93   1 0.00000 0.05411-0.70763-0.79114 0.70657 0.60923
   0   1  -2167846.5 2274.71   1-0.79190-0.84510 0.09082 0.17404-0.60384-0.50547
   0  -1   196956.27 1629.22   1 0.00000 0.06740-0.87197-0.91246 0.48954 0.40355
   0  -1   195973.16 1691.26   1 0.00000 0.06640 0.93217 0.89130-0.36199-0.44851
   0  -1   1101859.7 1502.98   1-0.79678-0.73024 0.12763 0.08747-0.59063-0.67756
   0   1  -197474.03 1433.89   1-0.76423-0.83077-0.04251-0.00235-0.64353-0.55660
   0  -1   053103.17 1172.12   1 0.00000 0.08001 0.99408 0.99623 0.10861 0.03333
   0   1   050983.94 1073.63   1 0.00000-0.08001 0.99866 0.99651-0.05164 0.02363
   0  -1   055357.63 1166.66   1-0.70625-0.62636-0.21212-0.20922-0.67543-0.75092
   0   1   051648.10 1258.58   1-0.54547-0.62536-0.49500-0.49790-0.67633-0.60083
   0  -1  -1214653.3 3252.86   1 0.00000 0.09369 0.75855 0.80372 0.65160 0.58757
   0   1   1210931.3 3139.53   1 0.00000-0.09369 0.86830 0.82313 0.49602 0.56005
   0  -1  -1207065.4 3065.19   1-0.13936-0.04573 0.84873 0.89394 0.51012 0.44583
   0   1   1222834.5 3263.43   1-0.04156-0.13519 0.89183 0.84662 0.45043 0.51472
   0  -1  -2107834.5 1716.66   1 0.00000 0.10731 0.41867 0.50684 0.90813 0.85533
   0   1   297829.13 1608.49   1 0.00000-0.10731 0.60296 0.51479 0.79776 0.85057
   0  -1  -297904.14 1791.12   1-0.36580-0.25853 0.69239 0.78073 0.62190 0.56887
   0   1   2101702.7 1834.33   1-0.25549-0.36276 0.77915 0.69082 0.57239 0.62543
   0  -1  -3 1602.80  164.19   1 0.00000 0.12141 0.17862 0.30940 0.98391 0.94314
   0   1   3 1656.42  171.46   1 0.00000-0.12092 0.41616 0.28497 0.90929 0.95087
   0  -1  -3 1523.09  198.30   1-0.50420-0.38325 0.54802 0.67947 0.66741 0.62564
   0   1   3 1411.13  206.28   1-0.38128-0.50223 0.67840 0.54695 0.62800 0.66977
   0  -1  -4 2550.08  198.17   1 0.00000 0.13506 0.02773 0.20143 0.99961 0.97014
   0   1   4 2471.72  199.93   1 0.00000-0.13506 0.30351 0.12981 0.95282 0.98229
   0  -1  -4 2128.82  192.89   1-0.58933-0.45471 0.43197 0.60654 0.68269 0.65218
   0   1   4 2174.78  217.15   1-0.45376-0.58838 0.60600 0.43144 0.65333 0.68385
   0  -1  -522782.95  778.74   1 0.00000 0.14870-0.07648 0.14013 0.99707 0.97890
   0   1   522653.69  802.89   1 0.00000-0.14870 0.24149 0.02488 0.97040 0.98856
   0  -1  -519977.38  814.68   1-0.64476-0.49645 0.33962 0.55730 0.68479 0.66553
   0   1   520639.53  875.82   1-0.49650-0.64480 0.55733 0.33964 0.66548 0.68473
   0  -1  -6 2629.65  194.99   1 0.00000 0.16234-0.15449 0.10503 0.98799 0.98112
   0   1   6 2221.88  180.50   1 0.00000-0.16234 0.20651-0.05301 0.97844 0.98530
   0  -1  -6 1342.24  156.31   1-0.68306-0.52108 0.26428 0.52508 0.68086 0.67286
   0   1   6 1233.93  161.59   1-0.52211-0.68409 0.52568 0.26488 0.67160 0.67959
   0  -1  -7  777.58  100.13   1 0.00000 0.17598-0.21677 0.08567 0.97622 0.98065
   0   1   7   90.22   90.15   1 0.00000-0.17598 0.18805-0.11439 0.98215 0.97772
   0  -1  -7  331.53  113.60   1-0.71135-0.53568 0.19980 0.50343 0.67383 0.67793
   0   1   7  342.21  124.47   1-0.53725-0.71290 0.50600 0.20209 0.67476 0.67150
   0   1   8219466.7 2562.22   1 0.00000-0.18962 0.18027-0.16508 0.98361 0.96787
   0  -1  -8194797.6 2414.61   1-0.73233-0.54297 0.14495 0.49163 0.66534 0.68079
   0  -1  -9 4250.92  211.90   1 0.00000 0.20327-0.31439 0.07388 0.94929 0.97633
   0   1   9 3910.98  217.78   1 0.00000-0.20327 0.17978-0.20849 0.98370 0.95666
   0  -1  -9 4253.98  259.82   1-0.74866-0.54561 0.09626 0.48599 0.65592 0.68273
   0   1   9 3839.43  299.43   1-0.54929-0.75229 0.48981 0.09966 0.67702 0.65124
   0  -1 -10 5699.96  352.96   1 0.00000 0.21691-0.35498 0.07620 0.93487 0.97321
   0   1  10 5583.18  342.75   1 0.00000-0.21691 0.18446-0.24672 0.98283 0.94449
   0  -1 -10 4756.75  315.51   1-0.76163-0.54489 0.05214 0.48492 0.64590 0.68406
   0   1  10 4672.32  350.24   1-0.54960-0.76628 0.48937 0.05611 0.67708 0.64004
   0  -1 -1115555.58  462.82   1 0.00000 0.22682-0.39173 0.08393 0.92007 0.97031
   0   1  1113935.39  470.68   1 0.00000-0.23055 0.19297-0.28113 0.98120 0.93156
   0  -1 -1112688.72  469.05   1-0.77206-0.54163 0.01149 0.48732 0.63543 0.68494
   0   1  1111920.98  455.80   1-0.54738-0.77773 0.49241 0.01603 0.67668 0.62838
   0  -1 -1113073.70  345.78   1-0.79882-0.57213 0.14666 0.62327-0.58341-0.53309
   0  -1 -1220134.54  524.23   1 0.00000 0.24010-0.42600 0.09268 0.90472 0.96631
   0   1  1219995.23  572.10   1 0.00000-0.24419 0.20438-0.31264 0.97889 0.91794
   0  -1 -1220141.97  564.09   1-0.78050-0.53638-0.02647 0.49239 0.62458 0.68544
   0   1  1217510.60  545.98   1-0.54315-0.78718 0.49813-0.02136 0.67590 0.61634
   0  -1 -1219041.83  449.51   1-0.79577-0.55572 0.11918 0.63885-0.59375-0.53200
   0  -1 -1311637.14  369.86   1 0.00000 0.25339-0.45816 0.10353 0.88886 0.96180
   0   1  1312028.65  411.85   1 0.00000-0.25784 0.21807-0.34186 0.97593 0.90368
   0  -1 -1312201.89  424.30   1-0.78731-0.52950-0.06234 0.49958 0.61339 0.68559
   0   1  1310998.70  475.44   1-0.53729-0.79500 0.50595-0.05665 0.67477 0.60395
   0  -1 -1311936.39  368.50   1-0.79207-0.53869 0.09196 0.65469-0.60345-0.53026
   0  -1 -14  361.19   88.28   1 0.00000 0.26667-0.48865 0.11606 0.87247 0.95677
   0   1  14  380.84   99.02   1 0.00000-0.27148 0.23359-0.36926 0.97233 0.88878
   0  -1 -14  183.06   78.37   1-0.79274-0.52124-0.09654 0.50844 0.60185 0.68541
   0   1  14  223.12  134.11   1-0.53005-0.80143 0.51546-0.09026 0.67330 0.59122
   0  -1 -14  212.22   58.10   1-0.78775-0.52101 0.06488 0.67068-0.61256-0.52794
   0  -1 -15  183.54   92.30   1 0.00000 0.27996-0.51775 0.12997 0.85552 0.95117
   0   1  15  -20.59   82.48   1 0.00000-0.28512 0.25060-0.39516 0.96808 0.87323
   0  -1 -15   25.91   79.69   1-0.79698-0.51179-0.12938 0.51865 0.58998 0.68488
   0   1  15  -30.75   99.99   1-0.52161-0.80667 0.52632-0.12252 0.67149 0.57815
   0  -1 -15   63.14   64.55   1-0.78278-0.50270 0.03785 0.68671-0.62114-0.52507
   0  -1 -16   26.83   93.02   1 0.00000 0.29324-0.54571 0.14503 0.83797 0.94497
   0   1  16  142.04   85.79   1 0.00000-0.29876 0.26887-0.41982 0.96317 0.85702
   0  -1 -16  317.14   90.58   1-0.80015-0.50127-0.16111 0.52996 0.57774 0.68400
   0   1  16  219.53  117.83   1-0.51210-0.81084 0.53828-0.15367 0.66932 0.56472
   0  -1 -16  161.20   78.49   1-0.77717-0.48374 0.01079 0.70272-0.62919-0.52169
   0  -1 -17 1433.18  175.06   1 0.00000 0.30653-0.57267 0.16107 0.81978 0.93813
   0   1  17 1340.59  190.27   1 0.00000-0.31240 0.28820-0.44340 0.95756 0.84011
   0  -1 -17 1819.20  212.86   1-0.80235-0.48978-0.19194 0.54218 0.56514 0.68274
   0  -1 -17 1263.55  113.01   1-0.77089-0.46412-0.01634 0.71865-0.63674-0.51781
   0  -1 -18  139.26  101.33   1 0.00000 0.31981-0.59878 0.17798 0.80090 0.93061
   0  -1 -18  334.55  121.61   1-0.80364-0.47738-0.22202 0.55516 0.55214 0.68110
   0  -1 -19 2837.73  198.82   1 0.00000 0.33310-0.62413 0.19564 0.78131 0.92236
   0  -1 -19 3737.90  283.58   1-0.80406-0.46411-0.25147 0.56876 0.53873 0.67904
   0   2 -19 6434.13  364.61   1 0.00000 0.09104-0.77640 0.03581 0.63023 0.99520
   0   2 -18 1116.33  197.61   1 0.00000 0.07776-0.76557 0.00362 0.64334 0.99696
   0   2 -17  228.54  111.36   1 0.00000 0.06447-0.75543-0.02924 0.65522 0.99748
   0   2 -16  711.91  126.45   1 0.00000 0.05119-0.74614-0.06296 0.66578 0.99670
   0  -2  16  401.51  104.78   1 0.00000-0.05729-0.05931-0.74190 0.99823 0.66805
   0  -2  16  849.87  139.65   1-0.72547-0.78483 0.16369-0.52058 0.66849 0.33619
   0   2 -16 1034.14  112.08   1-0.76224-0.70848-0.04988 0.63332-0.64535-0.31136
   0   2 -15 1090.73  124.26   1 0.00000 0.03790-0.73788-0.09771 0.67492 0.99449
   0  -2  15 1194.91  142.62   1 0.00000-0.04365-0.09542-0.73509 0.99543 0.67655
   0  -2  15 1178.57  184.11   1-0.73957-0.78524 0.12412-0.51710 0.66152 0.34057
   0   2 -15 1083.97  116.36   1-0.76715-0.72673-0.03134 0.60880-0.64069-0.31814
   0   2 -1414244.79  484.75   1 0.00000 0.02462-0.73088-0.13373 0.68250 0.99071
   0  -2  1412187.45  413.70   1 0.00000-0.03000-0.13247-0.72923 0.99118 0.68360
   0  -2  1413578.48  430.01   1-0.75292-0.78490 0.08237-0.51579 0.65292 0.34332
   0   2 -1411755.12  330.29   1-0.77151-0.74444-0.01380 0.58327-0.63606-0.32495
   0   2 -13 2436.72  172.71   1 0.00000 0.01133-0.72542-0.17129 0.68829 0.98515
   0  -2  13 2761.81  207.53   1 0.00000-0.01636-0.17069-0.72453 0.98532 0.68904
   0  -2  13 1662.04  183.29   1-0.76541-0.78370 0.03805-0.51707 0.64241 0.34416
   0   2 -13 1975.50  137.58   1-0.77534-0.76161 0.00258 0.55660-0.63153-0.33186
   0   2 -12 4423.81  269.68   1 0.00000-0.00194-0.72186-0.21074 0.69203 0.97754
   0  -2  12 4216.83  318.80   1 0.00000-0.00272-0.21034-0.72126 0.97762 0.69265
   0  -2  12 3841.29  278.26   1-0.77685-0.78145-0.00935-0.52142 0.62961 0.34270
   0   2 -12 4000.75  197.57   1-0.77864-0.77827 0.01762 0.52857-0.62721-0.33897
   0   2 -11 3086.12  200.90   1 0.00000-0.01523-0.72063-0.25252 0.69331 0.96747
   0  -2  11 2758.92  203.93   1 0.00000 0.01091-0.25177-0.71978 0.96778 0.69411
   0  -2  11 4565.90  276.87   1-0.78697-0.77788-0.06044-0.52946 0.61401 0.33846
   0   2 -11 4561.07  205.18   1-0.78143-0.79439 0.03103 0.49892-0.62321-0.34641
   0   2 -10 3133.49  229.79   1 0.00000-0.02851-0.72228-0.29719 0.69159 0.95439
   0  -2  10 2764.95  254.81   1 0.00000 0.02455-0.29543-0.72052 0.95536 0.69299
   0  -2  10 3982.56  295.71   1-0.79537-0.77259-0.11599-0.54196 0.59491 0.33071
   0   2 -10 4260.16  265.72   1-0.78367-0.80998 0.04245 0.46728-0.61971-0.35435
   0   2  -9  629.55   90.10   1 0.00000-0.04180-0.72755-0.34547 0.68604 0.93749
   0  -2   9  687.52  102.41   1 0.00000 0.03820-0.34189-0.72406 0.93973 0.68866
   0  -2   9  823.84  118.74   1-0.80139-0.76492-0.17693-0.55985 0.57136 0.31851
   0   2  -9 1068.50   96.39   1-0.78534-0.82500 0.05136 0.43312-0.61691-0.36299
   0   2  -819699.59  496.05   1 0.00000-0.05508-0.73734-0.39828 0.67551 0.91560
   0  -2   822771.87  588.57   1 0.00000 0.05508-0.39232-0.73138 0.91982 0.67973
   0  -2   820008.11  558.77   1-0.80404-0.75388-0.24438-0.58424 0.54203 0.30052
   0   2  -820721.53  485.29   1-0.78637-0.83937 0.05702 0.39572-0.61511-0.37262
   0   2  -7287535.0 3220.20   1 0.00000-0.06837-0.75284-0.45679 0.65819 0.88694
   0  -2   7303912.4 3288.24   1 0.00000 0.06837-0.44690-0.74295 0.89458 0.66583
   0  -2   7262551.7 2982.66   1-0.80175-0.73790-0.31957-0.61638 0.50504 0.27489
   0   2  -7281735.5 3007.73   1-0.78660-0.85295 0.05832 0.35395-0.61469-0.38364
   0   2  -6168993.9 2184.42   1 0.00000-0.08165-0.77549-0.52245 0.63135 0.84874
   0  -2   6179756.8 2157.33   1 0.00000 0.08165-0.50729-0.76033 0.86177 0.64438
   0  -2   6173006.3 2248.74   1-0.79207-0.71453-0.40372-0.65749 0.45784 0.23904
   0   2  -6175316.9 2048.86   1-0.78574-0.86544 0.05354 0.30611-0.61622-0.39661
   0   2  -521640.90  764.45   1 0.00000-0.09494-0.80694-0.59692 0.59062 0.79666
   0  -2   521084.03  727.03   1 0.00000 0.09494-0.57505-0.78507 0.81811 0.61207
   0   2  -523355.98  500.30   1-0.78318-0.87622 0.03991 0.24941-0.62050-0.41232
   0   2  -444377.95  915.87   1 0.00000-0.10823-0.84865-0.68164 0.52895 0.72363
   0  -2   444957.70  891.04   1 0.00000 0.10823-0.65190-0.81891 0.75829 0.56361
   0   2  -444690.69  820.83   1-0.77756-0.88395 0.01259 0.17903-0.62867-0.43193
   0   2  -315285.86  600.77   1 0.00000-0.12151-0.90038-0.77638 0.43510 0.61843
   0  -2   314057.00  558.31   1 0.00000 0.12151-0.73900-0.86300 0.67369 0.49036
   0   2  -316334.61  586.27   1-0.76559-0.88533-0.03735 0.08602-0.64223-0.45693
   0  -2   255945.03 1008.75   1 0.00000 0.13480-0.83458-0.91556 0.55088 0.37889
   0  -2   256909.10 1151.17   1 0.00000 0.13281 0.95560 0.87384-0.29466-0.46770
   0   2  -258769.10 1004.16   1-0.73821-0.87129-0.12812-0.04780-0.66228-0.48841
   0  -2   1241226.2 3367.39   1 0.00000 0.14641 0.99623 0.95751-0.08665-0.24845
   0   2  -1244525.2 3330.48   1 0.00000-0.14641 0.92751 0.96624-0.37377-0.21197
   0   2  -1249528.8 3248.38   1-0.66602-0.81245-0.29922-0.26197-0.68328-0.52085
   0  -2  -2511443.6 6380.37   1 0.00000 0.18738 0.69244 0.78278 0.72146 0.59340
   0   2   2502995.0 6361.13   1 0.00000-0.18738 0.91194 0.82160 0.41031 0.53837
   0  -2  -314591.08  572.25   1 0.00000 0.20100 0.49297 0.62632 0.87004 0.75320
   0   2   315026.79  627.80   1 0.00000-0.20100 0.79772 0.66438 0.60302 0.71985
   0  -2  -314277.90  606.85   1-0.31619-0.11532 0.73412 0.86767 0.60090 0.48357
   0   2   315788.05  788.29   1-0.10803-0.30898 0.86403 0.73049 0.49170 0.60901
   0  -2  -415280.67  649.25   1 0.00000 0.21555 0.31210 0.48784 0.95004 0.84590
   0   2   415265.90  638.98   1 0.00000-0.21462 0.68609 0.50973 0.72751 0.83312
   0  -2  -414899.51  729.00   1-0.41836-0.20381 0.64285 0.81951 0.64165 0.53558
   0   2   415842.96  729.27   1-0.19763-0.41226 0.81642 0.63976 0.54258 0.64863
   0  -2  -521236.25  761.00   1 0.00000 0.22919 0.16933 0.38798 0.98555 0.89271
   0   2   521388.97  760.05   1 0.00000-0.22823 0.59467 0.37531 0.80396 0.89835
   0  -2  -519273.20  795.28   1-0.49800-0.26978 0.55553 0.77531 0.66586 0.57105
   0   2   520323.66  817.99   1-0.26478-0.49301 0.77266 0.55288 0.57695 0.67175
   0  -2  -6  157.92   78.58   1 0.00000 0.24283 0.05505 0.31662 0.99848 0.91694
   0   2   6    6.99   77.11   1 0.00000-0.24185 0.52553 0.26315 0.85077 0.93394
   0  -2  -6  154.02  107.83   1-0.55999-0.31809 0.47497 0.73787 0.67882 0.59528
   0   2   6   60.26  120.67   1-0.31415-0.55605 0.73574 0.47284 0.59999 0.68353
   0  -2  -7319509.9 3612.40   1 0.00000 0.25647-0.03783 0.26664 0.99928 0.92904
   0   2   7295625.7 3338.26   1 0.00000-0.25546 0.47531 0.16993 0.87981 0.95176
   0  -2  -7282013.5 3417.09   1-0.60861-0.35304 0.40167 0.70768 0.68427 0.61199
   0   2   7283721.1 3559.31   1-0.35013-0.60570 0.70608 0.40007 0.61550 0.68779
   0  -2  -8214007.0 2897.88   1 0.00000 0.27011-0.11518 0.23221 0.99334 0.93440
   0   2   8238704.7 3295.46   1 0.00000-0.26908 0.43993 0.09154 0.89802 0.95875
   0  -2  -8212965.7 2982.51   1-0.64722-0.37797 0.33510 0.68423 0.68469 0.62366
   0   2   8228042.0 3340.08   1-0.37607-0.64532 0.68317 0.33404 0.62597 0.68700
   0  -2  -956658.73 1082.20   1 0.00000 0.28376-0.18118 0.20913 0.98344 0.93581
   0   2   963305.93 1215.46   1 0.00000-0.28270 0.41594 0.02454 0.90938 0.95889
   0  -2  -962065.37 1285.59   1-0.67825-0.39533 0.27439 0.66664 0.68166 0.63189
   0   2   967174.49 1427.39   1-0.39443-0.67735 0.66613 0.27388 0.63299 0.68276
   0  -2 -1014140.25  434.63   1 0.00000 0.29740-0.23877 0.19445 0.97107 0.93474
   0   2  1014257.25  505.53   1 0.00000-0.29740 0.39719-0.03604 0.91773 0.95407
   0  -2 -1014946.41  584.02   1-0.70397-0.40740 0.21751 0.65256 0.67609 0.63889
   0   2  1015205.88  580.03   1-0.40697-0.70358 0.65408 0.21871 0.63760 0.67611
   0  -2 -1118648.10  530.98   1 0.00000 0.31104-0.29001 0.18613 0.95702 0.93198
   0   2  1118090.58  657.00   1 0.00000-0.31104 0.38876-0.08737 0.92133 0.94637
   0  -2 -1115800.12  482.66   1-0.72461-0.41434 0.16598 0.64408 0.66886 0.64301
   0   2  1119435.17  690.13   1-0.41499-0.72527 0.64620 0.16772 0.64046 0.66772
   0  -2 -1117328.37  429.56   1-0.79827-0.49169 0.14120 0.62072-0.58551-0.61069
   0   2  12 4273.15  293.63   1 0.00000-0.32468 0.38567-0.13339 0.92263 0.93636
   0  -2 -12 4852.04  276.40   1-0.74165-0.41769 0.11793 0.63908 0.66033 0.64583
   0   2  12 4909.06  324.17   1-0.41940-0.74335 0.64181 0.12021 0.64201 0.65800
   0  -2 -12 4724.02  237.98   1-0.79479-0.47486 0.11148 0.63406-0.59655-0.61029
   0  -2 -13  240.16   92.60   1 0.00000 0.33407-0.37823 0.18599 0.92571 0.92401
   0   2  13  349.69  103.51   1 0.00000-0.33833 0.38682-0.17515 0.92215 0.92458
   0  -2 -13  316.82  100.43   1-0.75577-0.41813 0.07278 0.63698 0.65077 0.64762
   0   2  13  232.74  122.34   1-0.42087-0.75850 0.64032 0.07561 0.64252 0.64726
   0  -2 -13  277.05   56.39   1-0.79061-0.45734 0.08234 0.64798-0.60675-0.60905
   0  -2 -14 5926.53  286.76   1 0.00000 0.34736-0.41749 0.18974 0.90868 0.91833
   0   2  14 6035.52  447.98   1 0.00000-0.35197 0.39141-0.21347 0.92021 0.91134
   0  -2 -14 6398.10  307.98   1-0.76747-0.41614 0.03007 0.63732 0.64037 0.64857
   0   2  14 5632.83  317.47   1-0.41992-0.77123 0.64128 0.03345 0.64219 0.63567
   0  -2 -14 6015.85  252.56   1-0.78574-0.43912 0.05356 0.66227-0.61622-0.60709
   0  -2 -1514596.88  534.68   1 0.00000 0.36064-0.45425 0.19599 0.89087 0.91187
   0   2  1513250.45  562.03   1 0.00000-0.36561 0.39883-0.24897 0.91702 0.89684
   0  -2 -1514325.29  540.46   1-0.77712-0.41210-0.01059 0.63970 0.62925 0.64880
   0   2  1511613.28  564.33   1-0.41692-0.78190 0.64428-0.00666 0.64114 0.62336
   0  -2 -1513080.99  454.77   1-0.78020-0.42023 0.02500 0.67677-0.62502-0.60446
   0  -2 -1616908.82  651.40   1 0.00000 0.37393-0.48894 0.20431 0.87231 0.90467
   0   2  1613521.87  610.13   1 0.00000-0.37801 0.41178-0.28067 0.91127 0.88222
   0  -2 -1615828.72  637.68   1-0.78500-0.40629-0.04953 0.64381 0.61749 0.64840
   0  -2 -1612574.95  528.67   1-0.77395-0.40064-0.00345 0.69138-0.63322-0.60122
   0  -2 -17 6950.93  294.67   1 0.00000 0.38722-0.52189 0.21437 0.85300 0.89671
   0   2  17 4905.16  338.93   1 0.00000-0.39163 0.42350-0.31196 0.90589 0.86562
   0  -2 -17 5877.30  354.94   1-0.79133-0.39892-0.08700 0.64939 0.60516 0.64741
   0  -2 -17 5341.69  249.10   1-0.76701-0.38035-0.03189 0.70600-0.64084-0.59739
   0  -2 -18 4629.34  269.61   1 0.00000 0.40050-0.55336 0.22593 0.83294 0.88800
   0  -2 -18 4651.06  336.75   1-0.79626-0.39016-0.12323 0.65621 0.59226 0.64586
   0  -2 -19 4291.95  264.09   1 0.00000 0.41379-0.58353 0.23876 0.81208 0.87850
   0   3 -18  981.23  175.41   1 0.00000-0.00292-0.82148-0.05479 0.57023 0.99849
   0   3 -17  885.18  121.96   1 0.00000-0.01620-0.81551-0.09184 0.57873 0.99564
   0   3 -16 2823.66  214.15   1 0.00000-0.02949-0.81065-0.13000 0.58552 0.99107
   0   3 -15 9953.05  449.69   1 0.00000-0.04277-0.80710-0.16946 0.59040 0.98460
   0  -3  15 8525.00  390.63   1 0.00000 0.03683-0.16718-0.80482 0.98592 0.59236
   0  -3  15 8364.87  444.02   1-0.77280-0.73863 0.00837-0.63058 0.63458 0.23828
   0   3 -15 8117.61  318.76   1-0.75278-0.79224-0.08287 0.55436-0.65303-0.25498
   0   3 -14  115.79   70.40   1 0.00000-0.05606-0.80509-0.21046 0.59314 0.97599
   0  -3  14  114.03  104.44   1 0.00000 0.05048-0.20654-0.80125 0.97843 0.59618
   0  -3  14   32.97  101.04   1-0.78312-0.73526-0.03959-0.63549 0.62060 0.23565
   0   3 -14  -55.29   75.46   1-0.75672-0.80954-0.06952 0.52464-0.65002-0.26341
   0   3 -13 4275.25  226.82   1 0.00000-0.06934-0.80490-0.25329 0.59340 0.96490
   0  -3  13 3529.13  239.86   1 0.00000 0.06412-0.24709-0.79889 0.96899 0.59803
   0  -3  13 4477.81  293.08   1-0.79182-0.73027-0.09026-0.64311 0.60404 0.23043
   0   3 -13 4420.62  229.17   1-0.76005-0.82621-0.05783 0.49327-0.64727-0.27210
   0   3 -12  481.38  105.42   1 0.00000-0.08263-0.80684-0.29824 0.59076 0.95090
   0  -3  12  451.18  114.81   1 0.00000 0.07776-0.28908-0.79797 0.95730 0.59765
   0  -3  12  530.30  113.73   1-0.79855-0.72331-0.14398-0.65379 0.58444 0.22219
   0   3 -12  417.49   75.35   1-0.76273-0.84224-0.04809 0.45995-0.64491-0.28118
   0   3 -1117427.61  524.21   1 0.00000-0.09591-0.81129-0.34571 0.58463 0.93342
   0  -3  1117744.35  510.48   1 0.00000 0.09140-0.33280-0.79877 0.94299 0.59464
   0  -3  1116020.48  521.41   1-0.80283-0.71390-0.20115-0.66790 0.56123 0.21033
   0   3 -1115436.38  431.55   1-0.76471-0.85757-0.04069 0.42428-0.64308-0.29078
   0   3 -1049410.72  934.75   1 0.00000-0.10920-0.81868-0.39610 0.57424 0.91168
   0  -3  1052569.47  942.35   1 0.00000 0.10920-0.37887-0.80145 0.92544 0.58800
   0  -3  1047021.82  918.84   1-0.80401-0.70139-0.26211-0.68581 0.53372 0.19417
   0   3 -1048288.79  807.39   1-0.76590-0.87210-0.03618 0.38573-0.64193-0.30107
   0   3  -9 7488.62  352.92   1 0.00000-0.12248-0.82947-0.44991 0.55854 0.88463
   0  -3   9 8812.25  362.31   1 0.00000 0.12248-0.42717-0.80673 0.90416 0.57808
   0  -3   9 7470.96  352.26   1-0.80119-0.68488-0.32721-0.70786 0.50102 0.17282
   0   3  -9 7818.99  295.47   1-0.76613-0.88568-0.03527 0.34357-0.64170-0.31228
   0   3  -862093.45 1171.99   1 0.00000-0.13577-0.84416-0.50762 0.53607 0.85081
   0  -3   864831.28 1202.00   1 0.00000 0.13577-0.47840-0.81494 0.87814 0.56340
   0  -3   863491.67 1304.77   1-0.79320-0.66320-0.39661-0.73421 0.46208 0.14523
   0   3  -861393.53 1120.39   1-0.76516-0.89805-0.03899 0.29679-0.64265-0.32466
   0   3  -7 8028.65  451.80   1 0.00000-0.14905-0.86320-0.56966 0.50486 0.80824
   0  -3   7 9279.38  368.22   1 0.00000 0.14905-0.53307-0.82660 0.84607 0.54268
   0   3  -7 7570.45  256.86   1-0.76254-0.90878-0.04879 0.24392-0.64509-0.33854
   0   3  -6 1943.71  154.54   1 0.00000-0.16234-0.88680-0.63628 0.46214 0.75417
   0  -3   6 2298.44  156.73   1 0.00000 0.16234-0.59168-0.84220 0.80616 0.51413
   0   3  -6 2149.74  140.39   1-0.75750-0.91708-0.06683 0.18283-0.64940-0.35429
   0  -3   511951.54  389.41   1 0.00000 0.17563-0.65462-0.86212 0.75595 0.47527
   0  -3   511404.69  422.09   1 0.00000 0.17203 0.91408 0.70541-0.40553-0.68759
   0   3  -511889.10  353.90   1-0.74862-0.92155-0.09638 0.11021-0.65595-0.37228
   0  -3   459134.79 1033.69   1 0.00000 0.18891-0.72186-0.88635 0.69203 0.42270
   0  -3   448576.96  997.75   1 0.00000 0.18561 0.94462 0.77897-0.32814-0.59895
   0   3  -452260.44  889.53   1-0.73315-0.91943-0.14264 0.02088-0.66493-0.39269
   0  -3   389275.46 1299.72   1 0.00000 0.20220-0.79242-0.91389 0.60997 0.35199
   0  -3   391502.50 1481.40   1 0.00000 0.19921 0.97433 0.85170-0.22510-0.48467
   0   3  -395869.69 1365.56   1-0.70542-0.90504-0.21409-0.09362-0.67567-0.41487
   0  -3   216275.45  624.41   1 0.00000 0.21548-0.86334-0.94181 0.50460 0.25798
   0  -3   214808.02  645.50   1 0.00000 0.21282 0.99584 0.91623-0.09110-0.33942
   0   3  -215531.52  598.47   1-0.65282-0.86579-0.32468-0.24728-0.68439-0.43503
   0  -3   1 1513.09  166.29   1 0.00000 0.22642 0.99713 0.96056 0.07566-0.16140
   0   3  -1 1627.38  168.01   1 0.00000-0.22642 0.92797 0.96454-0.37264-0.13557
   0   3  -1 1491.52  156.20   1-0.54531-0.77163-0.49521-0.46087-0.67630-0.43838
   0  -3   0114202.5 1825.45   1 0.00000 0.24003 0.96338 0.96984 0.26811 0.04229
   0   3   0115937.5 1932.74   1 0.00000-0.24003 0.97713 0.97067-0.21263 0.01318
   0  -3   0115184.2 1644.11   1-0.79480-0.55514 0.11155 0.12027-0.59652-0.82301
   0   3   0114998.2 1817.56   1-0.31509-0.55459-0.73499-0.74347-0.60041-0.37371
   0  -3  -141807.43  990.94   1 0.00000 0.25385 0.88419 0.93368 0.46712 0.25258
   0   3   145256.95 1011.05   1 0.00000-0.25363 0.99947 0.94999-0.03240 0.18216
   0  -3  -144563.98 1075.06   1-0.02466 0.22886 0.89791 0.94731 0.43948 0.22410
   0  -3  -145242.05  848.04   1-0.76152-0.50852-0.05251-0.00073-0.64599-0.86104
   0  -3  -211024.35  456.31   1 0.00000 0.26746 0.76339 0.85589 0.64593 0.44262
   0   3   2 9901.44  423.97   1 0.00000-0.26724 0.98846 0.89595 0.15142 0.35474
   0  -3  -2 9669.14  403.53   1-0.13466 0.13254 0.85112 0.94363 0.50740 0.30328
   0  -3  -2 9814.66  342.85   1-0.60683-0.34048-0.40455-0.30970-0.68416-0.88778
   0  -3  -3 1590.00  164.32   1 0.00000 0.28108 0.61849 0.75399 0.78579 0.59370
   0   3   3 1734.79  173.09   1 0.00000-0.28084 0.94758 0.81204 0.31949 0.51157
   0  -3  -3 1358.48  183.41   1-0.23581 0.04497 0.79242 0.92807 0.56253 0.36965
   0  -3  -3 1656.85  179.03   1-0.23938 0.04016-0.79006-0.65233-0.56434-0.75686
   0  -3  -4   57.27   76.83   1 0.00000 0.29469 0.47011 0.64862 0.88260 0.70173
   0   3   4  -51.06   69.60   1 0.00000-0.29469 0.88868 0.71017 0.45851 0.63937
   0  -3  -4  162.46  120.92   1-0.32549-0.03102 0.72665 0.90541 0.60500 0.42338
   0   3   4  -11.52   80.61   1-0.01954-0.31413 0.89967 0.72092 0.43612 0.61773
   0  -3  -5 1566.48  191.59   1 0.00000 0.30968 0.32632 0.54701 0.94525 0.77773
   0   3   5 1715.73  159.50   1 0.00000-0.30831 0.82408 0.60256 0.56646 0.73611
   0  -3  -5 1248.22  173.20   1-0.40305-0.09491 0.65789 0.87977 0.63618 0.46582
   0   3   5 1835.71  230.35   1-0.08456-0.39283 0.87457 0.65270 0.47746 0.64780
   0  -3  -6 6194.76  310.61   1 0.00000 0.32332 0.20381 0.46741 0.97900 0.82279
   0   3   6 5928.82  321.17   1 0.00000-0.32193 0.76283 0.49830 0.64659 0.80501
   0  -3  -6 4667.02  263.02   1-0.46912-0.14730 0.58907 0.85407 0.65796 0.49886
   0   3   6 6394.95  384.02   1-0.13807-0.46002 0.84939 0.58441 0.50937 0.66845
   0  -3  -7 1090.31  125.52   1 0.00000 0.33696 0.09778 0.40430 0.99520 0.85029
   0   3   7 2403.61  219.56   1 0.00000-0.33554 0.70940 0.40185 0.70480 0.85200
   0  -3  -7 1910.00  194.67   1-0.52498-0.18949 0.52201 0.83012 0.67223 0.52438
   0   3   7 2672.46  261.91   1-0.18134-0.51697 0.82596 0.51787 0.53374 0.68157
   0   3   834963.30  882.60   1 0.00000-0.34916 0.66518 0.31463 0.74668 0.88266
   0   3   834900.05  996.80   1-0.21596-0.56513 0.80519 0.45396 0.55229 0.68887
   0  -3  -919750.38  557.29   1 0.00000 0.36425-0.07341 0.31893 0.99730 0.87498
   0   3   916929.55  567.98   1 0.00000-0.36278 0.62994 0.23639 0.77663 0.90139
   0  -3  -914468.01  476.27   1-0.61182-0.24898 0.39645 0.79080 0.68446 0.55914
   0   3   916292.76  576.39   1-0.24307-0.60591 0.78760 0.39326 0.56620 0.69152
   0  -3 -10 3642.04  241.32   1 0.00000 0.37789-0.14342 0.29184 0.98966 0.87864
   0   3  10 2455.12  222.09   1 0.00000-0.37639 0.60280 0.16624 0.79788 0.91142
   0  -3 -10 2131.36  170.79   1-0.64542-0.26889 0.33841 0.77587 0.68476 0.57070
   0   3  10 2535.09  251.93   1-0.26401-0.64054 0.77320 0.33574 0.57657 0.69063
   0  -3 -10 2092.01  151.38   1-0.79760-0.42448 0.13492 0.57428-0.58789-0.70001
   0  -3 -11 1079.70  143.53   1 0.00000 0.39153-0.20572 0.27245 0.97860 0.87889
   0   3  11 1488.41  163.94   1 0.00000-0.39001 0.58267 0.10309 0.81270 0.91501
   0  -3 -11 1553.34  173.18   1-0.67388-0.28369 0.28341 0.76399 0.68231 0.57950
   0   3  11 1535.45  193.33   1-0.27983-0.67002 0.76185 0.28127 0.58417 0.68698
   0  -3 -11 1408.99  114.70   1-0.79384-0.40738 0.10441 0.58683-0.59908-0.69976
   0  -3 -12 2114.95  169.08   1 0.00000 0.40517-0.26183 0.25926 0.96511 0.87670
   0   3  12 2278.01  202.89   1 0.00000-0.40362 0.56850 0.04592 0.82268 0.91377
   0  -3 -12 2674.00  210.19   1-0.69857-0.29478 0.23005 0.75347 0.67754 0.58769
   0   3  12 2834.57  262.56   1-0.29134-0.69521 0.75332 0.22963 0.58959 0.68113
   0  -3 -12 2519.01  189.54   1-0.78939-0.38958 0.07471 0.60020-0.60932-0.69856
   0  -3 -13  215.06  104.19   1 0.00000 0.41882-0.31293 0.25107 0.94977 0.87266
   0   3  13  220.98  132.15   1 0.00000-0.41724 0.55939-0.00620 0.82890 0.90877
   0  -3 -13  455.74  100.16   1-0.71907-0.30159 0.18043 0.74690 0.67109 0.59259
   0   3  13  173.02  188.21   1-0.29923-0.71678 0.74734 0.18053 0.59323 0.67352
   0  -3 -13  390.91   79.20   1-0.78425-0.37109 0.04552 0.61407-0.61876-0.69656
   0  -3 -14 3115.12  223.93   1 0.00000 0.43246-0.35995 0.24697 0.93297 0.86716
   0   3  14 2723.37  258.94   1 0.00000-0.43086 0.55454-0.05405 0.83215 0.90079
   0  -3 -14 2632.60  216.39   1-0.73650-0.30532 0.13310 0.74261 0.66320 0.59606
   0   3  14 2424.70  288.34   1-0.30403-0.73526 0.74365 0.13372 0.59543 0.66445
   0  -3 -14 2414.94  165.33   1-0.77843-0.35192 0.01662 0.62824-0.62750-0.69386
   0  -3 -15  764.78  139.47   1 0.00000 0.44133-0.40257 0.25020 0.91538 0.86175
   0   3  15  151.83  103.97   1 0.00000-0.44447 0.55333-0.09827 0.83295 0.89038
   0  -3 -15   22.45  122.97   1-0.75128-0.30642 0.08778 0.74035 0.65411 0.59831
   0  -3 -15  177.58   78.84   1-0.77191-0.33206-0.01211 0.64257-0.63560-0.69053
   0  -3 -16   10.37   75.82   1 0.00000 0.45462-0.44322 0.25255 0.89640 0.85412
   0   3  16  124.84  121.14   1 0.00000-0.45809 0.55521-0.13940 0.83170 0.87790
   0  -3 -16  181.49   95.34   1-0.76376-0.30521 0.04425 0.73987 0.64396 0.59952
   0  -3 -16   44.03   73.29   1-0.76468-0.31148-0.04081 0.65693-0.64310-0.68659
   0  -3 -17 2578.89  349.41   1 0.00000 0.46790-0.48152 0.25727 0.87643 0.84550
   0  -3 -17 4065.06  276.07   1-0.77422-0.30197 0.00229 0.74097 0.63290 0.59981
   0  -3 -17 2951.81  389.82   1-0.75671-0.29016-0.06957 0.67123-0.65003-0.68208
   0  -3 -18 1124.73  153.78   1 0.00000 0.48119-0.51781 0.26400 0.85549 0.83591
   0  -3 -18 1212.35  170.91   1-0.78286-0.29693-0.03827 0.74344 0.62101 0.59926
   0   4 -18  653.78  124.51   1 0.00000-0.08360-0.87304-0.10888 0.48763 0.99053
   0   4 -17   24.00   93.67   1 0.00000-0.09689-0.87030-0.14915 0.49250 0.98405
   0   4 -16 2307.45  192.23   1 0.00000-0.11017-0.86873-0.19060 0.49527 0.97546
   0   4 -15 4541.12  286.55   1 0.00000-0.12346-0.86850-0.23338 0.49567 0.96451
   0   4 -14 4695.57  248.84   1 0.00000-0.13674-0.86980-0.27769 0.49339 0.95088
   0  -4  14 3456.87  267.55   1 0.00000 0.13097-0.25791-0.85060 0.96616 0.50923
   0  -4  14 4274.05  328.01   1-0.79790-0.67020-0.13767-0.73130 0.58685 0.12655
   0   4 -14 3981.72  266.79   1-0.73508-0.86778-0.13717 0.45409-0.66395-0.20184
   0   4 -13 3957.91  268.29   1 0.00000-0.15003-0.87281-0.32372 0.48804 0.93417
   0  -4  13 4464.80  255.15   1 0.00000 0.14461-0.29898-0.84875 0.95425 0.50862
   0  -4  13 3379.34  264.58   1-0.80228-0.66089-0.19076-0.74135 0.56563 0.11668
   0   4 -13 3633.83  208.29   1-0.73741-0.88346-0.13044 0.41775-0.66271-0.21205
   0   4 -12 1573.05  154.87   1 0.00000-0.16331-0.87776-0.37168 0.47909 0.91388
   0  -4  12 1113.76  156.29   1 0.00000 0.15825-0.34125-0.84810 0.93997 0.50564
   0  -4  12 1945.85  170.54   1-0.80405-0.64897-0.24619-0.75372 0.54119 0.10359
   0   4 -12 1746.32  147.72   1-0.73885-0.89824-0.12625 0.37888-0.66193-0.22270
   0   4 -11  -12.53   92.69   1 0.00000-0.17660-0.88483-0.42176 0.46590 0.88933
   0  -4  11   79.11   71.51   1 0.00000 0.17660-0.38508-0.84815 0.92287 0.49945
   0  -4  11  151.12   81.70   1-0.80269-0.63392-0.30402-0.76850 0.51307 0.08682
   0   4 -11   92.38   74.09   1-0.73924-0.91198-0.12509 0.33698-0.66171-0.23391
   0   4 -10 4048.74  233.16   1 0.00000-0.18988-0.89421-0.47416 0.44763 0.85971
   0  -4  10 4197.17  231.25   1 0.00000 0.18988-0.43042-0.85047 0.90262 0.49055
   0  -4  10 4304.93  281.92   1-0.79760-0.61514-0.36422-0.78565 0.48080 0.06590
   0   4 -10 4125.35  203.95   1-0.73838-0.92447-0.12761 0.29139-0.66219-0.24583
   0  -4   915212.76  441.81   1 0.00000 0.20317-0.47757-0.85461 0.87858 0.47786
   0  -4   918343.66  573.25   1-0.78802-0.59187-0.42664-0.80501 0.44384 0.04028
   0   4  -919017.52  496.87   1-0.73594-0.93537-0.13470 0.24124-0.66350-0.25858
   0  -4   830541.56  692.00   1 0.00000 0.21646-0.52676-0.86079 0.85000 0.46063
   0  -4   827019.06  706.51   1 0.00000 0.21123 0.91970 0.58411-0.39262-0.78370
   0   4  -828399.88  579.39   1-0.73140-0.94418-0.14752 0.18535-0.66579-0.27230
   0  -4   720244.63  500.14   1 0.00000 0.22974-0.57816-0.86917 0.81592 0.43790
   0  -4   718202.55  510.94   1 0.00000 0.22480 0.93603 0.64344-0.35189-0.73173
   0   4  -719190.19  510.52   1-0.72396-0.95008-0.16771 0.12210-0.66914-0.28709
   0  -4   622565.88  644.83   1 0.00000 0.24303-0.63184-0.87984 0.77509 0.40842
   0  -4   620190.15  588.67   1 0.00000 0.23841 0.95393 0.70437-0.30000-0.66859
   0   4  -619853.89  511.59   1-0.71227-0.95174-0.19754 0.04921-0.67353-0.30292
   0  -4   529086.33  696.67   1 0.00000 0.25631-0.68771-0.89269 0.72597 0.37066
   0  -4   530274.61  771.67   1 0.00000 0.25201 0.97208 0.76555-0.23461-0.59195
   0   4  -529310.21  667.83   1-0.69407-0.94689-0.24025-0.03655-0.67862-0.31946
   0  -4   4  917.40  117.59   1 0.00000 0.26960-0.74530-0.90727 0.66672 0.32276
   0  -4   4  392.59  112.28   1 0.00000 0.26562 0.98818 0.82468-0.15325-0.49934
   0   4  -4  462.08   83.76   1-0.66539-0.93156-0.30046-0.13984-0.68334-0.33561
   0  -4   311344.82  384.13   1 0.00000 0.28288-0.80353-0.92249 0.59525 0.26263
   0  -4   310005.84  436.44   1 0.00000 0.27922 0.99855 0.87807-0.05376-0.38860
   0   4  -310368.91  386.13   1-0.61892-0.89843-0.38472-0.26716-0.68477-0.34848
   0  -4   290412.71 1463.53   1 0.00000 0.29617-0.86045-0.93639 0.50952 0.18826
   0  -4   299552.65 1740.99   1 0.00000 0.29283 0.99790 0.92045 0.06472-0.25886
   0   4  -299136.37 1649.23   1-0.54071-0.83357-0.50139-0.42690-0.67544-0.35058
   0  -4   1145811.0 2261.50   1 0.00000 0.30643 0.97970 0.94528 0.20042-0.11191
   0   4  -1146396.4 2234.23   1 0.00000-0.30646 0.91259 0.94697-0.40887-0.09652
   0   4  -1153385.3 2309.53   1-0.40580-0.71178-0.65522-0.62345-0.63718-0.32352
   0  -4   0278847.2 3785.52   1 0.00000 0.32004 0.93765 0.94626 0.34756 0.04647
   0   4   0309993.8 4107.42   1 0.00000-0.32004 0.95598 0.94737-0.29343 0.00765
   0   4   0301830.4 4210.52   1-0.16310-0.48243-0.83618-0.84749-0.52363-0.22137
   0  -4  -1275060.2 3809.48   1 0.00000 0.33392 0.86798 0.91963 0.49658 0.20680
   0   4   1282316.3 3758.62   1 0.00000-0.33364 0.98614 0.93451-0.16587 0.12396
   0  -4  -1281638.4 3987.99   1-0.04206 0.29141 0.89165 0.94314 0.45075 0.15983
   0  -4  -2260235.9 3537.81   1 0.00000 0.34754 0.77272 0.86738 0.63473 0.35617
   0   4   2285505.7 3888.26   1 0.00000-0.34725 0.99948 0.90481-0.03218 0.24641
   0  -4  -2282172.9 3902.87   1-0.12697 0.22018 0.85495 0.94956 0.50291 0.22325
   0  -4  -3 7455.95  386.13   1 0.00000 0.36116 0.65880 0.79647 0.75231 0.48496
   0   4   3 7994.94  363.36   1 0.00000-0.36085 0.99500 0.85731 0.09979 0.36713
   0  -4  -3 8792.70  581.92   1-0.20801 0.15269 0.81012 0.94787 0.54811 0.27968
   0  -4  -4 7355.44  335.08   1 0.00000 0.37477 0.53609 0.71676 0.84416 0.58803
   0   4   4 8108.51  394.84   1 0.00000-0.37446 0.97495 0.79423 0.22241 0.47850
   0  -4  -4 7940.16  391.39   1-0.28349 0.09089 0.75917 0.94003 0.58591 0.32874
   0  -4  -4 7895.56  336.59   1-0.52849-0.15575-0.51748-0.33384-0.67298-0.92967
   0  -4  -5 3649.92  263.37   1 0.00000 0.38839 0.41367 0.63735 0.91042 0.66552
   0   4   5 3538.37  291.74   1 0.00000-0.38807 0.94386 0.72011 0.33033 0.57518
   0  -4  -5 3388.62  286.79   1-0.35238 0.03568 0.70415 0.92813 0.61643 0.37052
   0  -4  -5 3174.59  275.14   1-0.21474 0.17134-0.80595-0.57923-0.55165-0.79694
   0  -4  -6 1829.66  250.89   1 0.00000 0.40381 0.29139 0.55702 0.95660 0.72570
   0   4   6 1571.62  188.75   1 0.00000-0.40200 0.90724 0.64055 0.42060 0.65427
   0  -4  -6 1740.57  212.45   1-0.41431-0.01257 0.64687 0.91397 0.64022 0.40557
   0  -4  -6 1574.85  137.74   1-0.79879-0.39916 0.14633 0.41634-0.58353-0.81689
   0  -4  -712527.04  476.34   1 0.00000 0.41745 0.18463 0.49318 0.98280 0.76321
   0   4   712589.77  451.83   1 0.00000-0.41562 0.86902 0.55932 0.49477 0.71722
   0  -4  -711158.10  429.32   1-0.46939-0.05398 0.58876 0.89898 0.65804 0.43465
   0   4   712165.61  557.31   1-0.04058-0.45617 0.89219 0.58200 0.44981 0.67318
   0  -4  -711395.09  370.68   1-0.79620-0.38323 0.12274 0.43582-0.59244-0.81436
   0   4   869024.82 1076.58   1 0.00000-0.42924 0.83254 0.47984 0.55395 0.76518
   0  -4  -871732.82 1276.86   1-0.51802-0.08893 0.53087 0.88420 0.67068 0.45855
   0   4   872817.23 1269.20   1-0.07664-0.50591 0.87794 0.52463 0.47258 0.68469
   0  -4  -9104996.7 1235.91   1 0.00000 0.44474 0.00233 0.39671 0.99999 0.80300
   0   4   9113578.1 1483.12   1 0.00000-0.44285 0.79968 0.40396 0.60042 0.80043
   0  -4  -9113943.5 1373.95   1-0.56074-0.11798 0.47391 0.87035 0.67894 0.47807
   0   4   9106824.4 1499.02   1-0.10678-0.54973 0.86461 0.46819 0.49094 0.69180
   0  -4  -9107751.3 1199.41   1-0.78928-0.34961 0.07400 0.47321-0.60955-0.80860
   0  -4 -10 4806.04  301.03   1 0.00000 0.45838-0.07488 0.36241 0.99719 0.81150
   0   4  10 4204.06  281.40   1 0.00000-0.45647 0.77131 0.33259 0.63644 0.82523
   0  -4 -10 4015.26  277.45   1-0.59816-0.14172 0.41832 0.85788 0.68352 0.49390
   0   4  10 4016.93  310.09   1-0.13159-0.58823 0.85266 0.41312 0.50561 0.69520
   0  -4 -10 3548.74  192.40   1-0.78491-0.33190 0.04904 0.49131-0.61765-0.80526
   0  -4 -1122576.20  566.12   1 0.00000 0.47202-0.14442 0.33579 0.98951 0.81512
   0   4  1120377.68  623.68   1 0.00000-0.47009 0.74771 0.26597 0.66402 0.84158
   0  -4 -1120976.93  548.87   1-0.63088-0.16076 0.36434 0.84702 0.68501 0.50665
   0   4  1122333.07  748.26   1-0.15169-0.62200 0.84232 0.35966 0.51718 0.69551
   0  -4 -1119410.04  551.54   1-0.77993-0.31357 0.02371 0.50904-0.62541-0.80158
   0  -4 -1211769.08  454.07   1 0.00000 0.48567-0.20746 0.31566 0.97824 0.81515
   0   4  1210124.79  515.88   1 0.00000-0.48370 0.72874 0.20400 0.68478 0.85112
   0  -4 -12 8583.12  415.25   1-0.65944-0.17564 0.31208 0.83788 0.68391 0.51681
   0   4  1210254.37  593.30   1-0.16761-0.65161 0.83370 0.30793 0.52615 0.69323
   0  -4 -12 9119.03  342.81   1-0.77430-0.29459-0.00196 0.52642-0.63281-0.79754
   0  -4 -13   51.04   66.24   1 0.00000 0.49931-0.26504 0.30100 0.96423 0.81245
   0   4  13  -12.18   88.78   1 0.00000-0.49732 0.71413 0.14638 0.70000 0.85512
   0  -4 -13  131.46   92.03   1-0.68434-0.18687 0.26154 0.83046 0.68063 0.52479
   0  -4 -13   63.48   51.43   1-0.76800-0.27495-0.02800 0.54345-0.63983-0.79313
   0  -4 -14 3678.00  244.15   1 0.00000 0.51295-0.31801 0.29095 0.94808 0.80760
   0   4  14 3923.32  372.29   1 0.00000-0.51093 0.70349 0.09273 0.71070 0.85460
   0  -4 -14 4307.84  281.13   1-0.70650-0.19549 0.21152 0.82331 0.67535 0.53285
   0  -4 -14 3456.29  255.51   1-0.76100-0.25461-0.05441 0.56011-0.64645-0.78831
   0  -4 -15 5517.27  293.59   1 0.00000 0.52202-0.36595 0.28933 0.93063 0.80235
   0   4  15 4571.10  341.80   1 0.00000-0.52455 0.69642 0.04265 0.71763 0.85030
   0  -4 -15 4648.54  264.87   1-0.72526-0.20055 0.16426 0.81910 0.66859 0.53744
   0  -4 -15 4702.86  240.66   1-0.75328-0.23354-0.08119 0.57639-0.65266-0.78308
   0  -4 -1611002.95  455.60   1 0.00000 0.53530-0.41151 0.28678 0.91140 0.79448
   0   4  16 8654.14  499.07   1 0.00000-0.53817 0.69254-0.00423 0.72137 0.84282
   0  -4 -1610324.53  441.67   1-0.74147-0.20307 0.11848 0.81637 0.66043 0.54064
   0  -4 -16 8205.12  402.15   1-0.74479-0.21171-0.10836 0.59228-0.65842-0.77741
   0  -5  16 3426.90  262.13   1 0.00000 0.18243 0.91777 0.24010-0.39710-0.95345
   0  -5  15 3559.62  329.59   1 0.00000 0.19603 0.91943 0.28480-0.39323-0.93832
   0  -5  14  310.63  121.44   1 0.00000 0.20963 0.92237 0.33077-0.38628-0.92013
   0  -5  13 4491.39  331.45   1 0.00000 0.22510-0.32959-0.87733 0.94412 0.42381
   0  -5  13 7428.04  456.68   1 0.00000 0.22318 0.92667 0.37806-0.37586-0.89847
   0   5 -13 5952.46  359.41   1-0.70558-0.93151-0.21372 0.33156-0.67563-0.14946
   0  -5  12  280.96  106.63   1 0.00000 0.24400-0.37090-0.87446 0.92866 0.41924
   0  -5  12   15.37  123.69   1 0.00000 0.23679 0.93239 0.42682-0.36142-0.87278
   0  -5  12  -43.82   99.67   1-0.80182-0.56690-0.31848-0.82374 0.50561-0.00733
   0   5 -12  -11.21   71.02   1-0.70498-0.94426-0.21514 0.28708-0.67580-0.16107
   0  -5  11 2376.48  205.45   1 0.00000 0.25728-0.41331-0.87386 0.91058 0.41251
   0  -5  11 2777.10  222.64   1 0.00000 0.25039 0.93956 0.47701-0.34236-0.84247
   0  -5  11 2556.74  220.51   1-0.79640-0.54779-0.37398-0.83619 0.47526-0.02633
   0   5 -11 2503.03  207.31   1-0.70283-0.95546-0.22019 0.23897-0.67641-0.17312
   0  -5  10 8831.18  395.58   1 0.00000 0.27057-0.45683-0.87436 0.88955 0.40283
   0  -5  10 7559.76  348.14   1 0.00000 0.26400 0.94811 0.52859-0.31792-0.80677
   0  -5  10 6682.61  331.47   1-0.78726-0.52497-0.43055-0.84971 0.44139-0.04885
   0   5 -10 7238.73  314.74   1-0.69878-0.96475-0.22959 0.18651-0.67749-0.18564
   0  -5   9 3077.08  219.35   1 0.00000 0.28386-0.50156-0.87607 0.86512 0.38975
   0  -5   9 3297.67  228.46   1 0.00000 0.27760 0.95787 0.58137-0.28720-0.76481
   0   5  -9 3133.55  192.66   1-0.69226-0.97158-0.24429 0.12874-0.67903-0.19862
   0  -5   817555.77  529.07   1 0.00000 0.29714-0.54756-0.87906 0.83676 0.37274
   0  -5   816645.66  503.38   1 0.00000 0.29121 0.96846 0.63499-0.24916-0.71552
   0   5  -817324.81  477.58   1-0.68247-0.97514-0.26552 0.06444-0.68097-0.21199
   0  -5   7 1877.14  160.17   1 0.00000 0.31042-0.59486-0.88335 0.80382 0.35116
   0  -5   7 2070.75  183.00   1 0.00000 0.30481 0.97925 0.68881-0.20262-0.65773
   0   5  -7 2336.98  190.43   1-0.66819-0.97421-0.29490-0.00799-0.68303-0.22549
   0  -5   6  113.99   86.38   1 0.00000 0.32371-0.64339-0.88886 0.76553 0.32422
   0  -5   6  120.02   80.60   1 0.00000 0.31842 0.98923 0.74182-0.14630-0.59016
   0   5  -6   61.92   58.12   1-0.64751-0.96687-0.33456-0.09071-0.68468-0.23857
   0  -5   5  527.13  110.16   1 0.00000 0.33700-0.69292-0.89538 0.72100 0.29105
   0  -5   5  522.48  108.86   1 0.00000 0.33202 0.99687 0.79249-0.07896-0.51157
   0   5  -5  556.44  100.90   1-0.61739-0.95010-0.38727-0.18648-0.68471-0.25005
   0  -5   4 5171.05  271.03   1 0.00000 0.35028-0.74303-0.90248 0.66925 0.25064
   0  -5   4 5073.67  294.89   1 0.00000 0.34563 1.00000 0.83864 0.00040-0.42096
   0   5  -4 5326.69  280.51   1-0.57285-0.91890-0.45656-0.29883-0.68072-0.25749
   0  -5   323618.18  561.04   1 0.00000 0.36357-0.79296-0.90939 0.60926 0.20201
   0  -5   322632.17  627.39   1 0.00000 0.35923 0.99574 0.87741 0.09217-0.31793
   0   5  -323837.36  647.26   1-0.50676-0.86586-0.54489-0.42979-0.66804-0.25602
   0  -5   2 2455.43  175.04   1 0.00000 0.37685-0.84154-0.91496 0.54018 0.14428
   0  -5   2 3010.26  241.93   1 0.00000 0.37284 0.98066 0.90537 0.19567-0.20319
   0   5  -2 3005.02  230.93   1-0.40279-0.77525-0.65813-0.58611-0.63608-0.23546
   0  -5   1  738.06  102.50   1 0.00000 0.39014-0.88712-0.91753 0.46153 0.07698
   0  -5   1 1094.80  156.98   1 0.00000 0.38644 0.95118 0.91891 0.30860-0.07900
   0   5  -1  999.68  129.66   1-0.23733-0.62314-0.79142-0.76248-0.56330-0.17408
   0  -5   037178.21  882.26   1 0.00000 0.40039 0.90412 0.91492 0.42726 0.05100
   0   5   038239.52  853.54   1 0.00000-0.40005 0.92724 0.91648-0.37444 0.00192
   0  -5  -1  935.29  153.34   1 0.00000 0.41400 0.83853 0.89233 0.54485 0.17981
   0   5   1  896.64  130.22   1 0.00000-0.41365 0.96017 0.90638-0.27939 0.08571
   0  -5  -1  622.63  166.30   1-0.07095 0.34247 0.88032 0.93391 0.46904 0.10257
   0  -5  -2  947.99  136.45   1 0.00000 0.42762 0.75539 0.85221 0.65526 0.30145
   0   5   2 1058.19  161.94   1 0.00000-0.42726 0.98385 0.88704-0.17894 0.17492
   0  -5  -2 1031.78  176.25   1-0.13984 0.28726 0.84849 0.94519 0.51039 0.15518
   0  -5  -3 2652.34  247.93   1 0.00000 0.44123 0.65838 0.79820 0.75268 0.41008
   0   5   3 2869.06  204.65   1 0.00000-0.44087 0.99706 0.85722-0.07653 0.26608
   0  -5  -3 2881.70  275.07   1-0.20676 0.23386 0.81089 0.95073 0.54745 0.20347
   0  -5  -4 1147.64  137.72   1 0.00000 0.45485 0.55280 0.73563 0.83330 0.50193
   0   5   4 1294.38  156.44   1 0.00000-0.45447 0.99971 0.81684 0.02390 0.35527
   0  -5  -4 1500.98  175.27   1-0.27068 0.18361 0.76847 0.95143 0.57980 0.24708
   0  -5  -5    1.21   68.78   1 0.00000 0.46847 0.44427 0.67011 0.89589 0.57573
   0   5   5   35.30   85.56   1 0.00000-0.46808 0.99293 0.76702 0.11870 0.43882
   0  -5  -5  -95.62  113.90   1-0.33079 0.13718 0.72232 0.94840 0.60730 0.28584
   0  -5  -6 7120.38  561.43   1 0.00000 0.48430 0.33089 0.59856 0.94366 0.63809
   0   5   610108.87  448.16   1 0.00000-0.48168 0.97874 0.70981 0.20506 0.51394
   0  -5  -6 9866.23  468.87   1-0.38659 0.09506 0.67349 0.94269 0.63003 0.31983
   0  -5  -7  141.76   96.71   1 0.00000 0.49794 0.22852 0.53911 0.97353 0.67926
   0   5   7  186.71   95.94   1 0.00000-0.49529 0.95959 0.64763 0.28138 0.57900
   0  -5  -7  244.85  137.76   1-0.43786 0.05747 0.62292 0.93524 0.64825 0.34931
   0  -5  -7  173.92   72.28   1-0.69770-0.20482-0.23205 0.08394-0.67776-0.97519
   0  -5  -7  154.05   76.80   1-0.39051 0.10213-0.66983-0.35410-0.63152-0.92961
   0  -5  -8 1069.76  138.17   1 0.00000 0.51159 0.13314 0.48665 0.99109 0.70812
   0   5   8  746.31  147.38   1 0.00000-0.50889 0.93781 0.58282 0.34713 0.63350
   0  -5  -8  745.45  163.86   1-0.48457 0.02443 0.57141 0.92684 0.66232 0.37463
   0  -5  -8  523.36   99.86   1-0.72950-0.22329-0.15278 0.20627-0.66669-0.95267
   0  -5  -8  632.94  132.31   1-0.17010 0.33587-0.83232-0.47352-0.52754-0.81422
   0  -5  -9 5234.39  276.94   1 0.00000 0.52523 0.04534 0.44176 0.99897 0.72730
   0   5   9 3505.58  265.61   1 0.00000-0.52293 0.91574 0.51787 0.40175 0.67701
   0  -5  -9 3332.07  282.77   1-0.52685-0.00416 0.51960 0.91815 0.67263 0.39620
   0  -5  -9 3870.70  284.47   1-0.73768-0.21813-0.12966 0.27244-0.66257-0.93711
   0  -5 -10  242.18  113.62   1 0.00000 0.53887-0.03503 0.40430 0.99938 0.73902
   0   5  10   94.45  104.29   1 0.00000-0.53655 0.89415 0.45326 0.44776 0.71180
   0  -5 -10   28.53   79.24   1-0.56493-0.02857 0.46797 0.90963 0.67959 0.41442
   0  -5 -10   64.61   46.71   1-0.73899-0.20609-0.12584 0.31933-0.66185-0.92496
   0  -5 -11 3235.54  263.60   1 0.00000 0.55251-0.10854 0.37370 0.99409 0.74502
   0   5  11 4494.52  350.98   1 0.00000-0.55016 0.87432 0.39042 0.48534 0.73815
   0  -5 -11 5180.09  318.17   1-0.59909-0.04905 0.41686 0.90164 0.68360 0.42969
   0  -5 -11 3746.01  269.13   1-0.73696-0.19071-0.13176 0.35647-0.66296-0.91463
   0  -5 -12  802.26  134.27   1 0.00000 0.56616-0.17590 0.34926 0.98440 0.74664
   0   5  12  964.67  161.37   1 0.00000-0.56378 0.85685 0.32995 0.51555 0.75715
   0  -5 -12 1353.82  164.85   1-0.62962-0.06591 0.36651 0.89441 0.68500 0.44235
   0  -5 -12 1056.95  142.04   1-0.73284-0.17325-0.14351 0.38778-0.66508-0.90532
   0  -5 -13 5178.52  311.34   1 0.00000 0.57980-0.23786 0.33022 0.97129 0.74483
   0   5  13 3996.13  288.69   1 0.00000-0.57740 0.84205 0.27213 0.53939 0.76977
   0  -5 -13 4633.35  346.95   1-0.65683-0.07944 0.31708 0.88809 0.68412 0.45273
   0  -5 -13 4227.44  273.58   1-0.72716-0.15423-0.15914 0.41522-0.66775-0.89655
   0  -5 -14   13.76   75.77   1 0.00000 0.59344-0.29512 0.31587 0.95545 0.74030
   0   5  14    7.53  104.47   1 0.00000-0.59101 0.83001 0.21708 0.55774 0.77689
   0  -5 -14  145.45  158.67   1-0.68099-0.08993 0.26865 0.88278 0.68122 0.46109
   0  -5 -15  842.88  121.46   1 0.00000 0.60708-0.34831 0.30560 0.93737 0.73351
   0   5  15  179.25  140.20   1 0.00000-0.60463 0.82071 0.16478 0.57134 0.77927
   0  -5 -15  473.44  144.78   1-0.70287-0.09832 0.22011 0.87722 0.67640 0.46990
   0  -6  14  773.94  171.58   1 0.00000 0.28959 0.96215 0.37267-0.27248-0.88161
   0  -6  13 7778.19  481.31   1 0.00000 0.30319 0.96625 0.41979-0.25759-0.85547
   0  -6  12 2357.43  233.51   1 0.00000 0.31680 0.97113 0.46770-0.23852-0.82515
   0   6 -12 1920.79  205.61   1-0.65887-0.97804-0.31318 0.18614-0.68396-0.09374
   0  -6  11  -27.88  109.03   1 0.00000 0.33797-0.42189-0.87992 0.90664 0.33393
   0  -6  11  237.39  121.64   1 0.00000 0.33040 0.97667 0.51627-0.21474-0.79012
   0   6 -11  134.53   87.38   1-0.65308-0.98559-0.32419 0.13206-0.68438-0.10559
   0  -6  10 1011.17  164.12   1 0.00000 0.35126-0.46306-0.87807 0.88632 0.32496
   0  -6  10  386.31  135.10   1 0.00000 0.34401 0.98261 0.56524-0.18563-0.74976
   0   6 -10  430.23  111.74   1-0.64451-0.99038-0.34006 0.07313-0.68480-0.11745
   0  -6   920130.79  651.68   1 0.00000 0.36454-0.50496-0.87695 0.86314 0.31313
   0  -6   923774.67  728.34   1 0.00000 0.35761 0.98860 0.61426-0.15053-0.70341
   0   6  -923326.01  773.45   1-0.63238-0.99159-0.36171 0.00841-0.68501-0.12910
   0  -6   8 6737.86  333.01   1 0.00000 0.37783-0.54759-0.87657 0.83674 0.29809
   0  -6   8 5981.76  366.06   1 0.00000 0.37122 0.99407 0.66275-0.10870-0.65034
   0   6  -8 6032.26  339.66   1-0.61554-0.98810-0.39033-0.06326-0.68464-0.14016
   0  -6   7 1067.00  146.23   1 0.00000 0.39111-0.59093-0.87689 0.80672 0.27942
   0  -6   7 1185.31  161.93   1 0.00000 0.38482 0.99823 0.70994-0.05943-0.58981
   0   6  -7 1028.34  121.82   1-0.59234-0.97824-0.42737-0.14336-0.68299-0.14996
   0  -6   6  488.07   90.64   1 0.00000 0.40440-0.63487-0.87782 0.77261 0.25666
   0  -6   6  339.75  143.28   1 0.00000 0.39843 0.99999 0.75474-0.00203-0.52116
   0   6  -6  308.88  108.04   1-0.56027-0.95951-0.47457-0.23363-0.67887-0.15727
   0  -6   5 3963.37  250.18   1 0.00000 0.41768-0.67923-0.87917 0.73392 0.22932
   0  -6   5 3810.70  288.22   1 0.00000 0.41203 0.99795 0.79572 0.06398-0.44390
   0   6  -5 3288.21  243.68   1-0.51655-0.92879-0.53272-0.33428-0.67035-0.15998
   0  -6   4 1392.09  141.28   1 0.00000 0.43097-0.72370-0.88062 0.69011 0.19686
   0  -6   4 2007.72  236.22   1 0.00000 0.42564 0.99032 0.83112 0.13877-0.35785
   0   6  -4 1689.57  166.94   1-0.45356-0.87914-0.60623-0.45087-0.65327-0.15429
   0  -6   3  -13.30   98.87   1 0.00000 0.44425-0.76780-0.88171 0.64068 0.15879
   0  -6   3  -86.11  109.84   1 0.00000 0.43924 0.97505 0.85887 0.22197-0.26341
   0   6  -3    9.71   76.26   1-0.36257-0.80151-0.69526-0.58298-0.62060-0.13302
   0  -6   240199.57  819.52   1 0.00000 0.45754-0.81085-0.88175 0.58524 0.11470
   0  -6   242826.23 1003.49   1 0.00000 0.45285 0.94994 0.87679 0.31242-0.16170
   0   6  -243645.08  912.44   1-0.22789-0.68019-0.79759-0.72839-0.55848-0.08230
   0  -6   120043.58  520.58   1 0.00000 0.47082-0.85198-0.87987 0.52355 0.06437
   0  -6   119671.52  659.97   1 0.00000 0.46685 0.91272 0.88267 0.40857-0.05416
   0  -6   0 9510.62  424.98   1 0.00000 0.48411-0.89009-0.87497 0.45576 0.00793
   0  -6   0 8810.39  395.95   1 0.00000 0.48046 0.86233 0.87529 0.50633 0.05481
   0  -6   0 9338.11  437.68   1-0.04796 0.43173 0.88943 0.90200 0.45453 0.00126
   0  -6  -113433.38  557.75   1 0.00000 0.49408 0.79820 0.85416 0.60238 0.16209
   0   6   112730.54  460.03   1 0.00000-0.49370 0.92373 0.86773-0.38303 0.05736
   0  -6  -113242.08  532.75   1-0.10602 0.38735 0.86497 0.92065 0.49049 0.04847
   0  -6  -247465.63 1129.67   1 0.00000 0.50770 0.72123 0.82020 0.69269 0.26362
   0   6   246347.28  991.46   1 0.00000-0.50727 0.95194 0.85297-0.30626 0.12287
   0  -6  -244443.43 1024.86   1-0.16380 0.34325 0.83579 0.93460 0.52402 0.09326
   0  -6  -3 8397.90  410.57   1 0.00000 0.52131 0.63369 0.77568 0.77358 0.35573
   0   6   3 8882.63  430.11   1 0.00000-0.52088 0.97395 0.83195-0.22675 0.19113
   0  -6  -3 9572.54  451.56   1-0.22046 0.30008 0.80234 0.94429 0.55464 0.13511
   0  -6  -4  629.48  108.56   1 0.00000 0.53493 0.53884 0.72383 0.84240 0.43577
   0   6   4  634.94  118.93   1 0.00000-0.53448 0.98919 0.80417-0.14658 0.26005
   0  -6  -4  760.15  175.06   1-0.27538 0.25884 0.76509 0.95015 0.58206 0.17378
   0   6   5 4092.97  326.53   1 0.00000-0.54809 0.99769 0.76963-0.06790 0.32749
   0  -6  -5 4023.16  322.48   1-0.32793 0.21996 0.72466 0.95284 0.60606 0.20905
   0  -6  -6  123.46   93.18   1 0.00000 0.56479 0.33441 0.60411 0.94242 0.56217
   0   6   6  442.04   99.46   1 0.00000-0.56169 0.99997 0.72889 0.00727 0.39142
   0  -6  -6  451.82  153.58   1-0.37770 0.18387 0.68168 0.95298 0.62660 0.24085
   0  -6  -7   87.46   82.55   1 0.00000 0.57844 0.23729 0.54992 0.97143 0.60248
   0   6   7   -8.37   82.88   1 0.00000-0.57530 0.99700 0.68289 0.07729 0.45019
   0  -6  -7   30.32  117.92   1-0.42440 0.15085 0.63677 0.95118 0.64374 0.26924
   0  -6  -8 2282.50  238.30   1 0.00000 0.59208 0.14468 0.50022 0.98947 0.63183
   0   6   8 1538.80  209.74   1 0.00000-0.58890 0.99000 0.63287 0.14100 0.50265
   0  -6  -8 1555.27  228.49   1-0.46788 0.12104 0.59046 0.94799 0.65759 0.29436
   0  -6  -955371.53 1889.01   1 0.00000 0.60572 0.05761 0.45607 0.99833 0.65199
   0   6   953291.91 1934.20   1 0.00000-0.60251 0.98025 0.58008 0.19776 0.54815
   0  -6  -957975.04 1091.88   1-0.50808 0.09451 0.54326 0.94391 0.66836 0.31638
   0  -6 -10 1828.29  171.64   1 0.00000 0.61936-0.02354 0.41783 0.99972 0.66468
   0   6  10 1446.68  193.65   1 0.00000-0.61612 0.96891 0.52572 0.24737 0.58652
   0  -6 -10 1529.76  163.98   1-0.54505 0.07122 0.49556 0.93932 0.67625 0.33554
   0  -6 -1117879.15  667.06   1 0.00000 0.63301-0.09883 0.38544 0.99510 0.67136
   0   6  1118557.65  712.02   1 0.00000-0.62972 0.95703 0.47080 0.28998 0.61788
   0  -6 -1121629.99  804.54   1-0.57888 0.05107 0.44770 0.93458 0.68150 0.35205
   0  -6 -12 2996.05  422.89   1 0.00000 0.64665-0.16861 0.35858 0.98568 0.67324
   0   6  12 1688.78  325.87   1 0.00000-0.64333 0.94537 0.41612 0.32596 0.64262
   0  -6 -12 2423.35  339.52   1-0.60968 0.03394 0.39994 0.92993 0.68434 0.36614
   0  -6 -13  973.90  135.06   1 0.00000 0.66029-0.23333 0.33678 0.97239 0.67125
   0  -7  12 1296.08  177.00   1 0.00000 0.39681 0.99361 0.49234-0.11278-0.77468
   0  -7  11 5520.49  372.52   1 0.00000 0.41041 0.99633 0.53808-0.08556-0.73622
   0   7 -11 3529.82  307.02   1-0.58704-0.99944-0.43547 0.01788-0.68245-0.02817
   0  -7  10 3146.74  446.07   1 0.00000 0.42402 0.99857 0.58335-0.05334-0.69274
   0   7 -10 2778.89  405.65   1-0.57243-0.99818-0.45717-0.04688-0.68067-0.03782
   0  -7   9 8679.35  413.37   1 0.00000 0.44523-0.49140-0.86087 0.87093 0.24628
   0  -7   913386.49  639.74   1 0.00000 0.43762 0.99987 0.62768-0.01565-0.64380
   0   7  -911792.75  548.51   1-0.55288-0.99197-0.48487-0.11765-0.67765-0.04624
   0  -7   8  901.35  129.55   1 0.00000 0.45851-0.53081-0.85727 0.84749 0.23419
   0  -7   8  676.40  123.98   1 0.00000 0.45123 0.99961 0.67044 0.02793-0.58897
   0   7  -8  685.20  141.25   1-0.52686-0.97930-0.51959-0.19543-0.67263-0.05266
   0  -7   7 1916.42  204.75   1 0.00000 0.47180-0.57054-0.85399 0.82126 0.21932
   0  -7   7 2949.13  252.41   1 0.00000 0.46483 0.99696 0.71083 0.07779-0.52786
   0   7  -7 2625.16  233.97   1-0.49312-0.95849-0.56136-0.27958-0.66460-0.05588
   0  -7   6  122.70   71.18   1 0.00000 0.48508-0.61052-0.85095 0.79199 0.20141
   0  -7   6  112.50  101.16   1 0.00000 0.47844 0.99095 0.74785 0.13418-0.46022
   0   7  -6  139.24   91.80   1-0.44683-0.92555-0.61345-0.37476-0.65116-0.05383
   0  -7   5  111.92   65.54   1 0.00000 0.49837-0.65061-0.84803 0.75940 0.18017
   0  -7   5  281.32  106.12   1 0.00000 0.49204 0.98037 0.78030 0.19712-0.38602
   0   7  -5  311.98  101.63   1-0.38395-0.87602-0.67594-0.48033-0.62902-0.04309
   0  -7   4  410.46  106.10   1 0.00000 0.51165-0.69062-0.84503 0.72320 0.15532
   0  -7   4  531.25  126.27   1 0.00000 0.50565 0.96386 0.80682 0.26637-0.30553
   0   7  -4  587.08  129.71   1-0.29695-0.80237-0.74908-0.59656-0.59218-0.01764
   0  -7   3   -8.58   93.34   1 0.00000 0.52494-0.73027-0.84166 0.68315 0.12662
   0  -7   3  -53.22  120.17   1 0.00000 0.51926 0.93998 0.82596 0.34121-0.21944
   0   7  -3   -2.53   61.42   1-0.17314-0.69191-0.83062-0.72117-0.52922 0.03392
   0  -7   2  803.30  117.68   1 0.00000 0.53822-0.76918-0.83755 0.63903 0.09385
   0  -7   2 1087.51  178.69   1 0.00000 0.53331 0.90704 0.83614 0.42102-0.12818
   0  -7   1  749.66  114.26   1 0.00000 0.55151-0.80685-0.83222 0.59074 0.05691
   0  -7   1 1308.24  183.62   1 0.00000 0.54693 0.86433 0.83644 0.50291-0.03507
   0  -7   1 1123.00  188.96   1-0.04603 0.49992 0.89016 0.86171 0.45330-0.08677
   0  -7   0 8746.14  356.38   1 0.00000 0.56479-0.84272-0.82507 0.53834 0.01586
   0  -7   0 8772.84  464.52   1 0.00000 0.56054 0.81094 0.82606 0.58511 0.05835
   0  -7   010619.53  514.47   1-0.09529 0.46435 0.86985 0.88451 0.48401-0.04480
   0  -7  -1  988.93  151.21   1 0.00000 0.57808-0.87612-0.81546 0.48208-0.02903
   0  -7  -1 1002.68  182.27   1 0.00000 0.57416 0.74686 0.80498 0.66497 0.14943
   0  -7  -1 1341.78  178.32   1-0.14499 0.42833 0.84583 0.90361 0.51336-0.00420
   0  -7  -2   23.39   85.43   1 0.00000 0.58777 0.67287 0.77400 0.73975 0.23543
   0  -7  -2   -4.60  149.99   1-0.19458 0.39242 0.81823 0.91913 0.54094 0.03464
   0   7   3 2570.21  248.30   1 0.00000-0.60089 0.93250 0.78835-0.36116 0.13200
   0  -7  -3 3420.05  297.88   1-0.24348 0.35699 0.78733 0.93138 0.56641 0.07132
   0   7   4  113.54   90.26   1 0.00000-0.61449 0.95444 0.76727-0.29837 0.18353
   0  -7  -4  258.99  155.97   1-0.29129 0.32284 0.75336 0.94052 0.58956 0.10574
   0  -7  -5  546.42  321.37   1 0.00000 0.63164 0.40327 0.63210 0.91507 0.44884
   0   7   5 3674.51  313.15   1 0.00000-0.62810 0.97190 0.74169-0.23537 0.23529
   0  -7  -5 3687.29  341.31   1-0.33756 0.29025 0.71671 0.94699 0.61021 0.13764
   0  -7  -6  369.14  225.62   1 0.00000 0.64529 0.30922 0.58096 0.95098 0.49606
   0   7   6  688.42  167.97   1 0.00000-0.64171 0.98485 0.71161-0.17339 0.28602
   0  -7  -6  843.00  151.92   1-0.38195 0.25954 0.67779 0.95118 0.62825 0.16695
   0  -7  -7 1259.19  272.39   1 0.00000 0.65893 0.21644 0.53110 0.97629 0.53267
   0   7   7 1393.25  232.78   1 0.00000-0.65531 0.99351 0.67725-0.11367 0.33449
   0  -7  -7 1954.73  319.32   1-0.42419 0.23098 0.63698 0.95349 0.64367 0.19362
   0  -7  -8  103.79   87.87   1 0.00000 0.67257 0.12663 0.48421 0.99194 0.55962
   0   7   8  132.88  105.09   1 0.00000-0.66892 0.99835 0.63906-0.05726 0.37965
   0  -7  -8   33.51  163.71   1-0.46410 0.20474 0.59467 0.95430 0.65648 0.21769
   0  -7  -9  218.93   94.21   1 0.00000 0.68621 0.04093 0.44143 0.99916 0.57814
   0  -7  -9  115.48  124.74   1-0.50158 0.18093 0.55120 0.95395 0.66676 0.23924
   0  -8   7   44.40  138.52   1 0.00000 0.54485 0.97772 0.69373 0.20990-0.47102
   0  -8   6   -7.87  122.13   1 0.00000 0.55845 0.96452 0.72356 0.26400-0.40568
   0  -8   5    7.49   74.70   1 0.00000 0.57905-0.60830-0.80320 0.79369 0.13982
   0  -8   5   34.05  118.50   1 0.00000 0.57206 0.94640 0.74847 0.32298-0.33544
   0  -8   4  370.91  114.49   1 0.00000 0.59234-0.64449-0.79638 0.76460 0.12208
   0  -8   4  650.14  165.29   1 0.00000 0.58615 0.92211 0.76735 0.38692-0.25997
   0  -8   3   36.26   72.35   1 0.00000 0.60562-0.68035-0.78921 0.73288 0.10171
   0  -8   3  328.95  144.90   1 0.00000 0.59977 0.89101 0.77926 0.45397-0.18170
   0  -8   2 5089.93  374.98   1 0.00000 0.61891-0.71565-0.78151 0.69845 0.07863
   0  -8   2 6673.48  393.06   1 0.00000 0.61339 0.85203 0.78329 0.52348-0.10098
   0  -8   2 7220.08  511.52   1-0.05834 0.55387 0.88541 0.81593 0.46113-0.16575
   0  -8   1 1028.20  188.06   1 0.00000 0.63219-0.75016-0.77300 0.66125 0.05278
   0  -8   1 1180.86  267.05   1-0.10054 0.52536 0.86748 0.84112 0.48719-0.12843
   0  -8   0  212.47   86.95   1 0.00000 0.64548-0.78356-0.76339 0.62131 0.02420
   0  -8   0  201.65  107.63   1 0.00000 0.64062 0.74810 0.76538 0.66358 0.06156
   0  -8   0  378.88  173.84   1-0.14347 0.49611 0.84662 0.86338 0.51248-0.09188
   0  -8  -1   -9.15   62.97   1 0.00000 0.65877-0.81549-0.75231 0.57876-0.00700
   0  -8  -1   47.32  104.39   1 0.00000 0.65424 0.68300 0.74328 0.73041 0.13962
   0  -8  -1   38.89  147.48   1-0.18676 0.46651 0.82283 0.88271 0.53670-0.05640
   0  -8  -2 2903.61  431.63   1-0.22994 0.43676 0.79626 0.89929 0.55953-0.02235
   0  -8  -3 -120.97  141.25   1-0.27279 0.40759 0.76696 0.91310 0.58082 0.01018
   0  -8  -4 1681.74  280.32   1-0.31489 0.37917 0.73515 0.92441 0.60032 0.04094
   1  -8  -7  908.56  169.54   1-0.41793 0.35081 0.64328 0.91115 0.64150 0.21615
   1  -8  -6    7.22  168.89   1-0.37777 0.37729 0.68162 0.90638 0.62663 0.19002
   1  -8  -5  846.44  189.38   1-0.33594 0.40544 0.71806 0.89971 0.60952 0.16165
   1  -8  -369494.23 1644.53   1-0.24835 0.46568 0.78404 0.87945 0.56885 0.09846
   1  -8  -299215.95 1798.06   1 0.00000 0.70486-0.73563-0.67953 0.67737 0.20346
   1  -8  -2104994.4 1531.86   1-0.20325 0.49711 0.81303 0.86532 0.54558 0.06393
   1  -8  -1 7726.62  431.83   1 0.00000 0.69158-0.69727-0.68418 0.71680 0.23154
   1  -8  -1 6255.38  367.60   1-0.15787 0.52900 0.83902 0.84815 0.52068 0.02785
   1  -8   0  135.64   73.15   1 0.00000 0.67829-0.65900-0.68892 0.75213 0.25551
   1  -8   0  352.99  148.05   1 0.00000 0.67392 0.75607 0.72283 0.65448 0.15274
   1  -8   0  321.77  175.82   1-0.11249 0.56069 0.86194 0.82796 0.49436-0.00972
   1  -8   1   20.78   62.93   1 0.00000 0.66500-0.62112-0.69406 0.78370 0.27573
   1  -8   1  -44.46   94.29   1 0.00000 0.66030 0.82547 0.74922 0.56444 0.05147
   1  -8   1   27.22  132.28   1-0.06764 0.59186 0.88167 0.80458 0.46697-0.04837
   1  -8   2  637.08  147.14   1 0.00000 0.65172-0.58380-0.69975 0.81189 0.29257
   1  -8   2  961.18  168.77   1 0.00000 0.64669 0.88037 0.76111 0.47428-0.04989
   1  -8   2  909.21  173.56   1-0.02374 0.62208 0.89823 0.77801 0.43888-0.08772
   1  -8   3   98.42   71.91   1 0.00000 0.63843-0.54709-0.70605 0.83707 0.30639
   1  -8   3   61.86  124.88   1 0.00000 0.63307 0.92202 0.75975 0.38714-0.14826
   1  -8   420155.19  749.05   1 0.00000 0.62515-0.51100-0.71298 0.85957 0.31755
   1  -8   427228.65  890.51   1 0.00000 0.61892 0.95250 0.74709 0.30452-0.24244
  -1   8  -426920.45  927.56   1-0.14296-0.76207-0.84688-0.64637-0.51219 0.03786
   1  -8   5 7665.74  489.23   1 0.00000 0.61186-0.47551-0.72050 0.87971 0.32633
   1  -8   5 8191.64  522.66   1 0.00000 0.60531 0.97333 0.72489 0.22940-0.32880
  -1   8  -5 7817.83  462.96   1-0.22587-0.83163-0.79889-0.55530-0.55744 0.00401
   1  -8   6 2963.25  436.03   1 0.00000 0.59858-0.44056-0.72857 0.89772 0.33298
   1  -8   6 2560.47  373.49   1 0.00000 0.59171 0.98684 0.69538 0.16165-0.40781
  -1   8  -6 2532.12  381.89   1-0.29220-0.88461-0.75267-0.46600-0.58999-0.01713
   1  -8   7   69.74  101.10   1 0.00000 0.58529-0.40610-0.73712 0.91382 0.33774
   1  -8   7   25.54  108.62   1 0.00000 0.57810 0.99484 0.66035 0.10142-0.47929
  -1   8  -7   64.77   93.53   1-0.34526-0.92432-0.71023-0.38048-0.61347-0.02922
   1  -8   8  123.99   86.71   1 0.00000 0.57201-0.37207-0.74611 0.92820 0.34076
   1  -8   8  465.07  133.55   1 0.00000 0.56450 0.99882 0.62130 0.04853-0.54343
  -1   8  -8  330.61  127.75   1-0.38772-0.95342-0.67244-0.29961-0.63046-0.03482
   1  -8   9 1686.69  231.65   1 0.00000 0.55089 0.99999 0.57944 0.00259-0.60062
   1  -7 -11 5895.03  362.15   1-0.56267 0.18085 0.47118 0.90942 0.67925 0.37448
   1  -7 -1018297.06  734.80   1 0.00000 0.73259-0.23561 0.15709 0.97184 0.66228
   1  -7 -1025708.94  946.04   1-0.52881 0.20104 0.51707 0.91220 0.67304 0.35702
   1  -7  -9  -11.84   77.19   1 0.00000 0.71895-0.15466 0.19513 0.98796 0.66710
   1  -7  -9  569.28  167.55   1-0.49221 0.22395 0.56243 0.91444 0.66436 0.33708
   1  -7  -8  427.31  126.09   1 0.00000 0.70530-0.06351 0.24336 0.99798 0.66581
  -1   7   8  145.41   84.70   1 0.00000-0.70218 0.99108 0.68230-0.13322 0.20347
   1  -7  -8  129.87  120.27   1-0.45289 0.24960 0.60695 0.91584 0.65306 0.31452
   1  -7  -7  519.55  119.35   1 0.00000 0.69166 0.03858 0.30254 0.99925 0.65579
  -1   7   7  908.64  145.50   1 0.00000-0.68857 0.97768 0.71193-0.21006 0.13789
   1  -7  -7  662.83  163.87   1-0.41089 0.27793 0.65025 0.91602 0.63901 0.28921
   1  -7  -6  827.90  171.89   1 0.00000 0.67802 0.15136 0.37241 0.98847 0.63371
  -1   7   6  719.77  133.37   1 0.00000-0.67496 0.95724 0.73452-0.28926 0.06993
   1  -7  -6  473.08  167.55   1-0.36633 0.30881 0.69193 0.91459 0.62211 0.26105
   1  -7  -5  109.22  106.37   1 0.00000 0.66438 0.27286 0.45099 0.96205 0.59598
  -1   7   5  151.21   85.27   1 0.00000-0.66136 0.92975 0.75006-0.36817 0.00228
   1  -7  -5  159.44  121.39   1-0.31941 0.34205 0.73155 0.91109 0.60233 0.23001
   1  -7  -4 8071.70  364.10   1 0.00000 0.65075-0.89587-0.75626 0.44431 0.06774
   1  -7  -4 7173.28  378.98   1-0.27045 0.37734 0.76864 0.90506 0.57969 0.19611
   1  -7  -316624.38  633.49   1 0.00000 0.63746-0.85626-0.75966 0.51653 0.12861
   1  -7  -318667.99  766.31   1-0.21982 0.41429 0.80275 0.89606 0.55431 0.15947
   1  -7  -2   86.43   80.32   1 0.00000 0.62418-0.81319-0.75961 0.58198 0.18271
   1  -7  -2  260.47   93.08   1 0.00000 0.62107 0.64585 0.69647 0.76345 0.35941
   1  -7  -2  113.64  174.53   1-0.16810 0.45251 0.83343 0.88359 0.52642 0.12040
   1  -7  -1 1093.34  143.01   1 0.00000 0.61089-0.76829-0.75772 0.64009 0.22946
   1  -7  -1  922.68  155.15   1 0.00000 0.60746 0.74622 0.75384 0.66569 0.25042
   1  -7  -1 1135.18  200.34   1-0.11572 0.49120 0.86041 0.86745 0.49628 0.07900
   1  -7   0  132.05   76.26   1 0.00000 0.59760-0.72286-0.75531 0.69098 0.26900
   1  -7   0  244.25  107.51   1 0.00000 0.59384 0.82892 0.79353 0.55935 0.13286
   1  -7   0  319.51  124.16   1-0.06338 0.52986 0.88340 0.84732 0.46430 0.03576
   1  -7   1  278.37   88.52   1 0.00000 0.58432-0.67781-0.75327 0.73523 0.30190
   1  -7   1  330.35  111.68   1 0.00000 0.58022 0.89275 0.81435 0.45054 0.01283
   1  -7   2  823.41  121.24   1 0.00000 0.57103-0.63367-0.75215 0.77359 0.32891
   1  -7   2  762.91  144.42   1 0.00000 0.56612 0.93905 0.81755 0.34377-0.10542
   1  -7   312553.90  461.91   1 0.00000 0.55775-0.59072-0.75221 0.80687 0.35083
   1  -7   314303.01  597.11   1 0.00000 0.55251 0.96961 0.80508 0.24465-0.21579
  -1   7  -313014.03  559.31   1-0.19792-0.75055-0.81624-0.65599-0.54273-0.07963
   1  -7   4  193.71   84.36   1 0.00000 0.54446-0.54904-0.75354 0.83579 0.36840
   1  -7   4  519.45  149.63   1 0.00000 0.53891 0.98797 0.78041 0.15463-0.31705
  -1   7  -4  426.99  107.73   1-0.28529-0.82457-0.75783-0.55449-0.58676-0.11226
   1  -7   5  837.04  113.55   1 0.00000 0.53118-0.50861-0.75612 0.86099 0.38225
   1  -7   5  796.07  139.61   1 0.00000 0.52530 0.99720 0.74661 0.07475-0.40818
  -1   7  -5  851.36  156.15   1-0.35425-0.88017-0.70253-0.45612-0.61720-0.13131
   1  -7   6 1726.02  221.44   1 0.00000 0.51789-0.46933-0.75986 0.88302 0.39293
   1  -7   6 2025.11  223.97   1 0.00000 0.51170 0.99998 0.70637 0.00511-0.48907
  -1   7  -6 1835.17  223.10   1-0.40844-0.92102-0.65264-0.36315-0.63813-0.14085
   1  -7   7 6561.54  367.50   1 0.00000 0.50461-0.43110-0.76464 0.90230 0.40086
   1  -7   7 7885.77  499.12   1 0.00000 0.49809 0.99849 0.66185-0.05477-0.56021
  -1   7  -7 6483.99  428.31   1-0.45099-0.95021-0.60899-0.27641-0.65247-0.14379
   1  -7   8  141.94   90.59   1 0.00000 0.49132-0.39379-0.77034 0.91920 0.40640
   1  -7   8  229.76  135.74   1 0.00000 0.48449 0.99439 0.61472-0.10570-0.62239
  -1   7  -8  230.49  127.73   1-0.48437-0.97024-0.57165-0.19599-0.66226-0.14219
   1  -7   9 3107.22  243.79   1 0.00000 0.47338-0.35702-0.77972 0.93409 0.40980
   1  -7   9 4280.19  284.67   1 0.00000 0.47088 0.98890 0.56620-0.14858-0.67652
  -1   7  -9 3925.05  330.15   1-0.51050-0.98302-0.54028-0.12154-0.66894-0.13747
   1  -7  10 1861.25  288.79   1 0.00000 0.45974-0.32143-0.78704 0.94693 0.41134
   1  -7  10 2066.19  301.60   1 0.00000 0.45728 0.98286 0.51713-0.18431-0.72350
  -1   7 -10 1694.45  303.08   1-0.53047-0.98998-0.51490-0.05367-0.67339-0.13058
   1  -7  11 1133.56  251.78   1 0.00000 0.44367 0.97688 0.46812-0.21376-0.76420
  -1   7 -11  449.77  132.25   1-0.54628-0.99244-0.49390 0.01039-0.67648-0.12223
   1  -7  12   40.32  129.20   1 0.00000 0.43007 0.97134 0.41955-0.23769-0.79938
   1  -6 -14   15.52   72.86   1 0.00000 0.70291-0.45458 0.11264 0.89070 0.70229
   1  -6 -13 4960.36  312.86   1 0.00000 0.68963-0.40545 0.11875 0.91411 0.71435
   1  -6 -13 4062.47  291.00   1-0.63668 0.05427 0.35414 0.87651 0.68498 0.47829
   1  -6 -1210821.43  459.19   1 0.00000 0.67938-0.35306 0.12344 0.93559 0.72332
  -1   6  1213245.01  597.39   1 0.00000-0.67659 0.93119 0.45245 0.36452 0.58095
   1  -6 -1212685.06  579.32   1-0.60801 0.06927 0.40265 0.88191 0.68424 0.46629
   1  -6 -11 3613.69  271.06   1 0.00000 0.66574-0.29243 0.14115 0.95628 0.73270
  -1   6  11 5284.06  347.99   1 0.00000-0.66298 0.94802 0.51230 0.31819 0.54588
   1  -6 -11 5247.64  339.05   1-0.57624 0.08736 0.45160 0.88774 0.68117 0.45196
   1  -6 -11 4634.15  271.15   1-0.79454-0.13465 0.10961 0.54981-0.59722-0.82435
   1  -6 -11 5856.91  346.07   1-0.11135 0.54836-0.86248-0.42242-0.49368-0.72169
  -1   6  1017941.24  765.79   1 0.00000-0.64937 0.96516 0.57248 0.26163 0.50057
   1  -6 -1019894.36  799.18   1-0.54117 0.10875 0.50078 0.89380 0.67553 0.43506
   1  -6 -1016360.12  647.52   1-0.79986-0.15332 0.15782 0.55496-0.57905-0.81762
   1  -6 -1018297.18  782.46   1-0.17797 0.46839-0.82789-0.43091-0.53189-0.77130
   1  -6  -935963.26  880.38   1 0.00000 0.63845-0.14686 0.20089 0.98915 0.74297
  -1   6   940612.82  965.11   1 0.00000-0.63577 0.98103 0.63137 0.19384 0.44402
   1  -6  -943648.00  919.87   1-0.50265 0.13359 0.54990 0.89981 0.66703 0.41530
   1  -6  -943646.89 1111.51   1-0.25745 0.37557-0.77780-0.42390-0.57336-0.82416
   1  -6  -815272.62  557.22   1 0.00000 0.62481-0.05827 0.24656 0.99830 0.74081
  -1   6   813962.62  500.53   1 0.00000-0.62216 0.99344 0.68681 0.11432 0.37575
   1  -6  -815707.90  619.93   1-0.46054 0.16203 0.59860 0.90539 0.65541 0.39242
   1  -6  -815237.43  589.31   1-0.34861 0.27105-0.70739-0.39657-0.61487-0.87707
   1  -6  -7  482.88  101.41   1 0.00000 0.61117 0.04329 0.30522 0.99906 0.73027
  -1   6   7 1317.08  165.70   1 0.00000-0.60856 0.99972 0.73612 0.02359 0.29627
   1  -6  -7  904.94  171.52   1-0.41478 0.19411 0.64640 0.91008 0.64039 0.36614
   1  -6  -7 1076.67  144.70   1-0.44711 0.15920-0.61315-0.34542-0.65124-0.92484
   1  -6  -6 2355.68  245.21   1 0.00000 0.59753 0.15889 0.37790 0.98729 0.70720
  -1   6   6 2400.56  216.96   1 0.00000-0.59495 0.99707 0.77650-0.07640 0.20752
   1  -6  -6 2819.34  278.63   1-0.36541 0.22980 0.69274 0.91330 0.62174 0.33624
   1  -6  -6 2702.24  212.54   1-0.54146 0.05169-0.50039-0.27551-0.67558-0.95990
   1  -6  -5  447.44  166.41   1 0.00000 0.58388 0.28764 0.46373 0.95773 0.66634
  -1   6   5  524.53  111.52   1 0.00000-0.58135 0.98329 0.80574-0.18203 0.11314
   1  -6  -5  500.46  164.85   1-0.31260 0.26894 0.73696 0.91440 0.59930 0.30253
   1  -6  -5  403.01   86.60   1-0.62676-0.04694-0.37145-0.18963-0.68497-0.98073
  -1   6   4 2399.70  196.28   1 0.00000-0.56774 0.95752 0.82300-0.28836 0.01806
   1  -6  -4 2449.69  218.93   1-0.25667 0.31119 0.77833 0.91266 0.57298 0.26495
   1  -6  -4 2136.34  173.71   1-0.69168-0.12521-0.24558-0.10682-0.67916-0.98636
   1  -6  -361595.44 1152.24   1 0.00000 0.55461 0.57122 0.66269 0.82079 0.50322
  -1   6   365487.12 1071.96   1 0.00000-0.55415 0.92081 0.82926-0.38999-0.07231
   1  -6  -361102.86 1154.90   1-0.19819 0.35615 0.81608 0.90726 0.54288 0.22366
   1  -6  -360318.95  873.10   1-0.73543-0.18230-0.13618-0.04048-0.66377-0.98240
   1  -6  -2411896.8 2615.98   1 0.00000 0.54349-0.87528-0.82422 0.48361 0.15898
   1  -6  -2395407.3 2940.17   1 0.00000 0.54100 0.69814 0.74660 0.71595 0.38716
   1  -6  -2412578.9 2437.73   1-0.76299-0.22322-0.04713 0.00549-0.64468-0.97475
   1  -6  -1155635.5 1809.86   1 0.00000 0.52738 0.80595 0.81140 0.59198 0.25196
   1  -6  -1157318.4 1743.79   1-0.07625 0.45072 0.87811 0.88305 0.47233 0.13060
   1  -6  -1157201.2 1327.69   1-0.78009-0.25366 0.02448 0.03404-0.62518-0.96669
   1  -6   0  459.20  110.59   1 0.00000 0.51376 0.88877 0.85121 0.45835 0.10711
   1  -6   0  364.36   71.15   1-0.79075-0.27767 0.08325 0.04975-0.60644-0.95938
   1  -6   1 6322.94  324.77   1 0.00000 0.50363-0.71683-0.79481 0.69724 0.33855
   1  -6   1 6264.07  384.97   1 0.00000 0.49971 0.94596 0.86533 0.32427-0.03839
   1  -6   1 5736.79  238.56   1-0.79739-0.29765 0.13300 0.05643-0.58862-0.95300
  -1   6  -1 6572.08  368.93   1-0.10048-0.59998-0.86751-0.79059-0.48716-0.12241
   1  -6   2  232.51   81.30   1 0.00000 0.49035-0.66476-0.78575 0.74705 0.37700
   1  -6   2   -6.64   67.66   1 0.00000 0.48611 0.97993 0.85627 0.19933-0.17459
  -1   6  -2  102.62  104.80   1-0.22486-0.71101-0.79954-0.67954-0.55692-0.18078
   1  -6   312267.41  471.02   1 0.00000 0.47706-0.61478-0.77878 0.78869 0.40730
   1  -6   310511.55  469.21   1 0.00000 0.47250 0.99617 0.82949 0.08738-0.29778
  -1   6  -310450.76  397.86   1-0.32299-0.79579-0.72867-0.56559-0.60391-0.21637
   1  -6   433718.38  728.38   1 0.00000 0.45890 0.99995 0.79024-0.00968-0.40610
  -1   6  -435709.20  787.02   1-0.39889-0.85834-0.66188-0.45572-0.63465-0.23572
   1  -6   556381.96  911.90   1 0.00000 0.45049-0.52154-0.77158 0.85322 0.44912
   1  -6   560797.40 1263.43   1 0.00000 0.44529 0.99576 0.74302-0.09195-0.49962
  -1   6  -559762.63 1004.98   1-0.45708-0.90317-0.60240-0.35315-0.65436-0.24403
   1  -6   645308.73  785.32   1 0.00000 0.43721-0.47804-0.77109 0.87833 0.46288
   1  -6   641671.92  997.17   1 0.00000 0.43169 0.98702 0.69125-0.16056-0.57948
  -1   6  -641606.53  832.87   1-0.50155-0.93430-0.55124-0.25891-0.66676-0.24504
   1  -6   7  762.04  110.40   1 0.00000 0.42392-0.43631-0.77237 0.89979 0.47299
   1  -6   7   61.91   88.84   1 0.00000 0.41808 0.97614 0.63734-0.21712-0.64729
  -1   6  -7   73.77   72.52   1-0.53507-0.95472-0.50889-0.17394-0.67433-0.24133
   1  -6   8 1450.81  178.53   1 0.00000 0.41064-0.39612-0.77520 0.91819 0.48004
   1  -6   8 1351.09  172.39   1 0.00000 0.40448 0.96471 0.58288-0.26330-0.70472
  -1   6  -8 1137.66  156.84   1-0.56109-0.96740-0.47341-0.09540-0.67900-0.23456
   1  -6   9  801.07  141.64   1 0.00000 0.39289-0.35683-0.78156 0.93416 0.48455
   1  -6   9 2484.19  202.47   1 0.00000 0.39087 0.95373 0.52888-0.30065-0.75332
  -1   6  -9 1766.61  214.82   1-0.58090-0.97386-0.44469-0.02362-0.68175-0.22587
   1  -6  10 3730.31  233.53   1 0.00000 0.37925-0.31927-0.78692 0.94766 0.48674
   1  -6  10 4390.68  323.20   1 0.00000 0.37727 0.94378 0.47590-0.33054-0.79446
   1  -6  10 3156.63  248.21   1-0.78446-0.40875-0.44428-0.91205 0.43269-0.03283
  -1   6 -10 3377.87  282.61   1-0.59586-0.97547-0.42192 0.04221-0.68332-0.21600
   1  -6  11  132.27   87.41   1 0.00000 0.36561-0.28262-0.79318 0.95923 0.48701
   1  -6  11   42.53  125.75   1 0.00000 0.36366 0.93519 0.42429-0.35412-0.82929
  -1   6 -11  -80.54  121.52   1-0.60697-0.97324-0.40432 0.10288-0.68417-0.20542
   1  -6  12 2638.97  241.91   1 0.00000 0.35196-0.24673-0.80021 0.96908 0.48556
   1  -6  12 4118.08  308.62   1 0.00000 0.35005 0.92809 0.37415-0.37234-0.85875
  -1   6 -12 3353.85  296.97   1-0.61501-0.96793-0.39122 0.15904-0.68461-0.19442
   1  -6  1315455.58  562.01   1 0.00000 0.33650 0.92251 0.32559-0.38595-0.88360
   1  -6  14 7391.02  434.75   1 0.00000 0.32289 0.91840 0.27845-0.39564-0.90454
   1  -6  15 1122.84  163.19   1 0.00000 0.30929 0.91567 0.23269-0.40191-0.92205
   1  -5 -15 4856.97  336.49   1 0.00000 0.63551-0.49871 0.10900 0.86676 0.76435
  -1   5  15 3872.65  352.87   1 0.00000-0.63793 0.76325 0.15784 0.64609 0.75374
   1  -5 -15 4736.18  290.20   1-0.70579-0.06767 0.21321 0.81944 0.67556 0.56914
   1  -5 -15 3833.64  232.31   1-0.78868-0.15529 0.07036 0.67992-0.61076-0.71665
   1  -5 -14 1995.95  294.06   1 0.00000 0.62223-0.45747 0.10723 0.88922 0.77545
  -1   5  14 1780.20  312.29   1 0.00000-0.62431 0.77409 0.21168 0.63307 0.75194
   1  -5 -14 1786.95  295.81   1-0.68393-0.05922 0.26241 0.82581 0.68070 0.56083
   1  -5 -14 1564.83  240.54   1-0.79482-0.17478 0.11170 0.67819-0.59647-0.71379
   1  -5 -13 3964.51  264.00   1 0.00000 0.60894-0.41280 0.10889 0.91082 0.78570
  -1   5  13 5522.15  377.11   1 0.00000-0.61070 0.78892 0.26952 0.61448 0.74458
   1  -5 -13 6406.23  444.70   1-0.65966-0.04862 0.31164 0.83192 0.68389 0.55275
   1  -5 -13 4943.83  326.54   1-0.79961-0.19291 0.15493 0.67835-0.58018-0.70895
   1  -5 -1222912.92  571.61   1 0.00000 0.59889-0.36518 0.10929 0.93093 0.79333
  -1   5  1217107.60  713.41   1 0.00000-0.59708 0.80807 0.33168 0.58907 0.73039
   1  -5 -1218418.27  617.30   1-0.63216-0.03480 0.36209 0.83925 0.68501 0.54261
   1  -5 -1138515.07  801.79   1 0.00000 0.58525-0.31030 0.12125 0.95063 0.80173
  -1   5  1133968.21  864.98   1 0.00000-0.58346 0.83171 0.39833 0.55520 0.70774
   1  -5 -1133728.75  742.73   1-0.60109-0.01740 0.41371 0.84775 0.68376 0.53010
  -1   5  1133454.60  875.90   1-0.06180-0.64567 0.88403 0.45002 0.46331 0.61691
   1  -5 -1039848.91  982.84   1 0.00000 0.57160-0.24840 0.14023 0.96865 0.80845
  -1   5  1045377.51 1230.40   1 0.00000-0.56985 0.85972 0.46934 0.51076 0.67452
   1  -5 -1044301.71 1157.77   1-0.56607 0.00393 0.46634 0.85727 0.67976 0.51484
  -1   5  1044868.82 1262.91   1-0.03926-0.60945 0.89268 0.50179 0.44896 0.61381
   1  -5  -9 1564.73  177.43   1 0.00000 0.55796-0.17745 0.16827 0.98412 0.81262
  -1   5   9  278.40  122.36   1 0.00000-0.55623 0.89140 0.54403 0.45320 0.62819
   1  -5  -9  219.16  124.14   1-0.52673 0.02960 0.51976 0.86757 0.67260 0.49643
   1  -5  -8 3026.71  228.55   1 0.00000 0.54432-0.09483 0.20797 0.99549 0.81268
  -1   5   8 1725.37  184.30   1 0.00000-0.54215 0.92465 0.62018 0.38080 0.56695
   1  -5  -8 1860.26  219.71   1-0.48270 0.05995 0.57358 0.87827 0.66181 0.47437
   1  -5  -7 2982.49  223.11   1 0.00000 0.53068 0.00263 0.26252 0.99999 0.80588
  -1   5   7 4425.26  300.10   1 0.00000-0.52855 0.95744 0.69599 0.28862 0.48603
   1  -5  -7 4505.42  289.56   1-0.43368 0.09530 0.62727 0.88884 0.64687 0.44818
   1  -5  -7 4534.01  315.49   1-0.12535 0.40112-0.85575-0.59085-0.50196-0.69998
   1  -5  -613017.48  471.72   1 0.00000 0.51704 0.11829 0.33526 0.99297 0.78756
  -1   5   612727.03  468.35   1 0.00000-0.51494 0.98433 0.76591 0.17632 0.38497
   1  -5  -613943.31  574.28   1-0.37946 0.13584 0.68008 0.89853 0.62729 0.41734
   1  -5  -612314.31  442.52   1-0.23277 0.28035-0.79442-0.57260-0.56098-0.77040
   1  -5  -5 9069.11  503.73   1 0.00000 0.50339 0.25425 0.42831 0.96713 0.75042
  -1   5   5 6622.01  354.26   1 0.00000-0.50133 0.99896 0.82357 0.04538 0.26528
   1  -5  -5 7438.73  367.49   1-0.32003 0.18159 0.73105 0.90640 0.60260 0.38139
   1  -5  -5 7032.42  384.15   1-0.34997 0.14979-0.70621-0.52748-0.61544-0.83625
  -1   5   433455.78  836.73   1 0.00000-0.48773 0.99516 0.86280-0.09818 0.13297
   1  -5  -433363.74  835.74   1-0.25564 0.23231 0.77905 0.91127 0.57247 0.33999
   1  -5  -431256.26  702.98   1-0.46591 0.02050-0.59266-0.45700-0.65701-0.88922
   1  -5  -318040.48  631.82   1 0.00000 0.47453 0.57867 0.66798 0.81555 0.57324
  -1   5   320135.11  623.58   1 0.00000-0.47413 0.96978 0.88045-0.24394-0.00153
   1  -5  -317259.73  583.81   1-0.18692 0.28747 0.82274 0.91183 0.53679 0.29312
   1  -5  -316835.85  526.83   1-0.56593-0.09270-0.46655-0.37376-0.67974-0.92287
   1  -5  -2 3583.65  260.86   1 0.00000 0.46092 0.73013 0.77643 0.68330 0.42976
  -1   5   2 3556.23  242.88   1 0.00000-0.46053 0.92494 0.87859-0.38009-0.12643
   1  -5  -2 3296.92  287.44   1-0.11477 0.34594 0.86086 0.90683 0.49571 0.24078
   1  -5  -2 3583.43  200.28   1-0.64559-0.18570-0.33810-0.28838-0.68476-0.93933
   1  -5  -111381.40  420.17   1 0.00000 0.44952-0.86659-0.86107 0.49900 0.23765
   1  -5  -110423.75  440.45   1 0.00000 0.44730 0.85363 0.85692 0.52087 0.25611
   1  -5  -110284.56  508.57   1-0.04061 0.40641 0.89219 0.89504 0.44982 0.18363
   1  -5  -110319.84  345.87   1-0.70228-0.25575-0.22147-0.21481-0.67656-0.94257
   1  -5   0  138.33   68.12   1 0.00000 0.43623-0.80147-0.83896 0.59803 0.32533
   1  -5   0  151.57   91.14   1 0.00000 0.43331 0.93829 0.89854 0.34583 0.06968
   1  -5   0  200.74   67.02   1-0.74051-0.30732-0.12133-0.15774-0.66099-0.93843
   1  -5   1  650.57  102.76   1 0.00000 0.42295-0.73605-0.81655 0.67692 0.39287
   1  -5   1  772.57  123.94   1 0.00000 0.41970 0.98390 0.90112 0.17869-0.10870
   1  -5   1  687.92   85.78   1-0.76568-0.34583-0.03701-0.11648-0.64215-0.93103
  -1   5  -1  588.22  104.47   1-0.21671-0.63638-0.80471-0.72496-0.55269-0.26350
   1  -5   2 8415.53  339.35   1 0.00000 0.40966-0.67349-0.79701 0.73919 0.44378
   1  -5   2 8029.08  428.50   1 0.00000 0.40610 0.99952 0.87371 0.03088-0.26776
   1  -5   2 7644.02  272.78   1-0.78206-0.37556 0.03420-0.08832-0.62225-0.92257
  -1   5  -2 7469.96  342.71   1-0.33501-0.74132-0.71884-0.59601-0.60912-0.30854
   1  -5   3 3548.78  230.47   1 0.00000 0.39638-0.61498-0.78151 0.78853 0.48178
   1  -5   3 3738.29  254.78   1 0.00000 0.39249 0.99567 0.82683-0.09294-0.40284
   1  -5   3 3968.14  195.44   1-0.79255-0.39940 0.09524-0.07035-0.60231-0.91407
  -1   5  -3 4117.51  262.82   1-0.42454-0.81750-0.63662-0.47071-0.64379-0.33182
   1  -5   4  221.83   76.43   1 0.00000 0.38309-0.56064-0.77018 0.82805 0.50994
   1  -5   4  138.28  119.87   1 0.00000 0.37889 0.98114 0.76927-0.19329-0.51444
   1  -5   4  105.01   45.23   1-0.79900-0.41919 0.14849-0.06017-0.58270-0.90589
  -1   5  -4   62.16   58.10   1-0.49102-0.87063-0.56385-0.35485-0.66405-0.34068
   1  -5   5 1644.81  142.52   1 0.00000 0.36981-0.51010-0.76265 0.86011 0.53065
   1  -5   5 1536.64  164.19   1 0.00000 0.36528 0.96200 0.70711-0.27304-0.60544
  -1   5  -5 1612.34  155.52   1-0.53957-0.90603-0.50292-0.25120-0.67522-0.34058
   1  -5   6 5606.58  258.34   1 0.00000 0.35652-0.46283-0.75840 0.88644 0.54563
   1  -5   6 4319.61  252.59   1 0.00000 0.35168 0.94196 0.64404-0.33570-0.67935
  -1   5  -6 4503.02  268.54   1-0.57584-0.92895-0.45218-0.15739-0.68112-0.33505
   1  -5   728810.93  606.23   1 0.00000 0.34323-0.41831-0.75690 0.90830 0.55613
   1  -5   725302.96  599.01   1 0.00000 0.33810 0.92311 0.58221-0.38451-0.73940
  -1   5  -725789.35  588.14   1-0.60261-0.94238-0.41129-0.07344-0.68387-0.32636
   1  -5   8 8634.00  375.69   1 0.00000 0.32995-0.37608-0.75768 0.92658 0.56306
  -1   5  -8 9097.00  345.02   1-0.62235-0.94877-0.37895 0.00195-0.68488-0.31593
  -1   5  -9 2724.58  216.06   1 0.00000-0.31667-0.89307-0.46846 0.44991 0.82478
   1  -5   9 1918.18  157.74   1 0.00000 0.31240-0.33527-0.76204 0.94212 0.56718
  -1   5  -9 2284.50  171.52   1-0.63682-0.94989-0.35390 0.07007-0.68498-0.30460
  -1   5 -10 2723.16  253.70   1 0.00000-0.30338-0.88158-0.41395 0.47203 0.85825
   1  -5  10 2520.96  213.42   1 0.00000 0.29876-0.29665-0.76633 0.95498 0.56874
   1  -5  10 2796.90  262.94   1-0.79357-0.49770-0.39420-0.86424 0.46351 0.07333
  -1   5 -10 2573.17  186.32   1-0.64726-0.94699-0.33503 0.13201-0.68469-0.29287
  -1   5 -11 6124.00  349.73   1 0.00000-0.29010-0.87267-0.36203 0.48829 0.88587
   1  -5  11 5982.97  338.35   1 0.00000 0.28512-0.25927-0.77186 0.96580 0.56826
   1  -5  11 5071.12  311.22   1-0.80039-0.51821-0.33695-0.85003 0.49581 0.09428
  -1   5 -11 5384.23  285.32   1-0.65457-0.94095-0.32138 0.18873-0.68428-0.28102
  -1   5 -12 1732.98  225.27   1 0.00000-0.27681-0.86616-0.31251 0.49976 0.90868
   1  -5  12 1968.40  174.02   1 0.00000 0.27147-0.22291-0.77842 0.97483 0.56599
   1  -5  12 1159.72  182.85   1-0.80363-0.53514-0.28121-0.83735 0.52449 0.11161
  -1   5 -12 1250.47  174.04   1-0.65939-0.93243-0.31217 0.24100-0.68391-0.26922
  -1   5 -1311300.11  444.54   1 0.00000-0.26352-0.86181-0.26515 0.50721 0.92749
   1  -5  13 7763.95  376.61   1 0.00000 0.25783-0.18739-0.78582 0.98228 0.56214
  -1   5 -1310986.25  404.39   1-0.66219-0.92188-0.30675 0.28948-0.68366-0.25753
  -1   5 -14 3737.19  292.24   1 0.00000-0.25024-0.85940-0.21972 0.51128 0.94292
  -1   5 -15 3082.71  266.17   1 0.00000-0.23695-0.85871-0.17601 0.51245 0.95544
  -1   5 -16  164.77  116.99   1 0.00000-0.22367-0.85952-0.13381 0.51109 0.96543
  -1   5 -17  208.98  100.40   1 0.00000-0.21038-0.86164-0.09292 0.50750 0.97319
   1  -4 -17   11.33   75.29   1 0.00000 0.58140-0.58419 0.10703 0.81161 0.80654
   1  -4 -17  104.56  124.52   1-0.75972-0.17406 0.05902 0.74909 0.64756 0.63919
   1  -4 -17    0.73   70.62   1-0.78751-0.20732 0.06350 0.75627-0.61301-0.62053
   1  -4 -16 2643.41  360.85   1 0.00000 0.56811-0.55214 0.09606 0.83374 0.81732
  -1   4  16 2157.31  357.36   1 0.00000-0.57147 0.60230-0.04396 0.79826 0.81944
   1  -4 -16 2499.36  356.92   1-0.74643-0.17447 0.10327 0.75029 0.65739 0.63766
   1  -4 -16 1911.49  262.18   1-0.79358-0.22673 0.10246 0.75217-0.59977-0.61872
   1  -4 -15  178.68   77.98   1 0.00000 0.55483-0.51831 0.08688 0.85518 0.82741
  -1   4  15  251.07  120.59   1 0.00000-0.55785 0.60326 0.00000 0.79754 0.82993
   1  -4 -15  342.80   92.28   1-0.73086-0.17258 0.14904 0.75300 0.66605 0.63497
   1  -4 -15  251.45   77.15   1-0.79841-0.24491 0.14257 0.74921-0.58498-0.61537
   1  -4 -14  365.74   97.87   1 0.00000 0.54154-0.48231 0.07986 0.87599 0.83686
  -1   4  14  411.53  114.75   1 0.00000-0.54423 0.60797 0.04772 0.79395 0.83757
   1  -4 -14  558.74  119.63   1-0.71270-0.16812 0.19646 0.75737 0.67338 0.63096
   1  -4 -1318300.04  542.38   1 0.00000 0.52825-0.44365 0.07551 0.89619 0.84571
  -1   4  1313868.19  587.16   1 0.00000-0.53062 0.61712 0.09988 0.78686 0.84170
   1  -4 -1315261.02  541.78   1-0.69106-0.15994 0.24693 0.76511 0.67929 0.62371
  -1   4  1315073.83  757.98   1-0.21028-0.74140 0.80872 0.29054 0.54931 0.60489
   1  -4 -1224665.51  682.48   1 0.00000 0.51497-0.40164 0.07450 0.91579 0.85396
  -1   4  1231472.05  945.55   1 0.00000-0.51700 0.63154 0.15731 0.77533 0.84140
   1  -4 -1232058.98  940.94   1-0.66657-0.14912 0.29814 0.77320 0.68322 0.61637
  -1   4  1230298.62 1023.20   1-0.19796-0.71556 0.81622 0.34119 0.54275 0.60955
  -1   4  11 6739.20  375.49   1 0.00000-0.50338 0.65221 0.22098 0.75803 0.83532
   1  -4 -11 7413.20  335.79   1-0.63822-0.13445 0.35140 0.78335 0.68496 0.60686
  -1   4  11 7284.92  469.59   1-0.18187-0.68579 0.82566 0.39375 0.53403 0.61208
   1  -4 -10  765.41  114.26   1 0.00000 0.49111-0.30394 0.08265 0.95268 0.86716
  -1   4  10   69.99  103.97   1 0.00000-0.48977 0.68025 0.29204 0.73297 0.82148
   1  -4 -10   -9.90  104.33   1-0.60544-0.11534 0.40679 0.79562 0.68407 0.59471
  -1   4  10  149.42   95.03   1-0.16130-0.65154 0.83716 0.44836 0.52262 0.61193
   1  -4  -930166.28  619.23   1 0.00000 0.47747-0.24393 0.09975 0.96979 0.87296
  -1   4   933723.93  812.72   1 0.00000-0.47615 0.71683 0.37162 0.69724 0.79697
   1  -4  -932041.01  792.92   1-0.56753-0.09111 0.46425 0.80996 0.67997 0.57935
  -1   4   933453.66  857.07   1-0.13559-0.61214 0.85065 0.50496 0.50793 0.60850
   1  -4  -861203.51 1080.07   1 0.00000 0.46383-0.17341 0.12736 0.98484 0.87672
  -1   4   860186.55 1183.95   1 0.00000-0.46254 0.76284 0.46064 0.64658 0.75753
   1  -4  -860671.66 1059.21   1-0.52375-0.06101 0.52359 0.82618 0.67196 0.56007
  -1   4   863932.02 1259.92   1-0.10398-0.56685 0.86590 0.56334 0.48927 0.60110
   1  -4  -710140.54  465.30   1 0.00000 0.45019-0.08821 0.16964 0.99610 0.87667
  -1   4   7 7056.01  378.84   1 0.00000-0.44892 0.81818 0.55899 0.57495 0.69712
   1  -4  -7 6785.53  372.17   1-0.47328-0.02422 0.58437 0.84385 0.65916 0.53602
  -1   4   7 6460.16  353.86   1-0.06570-0.51488 0.88246 0.62301 0.46576 0.58884
   1  -4  -610924.73  436.20   1 0.00000 0.43654 0.01758 0.23252 0.99984 0.86911
  -1   4   613713.75  525.11   1 0.00000-0.43530 0.88028 0.66410 0.47444 0.60783
   1  -4  -614781.98  568.15   1-0.41537 0.02000 0.64582 0.86218 0.64060 0.50620
  -1   4   614171.55  557.66   1-0.01999-0.45550 0.89951 0.68317 0.43642 0.57077
   1  -4  -522097.99  669.21   1 0.00000 0.42290 0.15163 0.32365 0.98843 0.84640
  -1   4   522208.81  713.29   1 0.00000-0.42132 0.94126 0.76802 0.33768 0.48231
   1  -4  -521387.57  728.58   1-0.34942 0.07229 0.70669 0.87994 0.61520 0.46954
   1  -4  -4 1263.13  180.47   1 0.00000 0.40926 0.32066 0.44977 0.94719 0.79385
  -1   4   4  911.33  124.67   1 0.00000-0.40772 0.98725 0.85704 0.15913 0.31501
   1  -4  -4  782.97  149.73   1-0.27517 0.13285 0.76524 0.89537 0.58196 0.42504
   1  -4  -4  841.00  116.95   1-0.19738 0.20920-0.81657-0.68374-0.54244-0.69909
   1  -4  -3  249.77   87.16   1 0.00000 0.39445 0.52961 0.61676 0.84823 0.68117
  -1   4   3  168.83   77.44   1 0.00000-0.39411 0.99874 0.91156-0.05000 0.11712
   1  -4  -3  117.85  140.66   1-0.19307 0.20137 0.81913 0.90612 0.54012 0.37200
   1  -4  -3  184.57   95.53   1-0.34135 0.05188-0.71354-0.62379-0.61182-0.77986
   1  -4  -2554086.421635.00   1 0.00000 0.38084 0.73100 0.77514 0.68237 0.50408
  -1   4   2563570.621990.88   1 0.00000-0.38051 0.96517 0.92102-0.26158-0.08320
   1  -4  -2553785.121629.83   1-0.10432 0.27644 0.86575 0.90962 0.48947 0.31008
   1  -4  -2547641.2 6761.08   1-0.47529-0.09540-0.58210-0.53543-0.65973-0.83916
   1  -4  -1999998.0 4255.82   1 0.00000 0.36722 0.89003 0.89117 0.45589 0.26638
   1  -4   0118877.8 1858.60   1 0.00000 0.35330 0.97734 0.93544 0.21163 0.01075
   1  -4   0127797.8 1650.22   1-0.66163-0.30832-0.30784-0.34715-0.68372-0.88567
  -1   4   0116967.9 1692.42   1-0.15432-0.50750-0.84092-0.80142-0.51867-0.31646
   1  -4   114332.54  411.46   1 0.00000 0.34226-0.72531-0.80833 0.68842 0.47900
   1  -4   119090.80  608.88   1 0.00000 0.33969 0.99998 0.91505-0.00530-0.21743
   1  -4   118191.21  475.56   1-0.71518-0.37522-0.19030-0.27268-0.67252-0.88591
  -1   4  -118834.26  545.61   1-0.30830-0.64813-0.74033-0.65776-0.59736-0.38375
   1  -4   251852.19 1075.86   1 0.00000 0.32609 0.98413 0.85618-0.17739-0.40076
   1  -4   250425.50  852.99   1-0.75036-0.42374-0.09079-0.21624-0.65476-0.87958
  -1   4  -254418.17 1047.12   1-0.42386-0.75035-0.63731-0.51165-0.64355-0.41855
   1  -4   315441.67  447.04   1 0.00000 0.31569-0.57993-0.74898 0.81466 0.58254
   1  -4   316843.29  565.83   1 0.00000 0.31248 0.95200 0.78102-0.30607-0.54070
   1  -4   315995.89  439.37   1-0.77313-0.45986-0.00700-0.17550-0.63420-0.87047
  -1   4  -316496.55  499.57   1-0.50672-0.81985-0.54493-0.37619-0.66803-0.43163
   1  -4   4 1321.86  126.53   1 0.00000 0.30241-0.51955-0.73161 0.85443 0.61096
   1  -4   4 2328.52  178.03   1 0.00000 0.29889 0.91654 0.70256-0.39994-0.64580
   1  -4   4 2244.84  140.29   1-0.78763-0.48772 0.06423-0.14733-0.61277-0.86047
  -1   4  -4 2283.65  168.43   1-0.56471-0.86463-0.46828-0.25671-0.67956-0.43186
  -1   4  -599961.37 1692.14   1 0.00000-0.28912-0.88458-0.62950 0.46637 0.72119
   1  -4   593975.84 1567.90   1 0.00000 0.28912-0.46548-0.72056 0.88505 0.63023
   1  -4   598932.32 1438.45   1-0.79656-0.50998 0.12575-0.12888-0.59133-0.85047
  -1   4  -599917.22 1640.42   1-0.60587-0.89244-0.40610-0.15146-0.68410-0.42496
  -1   4  -6251448.0 2150.86   1 0.00000-0.27584-0.85645-0.55836 0.51622 0.78239
   1  -4   6244043.1 1622.63   1 0.00000 0.27584-0.41634-0.71443 0.90920 0.64303
  -1   4  -6242611.7 3612.26   1-0.63489-0.90812-0.35730-0.05961-0.68500-0.41443
  -1   4  -753199.41 1101.19   1 0.00000-0.26255-0.83373-0.49263 0.55215 0.82968
   1  -4   759655.69 1173.32   1 0.00000 0.26255-0.37103-0.71213 0.92861 0.65109
  -1   4  -745698.63  946.80   1-0.65542-0.91530-0.31977 0.02098-0.68422-0.40221
  -1   4  -810689.45  422.05   1 0.00000-0.24927-0.81614-0.43202 0.57785 0.86672
   1  -4   8 8558.73  381.89   1 0.00000 0.24555-0.32810-0.71398 0.94464 0.65568
   1  -4   810736.48  418.09   1-0.78483-0.54143-0.44251-0.82871 0.43382 0.14169
  -1   4  -810882.49  360.37   1-0.66990-0.91643-0.29149 0.09232-0.68283-0.38938
  -1   4  -9  167.96   72.38   1 0.00000-0.23598-0.80309-0.37595 0.59585 0.89608
   1  -4   9   32.39   71.75   1 0.00000 0.23191-0.28826-0.71706 0.95754 0.65728
   1  -4   9  408.36  123.88   1-0.79597-0.56625-0.37727-0.80653 0.47338 0.16990
  -1   4  -9  336.51   79.67   1-0.67997-0.91316-0.27079 0.15609-0.68139-0.37650
  -1   4 -10  401.97   82.56   1 0.00000-0.22269-0.79397-0.32382 0.60794 0.91953
   1  -4  10  442.61   87.42   1 0.00000 0.21827-0.25022-0.72194 0.96818 0.65662
   1  -4  10  554.23  129.35   1-0.80207-0.58604-0.31471-0.78702 0.50757 0.19274
  -1   4 -10  527.62   84.24   1-0.68678-0.90662-0.25630 0.21364-0.68017-0.36385
  -1   4 -11 1080.29  133.24   1 0.00000-0.20941-0.78820-0.27504 0.61541 0.93834
   1  -4  11  521.75  101.14   1 0.00000 0.20463-0.21361-0.72824 0.97691 0.65405
   1  -4  11 1326.04  196.67   1-0.80405-0.60171-0.25500-0.77035 0.53708 0.21090
  -1   4 -11 1036.46  134.34   1-0.69106-0.89756-0.24693 0.26607-0.67929-0.35153
  -1   4 -12 2383.25  199.48   1 0.00000-0.19612-0.78526-0.22909 0.61915 0.95344
   1  -4  12 2111.24  184.42   1 0.00000 0.19098-0.17813-0.73568 0.98400 0.64984
   1  -4  12 2914.43  219.00   1-0.80268-0.61403-0.19812-0.75652 0.56253 0.22500
  -1   4 -12 2955.14  185.33   1-0.69337-0.88652-0.24182 0.31425-0.67878-0.33959
  -1   4 -1315104.85  528.68   1 0.00000-0.18284-0.78473-0.18554 0.61983 0.96547
   1  -4  1313398.40  552.80   1 0.00000 0.17734-0.14357-0.74403 0.98964 0.64417
   1  -4  1315867.18  648.31   1-0.79855-0.62359-0.14395-0.74541 0.58445 0.23557
  -1   4 -1314336.79  484.68   1-0.69406-0.87386-0.24028 0.35885-0.67863-0.32799
  -1   4 -1447146.17 1045.36   1 0.00000-0.16955-0.78621-0.14401 0.61794 0.97494
   1  -4  1440687.64 1047.56   1 0.00000 0.16370-0.10973-0.75311 0.99396 0.63719
   1  -4  1441772.64 1163.56   1-0.79213-0.63085-0.09232-0.73683 0.60332 0.24309
  -1   4 -1439934.54  880.72   1-0.69339-0.85985-0.24177 0.40043-0.67878-0.31671
  -1   4 -15  512.89  121.66   1 0.00000-0.15627-0.78941-0.10420 0.61385 0.98220
  -1   4 -16  228.84   88.09   1 0.00000-0.14298-0.79406-0.06583 0.60783 0.98753
  -1   4 -17  -38.48  109.80   1 0.00000-0.12970-0.79993-0.02868 0.60008 0.99113
  -1   4 -18  412.96  121.28   1 0.00000-0.11641-0.80683 0.00741 0.59077 0.99317
   1  -3 -18   24.09   70.60   1 0.00000 0.51400-0.63618 0.09552 0.77153 0.85245
   1  -3 -18   33.42  104.98   1-0.78701-0.26750-0.06062 0.67021 0.61395 0.69227
   1  -3 -17   81.80   80.65   1 0.00000 0.50071-0.60993 0.07876 0.79245 0.86202
  -1   3  17   76.59  108.91   1 0.00000-0.50500 0.44724-0.23987 0.89441 0.82911
   1  -3 -17   95.78  111.21   1-0.77936-0.27354-0.02097 0.66681 0.62622 0.69320
   1  -3 -17   77.92   74.93   1-0.79394-0.29363 0.10509 0.79495-0.59884-0.53086
   1  -3 -16 1172.57  152.23   1 0.00000 0.48743-0.58271 0.06296 0.81267 0.87088
  -1   3  16 1133.39  199.30   1 0.00000-0.49139 0.43621-0.20788 0.89984 0.84576
   1  -3 -16 1291.92  150.44   1-0.76997-0.27784 0.02010 0.66484 0.63775 0.69338
   1  -3 -16 1044.48  116.07   1-0.79846-0.31151 0.14308 0.78988-0.58479-0.52824
   1  -3 -15 6273.13  283.87   1 0.00000 0.47414-0.55438 0.04828 0.83225 0.87912
  -1   3  15 6236.25  324.98   1 0.00000-0.47777 0.42750-0.17359 0.90401 0.86115
   1  -3 -15 6552.94  311.56   1-0.75864-0.28020 0.06283 0.66452 0.64846 0.69274
   1  -3 -14  332.83   95.64   1 0.00000 0.46086-0.52472 0.03494 0.85127 0.88678
   1  -3 -14   64.86  106.62   1-0.74509-0.28034 0.10745 0.66610 0.65824 0.69117
  -1   3  14   29.75  138.44   1-0.33540-0.80028 0.71851 0.15932 0.60929 0.57806
   1  -3 -13   65.96   61.06   1 0.00000 0.44757-0.49342 0.02322 0.86978 0.89394
  -1   3  13  611.22  120.19   1 0.00000-0.45054 0.41901-0.09607 0.90798 0.88757
   1  -3 -13  716.42  131.25   1-0.72896-0.27790 0.15426 0.66985 0.66694 0.68851
  -1   3  13  959.62  183.79   1-0.33135-0.78255 0.72186 0.20578 0.60755 0.58758
   1  -3 -12106796.2 1110.09   1 0.00000 0.43428-0.46010 0.01353 0.88786 0.90067
  -1   3  1297470.18 1394.09   1 0.00000-0.43692 0.42066-0.05140 0.90721 0.89802
   1  -3 -1296106.09 1273.22   1-0.70980-0.27243 0.20358 0.67613 0.67434 0.68456
  -1   3  1296363.98 1555.70   1-0.32419-0.76171 0.72770 0.25474 0.60443 0.59572
   1  -3 -1154049.57  829.54   1 0.00000 0.42100-0.42417 0.00644 0.90558 0.90703
  -1   3  1153345.66  908.71   1 0.00000-0.42331 0.42763-0.00142 0.90394 0.90598
   1  -3 -1153490.94  890.72   1-0.68645-0.26260 0.25702 0.68686 0.68023 0.67768
  -1   3  1156662.19 1155.18   1-0.31331-0.73716 0.73640 0.30656 0.59961 0.60217
  -1   3  1034880.69  784.91   1 0.00000-0.40969 0.44145 0.05540 0.89728 0.91053
   1  -3 -1033142.71  786.90   1-0.65922-0.24905 0.31249 0.69922 0.68393 0.67012
  -1   3  1036330.17  890.34   1-0.29796-0.70813 0.74831 0.36159 0.59265 0.60646
   1  -3  -9  601.60   93.22   1 0.00000 0.39698-0.34123 0.00041 0.93997 0.91782
  -1   3   9  205.72   83.52   1 0.00000-0.39607 0.46425 0.12120 0.88570 0.91018
   1  -3  -9  365.79  109.56   1-0.62666-0.23017 0.37161 0.71522 0.68497 0.65990
  -1   3   9  145.42  143.93   1-0.27714-0.67364 0.76381 0.42020 0.58290 0.60797
   1  -3  -810206.75  413.53   1 0.00000 0.38334-0.29002 0.00870 0.95701 0.92356
  -1   3   8 6967.96  352.24   1 0.00000-0.38246 0.49901 0.19898 0.86659 0.90229
   1  -3  -8 6353.05  416.09   1-0.58753-0.20471 0.43472 0.73521 0.68250 0.64617
  -1   3   8 6712.66  399.37   1-0.24963-0.63245 0.78317 0.48267 0.56949 0.60582
   1  -3  -7  512.64   87.37   1 0.00000 0.36970-0.22865 0.02717 0.97350 0.92875
  -1   3   7 1380.22  140.71   1 0.00000-0.36884 0.54992 0.29289 0.83521 0.88213
   1  -3  -7 1321.73  167.52   1-0.54028-0.17114 0.50197 0.75935 0.67535 0.62776
  -1   3   7 1659.90  180.87   1-0.21388-0.58302 0.80649 0.54911 0.55120 0.59879
   1  -3  -651264.21 1036.69   1 0.00000 0.35605-0.15130 0.06160 0.98848 0.93243
  -1   3   652182.22 1060.86   1 0.00000-0.35523 0.62236 0.40834 0.78272 0.84087
   1  -3  -652353.16 1145.59   1-0.48307-0.12760 0.57316 0.78742 0.66191 0.60306
  -1   3   653218.99 1266.55   1-0.16799-0.52354 0.83349 0.61925 0.52636 0.58516
  -1   3   592849.94 1514.03   1 0.00000-0.34161 0.72160 0.55058 0.69230 0.76167
   1  -3  -594283.43 1609.35   1-0.41380-0.07201 0.64737 0.81852 0.64004 0.56993
  -1   3   597119.82 1681.50   1-0.11007-0.45193 0.86308 0.69195 0.49291 0.56297
   1  -3  -432555.93  694.18   1 0.00000 0.32877 0.10255 0.22962 0.99472 0.91606
  -1   3   434547.73  822.98   1 0.00000-0.32799 0.84564 0.71764 0.53374 0.61433
   1  -3  -436733.23  940.67   1-0.33049-0.00237 0.72257 0.85060 0.60717 0.52580
  -1   3   434821.06  854.45   1-0.03815-0.36634 0.89309 0.76508 0.44824 0.52956
   1  -3  -3  603.18  170.99   1 0.00000 0.31513 0.32920 0.41336 0.94425 0.85429
  -1   3   3 1046.87  141.88   1 0.00000-0.31410 0.96308 0.87805 0.26918 0.36104
   1  -3  -3 1003.79  165.54   1-0.23188 0.08255 0.79500 0.87991 0.56053 0.46790
   1  -3  -2 2073.86  201.82   1 0.00000 0.30076 0.64683 0.68882 0.76262 0.65959
  -1   3   2 1797.63  174.04   1 0.00000-0.30050 0.99572 0.95372-0.09237 0.01073
   1  -3  -2 2136.21  206.53   1-0.11863 0.18218 0.85902 0.90079 0.49800 0.39416
   1  -3  -2 1993.33  188.22   1-0.25551 0.04454-0.77914-0.73530-0.57240-0.67627
   1  -3  -1108945.5 1800.26   1 0.00000 0.28714 0.91218 0.91115 0.40978 0.29552
   1  -3  -1108007.4 1708.50   1-0.42350-0.13680-0.63767-0.63691-0.64343-0.75869
   1  -3   0 2241.05  174.29   1 0.00000 0.27486-0.76844-0.81097 0.63991 0.51649
   1  -3   0 2385.67  212.61   1 0.00000 0.27329 0.99985 0.95580 0.01716-0.10844
   1  -3   0 2310.00  192.06   1-0.55694-0.28353-0.47923-0.52146-0.67833-0.80479
  -1   3   0 2405.98  203.28   1-0.21046-0.48381-0.80861-0.76629-0.54940-0.42275
   1  -3   117054.53  615.84   1 0.00000 0.26158-0.64930-0.73485 0.76052 0.62575
   1  -3   115565.65  650.02   1 0.00000 0.25968 0.96282 0.87574-0.27013-0.40698
   1  -3   115278.41  584.76   1-0.65106-0.39099-0.32798-0.41327-0.68450-0.82239
  -1   3  -116690.91  666.15   1-0.37609-0.63609-0.68315-0.59775-0.62598-0.48793
  -1   3  -2 9254.20  405.25   1 0.00000-0.24829-0.89473-0.76617 0.44660 0.59272
   1  -3   211773.08  473.02   1 0.00000 0.24829-0.55694-0.68549 0.83055 0.68442
   1  -3   210083.34  423.54   1-0.71230-0.46558-0.19745-0.32580-0.67352-0.82285
  -1   3  -210103.16  468.79   1-0.49306-0.73971-0.56142-0.43294-0.66459-0.51514
  -1   3  -3 8454.63  379.33   1 0.00000-0.23501-0.83040-0.65882 0.55716 0.71464
   1  -3   3 9319.06  407.40   1 0.00000 0.23501-0.48411-0.65568 0.87500 0.71752
   1  -3   3 8173.44  348.35   1-0.75097-0.51759-0.08879-0.26020-0.65433-0.81509
  -1   3  -3 8951.45  441.06   1-0.57103-0.80440-0.45921-0.28779-0.68047-0.51970
  -1   3  -412258.87  402.04   1 0.00000-0.22172-0.78030-0.56571 0.62539 0.79422
   1  -3   411895.22  369.47   1 0.00000 0.22172-0.42421-0.63879 0.90556 0.73673
   1  -3   410810.42  320.29   1-0.77507-0.55504 0.00141-0.21306-0.63186-0.80407
  -1   3  -411710.32  396.81   1-0.62277-0.84281-0.37824-0.16376-0.68489-0.51268
  -1   3  -5 4533.35  230.41   1 0.00000-0.20844-0.74372-0.48612 0.66848 0.84866
   1  -3   5 4859.86  245.61   1 0.00000 0.20844-0.37287-0.63047 0.92788 0.74769
   1  -3   5 3802.62  187.52   1-0.78980-0.58311 0.07721-0.18032-0.60848-0.79212
  -1   3  -5 3587.88  224.15   1-0.65704-0.86373-0.31667-0.05913-0.68410-0.50046
  -1   3  -6   29.39   80.67   1 0.00000-0.19515-0.71809-0.41747 0.69594 0.88748
   1  -3   6  164.99   72.88   1-0.79835-0.60501 0.14205-0.15855-0.58518-0.78026
  -1   3  -6   92.25   72.19   1-0.67993-0.87327-0.27089 0.02971-0.68140-0.48632
  -1   3  -7114359.1 1685.36   1 0.00000-0.18187-0.70094-0.35731 0.71321 0.91610
   1  -3   7114755.9 1699.58   1 0.00000 0.17870-0.28537-0.63038 0.95841 0.75543
   1  -3   7105349.3 1687.65   1-0.79255-0.61528-0.40077-0.74619 0.45961 0.25418
  -1   3  -7108197.7 1681.61   1-0.69528-0.87527-0.23753 0.10613-0.67834-0.47183
  -1   3  -822276.59  552.00   1 0.00000-0.16858-0.69032-0.30368 0.72350 0.93774
   1  -3   819303.89  553.50   1 0.00000 0.16506-0.24700-0.63492 0.96901 0.75473
   1  -3   824930.66  687.64   1-0.80115-0.63758-0.32763-0.71611 0.50079 0.28401
  -1   3  -823907.27  598.32   1-0.70550-0.87214-0.21391 0.17281-0.67565-0.45770
  -1   3  -9 1699.20  161.75   1 0.00000-0.15529-0.68475-0.25510 0.72876 0.95436
   1  -3   9 1832.53  181.71   1 0.00000 0.15142-0.21075-0.64158 0.97754 0.75195
   1  -3   9 1379.38  160.33   1-0.80403-0.65415-0.25988-0.69141 0.53478 0.30665
  -1   3  -9 1212.17  131.92   1-0.71210-0.86540-0.19794 0.23185-0.67358-0.44419
  -1   3 -10 2336.73  179.39   1 0.00000-0.14201-0.68314-0.21047 0.73028 0.96723
   1  -3  10 2584.92  215.36   1 0.00000 0.13778-0.17607-0.64982 0.98437 0.74749
   1  -3  10 1933.68  170.03   1-0.80263-0.66644-0.19715-0.67173 0.56294 0.32346
  -1   3 -10 1822.28  152.14   1-0.71608-0.85603-0.18805 0.28480-0.67220-0.43138
  -1   3 -11  237.20   88.95   1 0.00000-0.12872-0.68463-0.16895 0.72888 0.97718
   1  -3  11  280.29  107.64   1 0.00000 0.12413-0.14259-0.65926 0.98978 0.74159
   1  -3  11  292.71  108.52   1-0.79803-0.67553-0.13892-0.65655 0.58637 0.33555
  -1   3 -11  275.99   81.72   1-0.71805-0.84466-0.18305 0.33286-0.67148-0.41921
  -1   3 -1212716.53  376.28   1 0.00000-0.11544-0.68860-0.12991 0.72513 0.98478
   1  -3  1212927.51  424.82   1 0.00000 0.11049-0.11003-0.66961 0.99392 0.73443
   1  -3  1212131.58  450.52   1-0.79097-0.68216-0.08466-0.64534 0.60596 0.34378
  -1   3 -1212538.02  405.21   1-0.71845-0.83171-0.18204 0.37694-0.67133-0.40763
  -1   3 -1319852.92  557.60   1 0.00000-0.10215-0.69457-0.09286 0.71942 0.99042
   1  -3  1316854.87  523.91   1 0.00000 0.09685-0.07818-0.68068 0.99693 0.72614
   1  -3  1321459.58  575.97   1-0.78199-0.68687-0.03386-0.63758 0.62236 0.34883
  -1   3 -1322975.78  586.61   1-0.71755-0.81747-0.18431 0.41773-0.67166-0.39652
  -1   3 -14 1052.82  122.59   1 0.00000-0.08887-0.70214-0.05742 0.71203 0.99438
   1  -3  14 1531.02  145.65   1 0.00000 0.08321-0.04687-0.69228 0.99890 0.71680
   1  -3  14  400.35  106.54   1-0.77147-0.69004 0.01394-0.63283 0.63610 0.35122
  -1   3 -14  566.29  107.69   1-0.71556-0.80213-0.18934 0.45576-0.67239-0.38581
  -1   3 -15 4080.67  229.73   1 0.00000-0.07558-0.71103-0.02329 0.70316 0.99686
   1  -3  15 3014.59  253.57   1 0.00000 0.06957-0.01597-0.70430 0.99987 0.70647
   1  -3  15 4986.31  298.49   1-0.75968-0.69194 0.05914-0.63068 0.64759 0.35136
  -1   3 -15 4809.11  255.20   1-0.71260-0.78583-0.19671 0.49146-0.67342-0.37540
  -1   3 -16  661.04  188.19   1 0.00000-0.06230-0.72098 0.00976 0.69295 0.99800
  -1   3 -17 1369.37  190.22   1 0.00000-0.04901-0.73181 0.04195 0.68150 0.99791
  -1   3 -18  196.71  141.43   1 0.00000-0.03573-0.74335 0.07342 0.66889 0.99665
   1  -2 -19 9687.15  376.57   1 0.00000 0.44660-0.68978 0.08242 0.72401 0.89092
   1  -2 -1910545.07  452.18   1-0.80204-0.34868-0.18674 0.58488 0.56731 0.73234
   1  -2 -18  160.53  110.83   1 0.00000 0.43331-0.66857 0.06061 0.74364 0.89920
   1  -2 -18   52.25  150.43   1-0.79945-0.35978-0.15323 0.57534 0.58085 0.73453
   1  -2 -17 2803.14  195.78   1 0.00000 0.42003-0.64703 0.03914 0.76245 0.90666
  -1   2  17 2712.18  276.55   1 0.00000-0.42563 0.28867-0.39427 0.95742 0.81448
   1  -2 -17 2928.83  260.46   1-0.79571-0.36973-0.11874 0.56678 0.59391 0.73624
   1  -2 -17 2405.57  207.02   1-0.79634-0.37592 0.12389 0.81085-0.59201-0.44854
   1  -2 -16   -6.51   82.97   1 0.00000 0.40674-0.62514 0.01802 0.78051 0.91336
  -1   2  16   18.76   75.51   1 0.00000-0.41198 0.26800-0.37203 0.96341 0.83178
   1  -2 -16  -28.47   69.46   1-0.79073-0.37844-0.08308 0.55938 0.60649 0.73747
   1  -2 -16    4.96   71.40   1-0.80007-0.39300 0.16019 0.80409-0.57811-0.44607
   1  -2 -15  555.37  118.78   1 0.00000 0.39346-0.60287-0.00272 0.79783 0.91933
  -1   2  15  556.64  122.02   1 0.00000-0.39834 0.24833-0.34877 0.96867 0.84833
   1  -2 -15  322.55   97.37   1-0.78435-0.38576-0.04605 0.55337 0.61859 0.73821
  -1   2  15  193.98  147.17   1-0.44722-0.84586 0.61303 0.01282 0.65128 0.53324
   1  -2 -14 2180.01  159.13   1 0.00000 0.38017-0.58019-0.02305 0.81447 0.92462
  -1   2  14 2080.31  208.22   1 0.00000-0.38470 0.22987-0.32432 0.97321 0.86418
   1  -2 -14 1700.76  180.06   1-0.77641-0.39150-0.00736 0.54900 0.63017 0.73845
  -1   2  14 1994.97  241.92   1-0.45136-0.83632 0.60860 0.05150 0.65258 0.54581
   1  -2 -1329859.65  587.71   1 0.00000 0.36688-0.55705-0.04292 0.83047 0.92927
  -1   2  1332811.06  762.63   1 0.00000-0.37106 0.21286-0.29842 0.97708 0.87935
   1  -2 -1330291.02  623.02   1-0.76664-0.39542 0.03330 0.54662 0.64120 0.73812
  -1   2  1332738.09  835.84   1-0.45357-0.82485 0.60620 0.09223 0.65328 0.55776
   1  -2 -1223530.82  543.26   1 0.00000 0.35360-0.53337-0.06226 0.84587 0.93331
  -1   2  1226747.45  619.64   1 0.00000-0.35742 0.19763-0.27072 0.98027 0.89384
   1  -2 -1229362.93  678.64   1-0.75471-0.39718 0.07638 0.54665 0.65158 0.73716
  -1   2  1232175.84  870.57   1-0.45350-0.81110 0.60628 0.13542 0.65325 0.56900
   1  -2 -11 3949.13  208.47   1 0.00000 0.34031-0.50907-0.08097 0.86072 0.93681
  -1   2  11 3759.88  228.51   1 0.00000-0.34377 0.18470-0.24075 0.98279 0.90766
   1  -2 -11 2388.15  195.48   1-0.74015-0.39631 0.12240 0.54962 0.66119 0.73542
  -1   2  11 2267.69  232.06   1-0.45064-0.79457 0.60937 0.18163 0.65236 0.57936
   1  -2 -1013996.28  482.04   1 0.00000 0.32703-0.48396-0.09888 0.87508 0.93982
  -1   2  1014487.87  482.77   1 0.00000-0.33013 0.17476-0.20777 0.98461 0.92078
   1  -2 -1012173.86  479.56   1-0.72232-0.39217 0.17203 0.55620 0.66981 0.73269
  -1   2  1011854.83  485.66   1-0.44430-0.77455 0.61614 0.23152 0.65035 0.58861
   1  -2  -9   15.91   59.62   1 0.00000 0.31374-0.45784-0.11577 0.88903 0.94242
  -1   2   9  113.87   73.92   1 0.00000-0.31649 0.16890-0.17071 0.98563 0.93310
   1  -2  -9  -27.90   59.95   1-0.70028-0.38382 0.22614 0.56726 0.67710 0.72862
  -1   2   9   15.43   83.16   1-0.43350-0.75007 0.62745 0.28594 0.64681 0.59633
   1  -2  -831834.54  672.17   1 0.00000 0.30046-0.43030-0.13124 0.90268 0.94471
  -1   2   833316.02  752.77   1 0.00000-0.30285 0.16883-0.12786 0.98564 0.94442
   1  -2  -830943.44  754.66   1-0.67211-0.36921 0.28703 0.58542 0.68255 0.72177
  -1   2   831898.54  911.43   1-0.41683-0.71973 0.64437 0.34597 0.64111 0.60189
   1  -2  -739612.96  762.97   1 0.00000 0.28717-0.40070-0.14466 0.91620 0.94689
  -1   2   740314.98  824.93   1 0.00000-0.28920 0.17741-0.07637 0.98413 0.95421
   1  -2  -735567.48  760.02   1-0.63697-0.34775 0.35363 0.60891 0.68498 0.71294
  -1   2   737531.26  941.59   1-0.39226-0.68148 0.66818 0.41291 0.63218 0.60422
   1  -2  -6  811.36  107.05   1 0.00000 0.27556-0.36840-0.15753 0.92966 0.94828
  -1   2   6  409.76   81.30   1 0.00000-0.27556 0.19979-0.01108 0.97983 0.96121
   1  -2  -6  107.83   76.29   1-0.59145-0.31591 0.42873 0.64089 0.68291 0.69961
  -1   2   6   -9.76  102.45   1-0.35676-0.63231 0.70035 0.48819 0.61824 0.60153
   1  -2  -559761.92 1153.96   1 0.00000 0.26192-0.32951-0.16155 0.94415 0.95147
  -1   2   567241.80 1278.18   1 0.00000-0.26192 0.24613 0.07818 0.96923 0.96191
   1  -2  -566087.88 1323.41   1-0.53127-0.26940 0.51387 0.68291 0.67356 0.67900
  -1   2   570344.18 1393.46   1-0.30593-0.56780 0.74218 0.57313 0.59629 0.59085
   1  -2  -4113048.7 1692.74   1 0.00000 0.24828-0.27848-0.15344 0.96043 0.95645
  -1   2   4121060.3 1944.82   1 0.00000-0.24828 0.33905 0.21401 0.94076 0.94475
   1  -2  -4106299.3 1821.90   1-0.45023-0.20203 0.60981 0.73574 0.65223 0.64641
  -1   2   4106792.0 1862.83   1-0.23354-0.48174 0.79391 0.66799 0.56138 0.56719
   1  -2  -399824.46 1663.01   1 0.00000 0.23464-0.19514-0.11302 0.98077 0.96548
  -1   2   3108344.5 1829.49   1 0.00000-0.23430 0.54239 0.45955 0.84012 0.85668
   1  -2  -3103124.4 1791.13   1-0.34027-0.10575 0.71445 0.79726 0.61136 0.59428
  -1   2   3107242.2 1854.64   1-0.13174-0.36629 0.85259 0.76979 0.50570 0.52273
   1  -2  -244879.05 1077.34   1 0.00000 0.22099 0.02640 0.06561 0.99965 0.97306
  -1   2   246981.36 1273.63   1 0.00000-0.22049 0.91746 0.87761 0.39781 0.42565
   1  -2  -244382.81 1040.16   1-0.19369 0.02717 0.81877 0.85845 0.54046 0.51216
  -1   2  -151361.22 1013.23   1 0.00000-0.18089-0.72246-0.63439 0.69140 0.75154
  -1   2  -141629.91  930.76   1-0.41576-0.59593-0.64543-0.55720-0.64074-0.57826
  -1   2  -2259404.7 3364.65   1 0.00000-0.16761-0.62006-0.48898 0.78455 0.85603
   1  -2   2267394.5 3524.27   1 0.00000 0.16642-0.32276-0.45522 0.94647 0.87468
   1  -2   2260884.0 3390.80   1-0.67479-0.50796-0.28155-0.41280-0.68218-0.75602
  -1   2  -2268045.9 3604.39   1-0.54136-0.70820-0.50053-0.36927-0.67556-0.60173
  -1   2  -339654.67  752.93   1 0.00000-0.15432-0.56707-0.39298 0.82366 0.90650
   1  -2   340448.51  838.96   1 0.00000 0.15278-0.28082-0.45620 0.95975 0.87666
   1  -2   338579.28  770.18   1-0.73263-0.57914-0.14410-0.31843-0.66519-0.75046
  -1   2  -339591.67  847.71   1-0.61858-0.77207-0.38529-0.21097-0.68476-0.59949
  -1   2  -4 6612.50  325.61   1 0.00000-0.14104-0.53996-0.32285 0.84169 0.93588
   1  -2   4 6489.27  323.58   1 0.00000 0.13914-0.24532-0.46361 0.96944 0.87504
   1  -2   4 6373.82  282.19   1-0.76658-0.62643-0.03354-0.25093-0.64126-0.73797
  -1   2  -4 6401.47  312.86   1-0.66544-0.80558-0.30037-0.08299-0.68334-0.58663
  -1   2  -512028.41  498.97   1 0.00000-0.12775-0.52753-0.26741 0.84953 0.95507
   1  -2   510418.94  461.71   1 0.00000 0.12550-0.21321-0.47442 0.97700 0.87130
   1  -2   515634.22  632.30   1-0.79446-0.66966-0.38815-0.64974 0.46707 0.35969
   1  -2   515267.77  546.79   1-0.78623-0.65943 0.05627-0.20417-0.61535-0.72350
  -1   2  -515421.04  559.88   1-0.69428-0.82108-0.23978 0.02066-0.67858-0.57043
  -1   2  -6267481.5 2897.32   1 0.00000-0.11447-0.52412-0.22099 0.85163 0.96853
   1  -2   6273945.5 3014.70   1 0.00000 0.11186-0.18307-0.48719 0.98309 0.86609
   1  -2   6295204.3 3315.05   1-0.80298-0.69186-0.29825-0.60289 0.51600 0.39727
   1  -2   6284777.5 2993.65   1-0.79714-0.68369 0.13079-0.17272-0.58945-0.70903
  -1   2  -6307073.8 3292.49   1-0.71232-0.82577-0.19742 0.10609-0.67351-0.55393
  -1   2  -7388595.0 4148.64   1 0.00000-0.10118-0.52658-0.18044 0.85011 0.97836
   1  -2   7407092.8 4375.29   1 0.00000 0.09821-0.15415-0.50119 0.98804 0.85974
   1  -2   7385630.9 4190.18   1-0.80358-0.70616-0.22020-0.56789 0.55295 0.42287
  -1   2  -7393848.7 4123.71   1-0.72365-0.82376-0.16852 0.17805-0.66926-0.53824
  -1   2  -8  287.77   83.58   1 0.00000-0.08789-0.53305-0.14388 0.84608 0.98568
   1  -2   8  -46.51   74.47   1 0.00000 0.08457-0.12601-0.51596 0.99202 0.85242
   1  -2   8  714.72  114.38   1-0.79931-0.71558-0.15179-0.54253 0.58141 0.43999
  -1   2  -8  507.70   89.20   1-0.73064-0.81740-0.14965 0.23998-0.66615-0.52370
  -1   2  -9  107.31   79.64   1 0.00000-0.07461-0.54234-0.11016 0.84015 0.99110
   1  -2   9  214.78   66.88   1 0.00000 0.07093-0.09837-0.53124 0.99514 0.84424
   1  -2   9  -41.47   76.69   1-0.79194-0.72190-0.09105-0.52485 0.60376 0.45098
  -1   2  -9  -23.08   66.12   1-0.73466-0.80807-0.13837 0.29433-0.66417-0.51027
  -1   2 -10 4189.61  269.07   1 0.00000-0.06132-0.55369-0.07850 0.83272 0.99502
   1  -2  10 4504.26  332.44   1 0.00000 0.05729-0.07107-0.54685 0.99747 0.83526
   1  -2  10 4972.56  333.62   1-0.78250-0.72615-0.03642-0.51326 0.62157 0.45744
  -1   2 -10 4482.07  283.99   1-0.73655-0.79662-0.13293 0.34283-0.66318-0.49784
  -1   2 -11  521.01   84.95   1 0.00000-0.04804-0.56656-0.04836 0.82401 0.99767
   1  -2  11  497.54   96.33   1 0.00000 0.04364-0.04397-0.56267 0.99903 0.82552
   1  -2  11  678.46  112.68   1-0.77162-0.72895 0.01334-0.50655 0.63594 0.46046
  -1   2 -11  569.07   81.07   1-0.73685-0.78357-0.13209 0.38674-0.66302-0.48625
  -1   2 -12 4177.92  216.73   1 0.00000-0.03475-0.58058-0.01936 0.81419 0.99920
   1  -2  12 3706.96  274.84   1 0.00000 0.03000-0.01700-0.57862 0.99985 0.81504
   1  -2  12 4325.69  292.22   1-0.75967-0.73070 0.05919-0.50374 0.64760 0.46077
  -1   2 -12 4265.15  244.88   1-0.73587-0.76924-0.13491 0.42698-0.66354-0.47533
  -1   2 -13 3701.77  196.31   1 0.00000-0.02147-0.59548 0.00875 0.80337 0.99973
   1  -2  13 3844.84  232.64   1 0.00000 0.01636 0.00990-0.59462 0.99995 0.80383
   1  -2  13 4008.29  269.75   1-0.74688-0.73160 0.10186-0.50412 0.65710 0.45892
  -1   2 -13 4071.53  240.67   1-0.73383-0.75386-0.14072 0.46423-0.66459-0.46494
  -1   2 -1460115.73  939.23   1 0.00000-0.00818-0.61104 0.03620 0.79159 0.99931
   1  -2  1453160.22 1180.75   1 0.00000 0.00272 0.03681-0.61063 0.99932 0.79190
   1  -2  1457511.59 1040.19   1-0.73340-0.73181 0.14192-0.50711 0.66480 0.45527
  -1   2 -1455965.79  800.75   1-0.73087-0.73755-0.14901 0.49901-0.66604-0.45496
  -1   2 -15 9143.39  416.63   1 0.00000 0.00509-0.62711 0.06314 0.77892 0.99799
   1  -2  15 8000.15  348.90   1 0.00000-0.01092 0.06374-0.62661 0.99796 0.77924
   1  -2  15 7413.76  351.92   1-0.71931-0.73141 0.17982-0.51227 0.67100 0.45012
  -1   2 -15 7555.64  299.13   1-0.72708-0.72042-0.15937 0.53171-0.66779-0.44527
  -1   2 -16 3588.56  257.91   1 0.00000 0.01838-0.64357 0.08969 0.76538 0.99580
  -1   2 -17   79.16   82.63   1 0.00000 0.03166-0.66032 0.11596 0.75097 0.99274
  -1   2 -18  283.16  120.62   1 0.00000 0.04495-0.67728 0.14201 0.73571 0.98884
  -1   2 -19  787.97  144.93   1 0.00000 0.05823-0.69438 0.16792 0.71960 0.98407
   1  -1 -19    5.46   69.32   1 0.00000 0.36591-0.72565 0.04402 0.68805 0.92960
   1  -1 -19  -42.34  123.03   1-0.80348-0.42996-0.28595 0.48340 0.52215 0.76253
   1  -1 -18    3.71   90.50   1 0.00000 0.35262-0.70881 0.01785 0.70539 0.93559
   1  -1 -18   95.24   92.53   1-0.80404-0.44420-0.25884 0.46746 0.53527 0.76429
   1  -1 -17  147.05   98.76   1 0.00000 0.33934-0.69212-0.00846 0.72177 0.94062
  -1   1  17  -25.83  108.87   1 0.00000-0.34514 0.14655-0.53435 0.98920 0.77158
   1  -1 -17   28.34   98.80   1-0.80386-0.45772-0.23132 0.45193 0.54798 0.76566
   1  -1 -17   55.03   81.17   1-0.79636-0.45583 0.12409 0.80814-0.59194-0.37297
   1  -1 -16 1165.00  124.74   1 0.00000 0.32606-0.67566-0.03502 0.73720 0.94470
  -1   1  16 1062.42  155.03   1 0.00000-0.33149 0.11733-0.52066 0.99309 0.78677
   1  -1 -16 1449.35  171.94   1-0.80294-0.47048-0.20329 0.43691 0.56032 0.76664
  -1   1  16 1430.75  266.21   1-0.53927-0.87165 0.50333-0.13789 0.67516 0.47031
   1  -1 -16 1532.26  136.28   1-0.79989-0.47271 0.15814 0.79912-0.57892-0.37139
   1  -1 -1513643.72  488.77   1 0.00000 0.31277-0.65954-0.06191 0.75166 0.94780
  -1   1  1512247.16  524.73   1 0.00000-0.31785 0.08794-0.50713 0.99612 0.80111
   1  -1 -1514101.33  548.38   1-0.80122-0.48246-0.17465 0.42250 0.57230 0.76727
  -1   1  1514235.63  644.53   1-0.54980-0.86851 0.48910-0.10900 0.67711 0.48353
   1  -1 -14  -30.69   80.92   1 0.00000 0.29948-0.64388-0.08926 0.76512 0.94991
  -1   1  14   83.24   67.86   1 0.00000-0.30421 0.05830-0.49386 0.99829 0.81458
   1  -1 -14  114.70   81.89   1-0.79868-0.49361-0.14524 0.40885 0.58395 0.76758
  -1   1  14  -74.13  122.66   1-0.55942-0.86446 0.47576-0.07922 0.67873 0.49641
   1  -1 -1329288.45  627.39   1 0.00000 0.28620-0.62884-0.11723 0.77753 0.95096
  -1   1  1327362.63  627.70   1 0.00000-0.29057 0.02828-0.48096 0.99959 0.82718
   1  -1 -1326273.90  584.52   1-0.79523-0.50385-0.11490 0.39615 0.59531 0.76758
  -1   1  1325719.84  733.57   1-0.56805-0.85941 0.46350-0.04837 0.68005 0.50898
   1  -1 -1295009.28 1389.70   1 0.00000 0.27291-0.61464-0.14605 0.78880 0.95088
  -1   1  1298099.50 1538.55   1 0.00000-0.27692-0.00225-0.46858 0.99999 0.83889
   1  -1 -1285776.52 1286.45   1-0.79077-0.51308-0.08336 0.38464 0.60640 0.76732
  -1   1  1287056.59 1396.58   1-0.57555-0.85323 0.45261-0.01614 0.68108 0.52127
   1  -1 -1137620.78  813.34   1 0.00000 0.25963-0.60159-0.17602 0.79879 0.94953
  -1   1  1138882.67  922.90   1 0.00000-0.26328-0.03353-0.45695 0.99943 0.84963
   1  -1 -1143027.32  931.21   1-0.78514-0.52114-0.05029 0.37465 0.61725 0.76683
  -1   1  1144065.92 1012.79   1-0.58172-0.84573 0.44347 0.01782 0.68185 0.53330
   1  -1 -1020651.00  542.34   1 0.00000 0.24634-0.59011-0.20755 0.80731 0.94669
  -1   1  1022016.93  637.89   1 0.00000-0.24964-0.06586-0.44636 0.99782 0.85932
   1  -1 -1022060.66  610.48   1-0.77813-0.52782-0.01524 0.36666 0.62790 0.76613
  -1   1  1022814.63  735.51   1-0.58630-0.83663 0.43658 0.05406 0.68237 0.54508
   1  -1  -9 3377.13  189.92   1 0.00000 0.23306-0.58082-0.24127 0.81402 0.94205
  -1   1   9 3863.11  234.69   1 0.00000-0.23600-0.09967-0.43725 0.99501 0.86781
   1  -1  -9 3404.07  219.88   1-0.76939-0.53277 0.02245 0.36130 0.63837 0.76525
  -1   1   9 3302.01  238.11   1-0.58885-0.82551 0.43270 0.09329 0.68264 0.55661
   1  -1  -8  230.74   77.48   1 0.00000 0.21977-0.57466-0.27813 0.81838 0.93506
  -1   1   8  340.78   86.28   1 0.00000-0.22236-0.13566-0.43033 0.99075 0.87485
   1  -1  -8  224.80   71.43   1-0.75838-0.53545 0.06375 0.35955 0.64868 0.76420
  -1   1   8   77.17   95.64   1-0.58872-0.81170 0.43290 0.13661 0.68263 0.56786
   1  -1  -7   99.34   67.30   1 0.00000 0.20649-0.57315-0.31963 0.81944 0.92476
  -1   1   7  199.78   81.91   1 0.00000-0.20871-0.17495-0.42670 0.98457 0.87997
   1  -1  -7   33.81   82.15   1-0.74422-0.53498 0.11013 0.36288 0.65878 0.76296
  -1   1   7  -23.68   66.37   1-0.58482-0.79413 0.43881 0.18564 0.68221 0.57870
   1  -1  -636821.45  748.41   1 0.00000 0.19320-0.57888-0.36838 0.81540 0.90937
  -1   1   635952.09  745.30   1 0.00000-0.19507-0.21948-0.42832 0.97561 0.88231
   1  -1  -637886.24  791.01   1-0.72538-0.52983 0.16394 0.37364 0.66853 0.76136
  -1   1   639891.39  875.56   1-0.57527-0.77090 0.45302 0.24296 0.68105 0.58879
   1  -1  -5160279.8 2252.00   1 0.00000 0.17992-0.59661-0.42911 0.80252 0.88514
  -1   1   5167950.8 2303.61   1 0.00000-0.18143-0.27299-0.43891 0.96201 0.88002
   1  -1  -5159150.8 2346.27   1-0.69898-0.51712 0.22912 0.39577 0.67743 0.75891
  -1   1   5165320.0 2461.53   1-0.55655-0.73850 0.47978 0.31283 0.67827 0.59727
   1  -1  -4 6507.19  331.64   1 0.00000 0.16663-0.63598-0.51149 0.77170 0.84297
  -1   1   4 7938.26  364.80   1 0.00000-0.16779-0.34349-0.46650 0.93915 0.86846
   1  -1  -4 4271.33  269.81   1-0.65853-0.49026 0.31382 0.43765 0.68398 0.75372
  -1   1   4 4230.08  287.25   1-0.52151-0.68979 0.52644 0.40261 0.67147 0.60173
   1  -1  -3   57.74   60.60   1 0.00000 0.15335-0.71856-0.63709 0.69546 0.75537
  -1   1   3   59.79   58.34   1 0.00000-0.15335-0.44975-0.53122 0.89315 0.83323
   1  -1  -3    3.55   91.80   1-0.59151-0.43691 0.42863 0.50935 0.68291 0.74139
  -1   1   3  101.38  110.38   1-0.45398-0.60857 0.60577 0.52506 0.65340 0.59492
   1  -1  -273182.78 1253.72   1 0.00000 0.14006-0.88733-0.84887 0.46113 0.50969
  -1   1   275962.92 1310.36   1 0.00000-0.14006-0.65226-0.69071 0.75799 0.70943
   1  -1  -274822.42 1399.04   1-0.46233-0.32141 0.59663 0.63422 0.65595 0.70317
  -1   1   271951.96 1455.68   1-0.31393-0.45486 0.73591 0.69831 0.59989 0.55268
  -1   1   087038.58 1754.03   1 0.00000-0.11337 0.32577 0.37413 0.94544 0.92041
   1  -1   080508.42 1806.92   1 0.00000 0.11337 0.58380 0.53545 0.81189 0.83692
   1  -1   081901.59 1612.55   1-0.26955-0.15586-0.76928-0.81726-0.57925-0.55478
  -1   1   085575.65 1542.63   1-0.16861-0.28230-0.83315-0.78517-0.52671-0.55119
  -1   1  -1160914.6 2323.44   1 0.00000-0.09958 0.05364 0.14521 0.99856 0.98437
   1  -1   1157900.3 2362.50   1-0.50349-0.40315-0.54889-0.63995-0.66724-0.65415
  -1   1  -2  -14.10   81.10   1 0.00000-0.08593-0.07335 0.06113 0.99730 0.99442
   1  -1   2  -36.41   79.76   1 0.00000 0.08593 0.11602-0.01847 0.99324 0.99612
   1  -1   2   56.13   89.74   1-0.79201-0.70597-0.40411-0.53882 0.45761 0.45963
   1  -1   2   50.38   84.90   1-0.64819-0.56124-0.33330-0.46746-0.68465-0.68298
  -1   1  -2   12.39   69.55   1-0.56404-0.65099-0.46923-0.33507-0.67945-0.68112
  -1   1  -3  515.11  107.92   1 0.00000-0.07229-0.15054 0.02685 0.98860 0.99702
   1  -1   3  404.61  101.46   1 0.00000 0.07229 0.05625-0.12115 0.99841 0.98999
   1  -1   3  335.64  103.87   1-0.80406-0.73172-0.25165-0.42941 0.53865 0.52932
   1  -1   3  306.06   74.42   1-0.72657-0.65297-0.16073-0.33796-0.66801-0.67779
  -1   1  -3  291.77   79.89   1-0.64718-0.72078-0.33518-0.15795-0.68469-0.67492
  -1   1  -4115565.5 1755.34   1 0.00000-0.05865-0.20643 0.01389 0.97846 0.99818
   1  -1   4101468.2 1691.91   1 0.00000 0.05865 0.02938-0.19094 0.99956 0.97984
  -1   1  -4108252.5 1816.83   1-0.79625-0.85490-0.37511-0.15430 0.47461 0.49529
   1  -1   4101109.6 1595.63   1-0.79892-0.74026-0.14765-0.36846 0.58302 0.56234
   1  -1   4103577.2 1535.42   1-0.76775-0.70750-0.02896-0.24925-0.64008-0.66129
  -1   1  -4101983.6 1539.76   1-0.69262-0.75288-0.24348-0.02319-0.67895-0.65774
  -1   1  -592558.87 1427.49   1 0.00000-0.04501-0.25136 0.01187 0.96789 0.99891
   1  -1   579923.80 1403.60   1 0.00000 0.04501 0.01946-0.24377 0.99980 0.96878
  -1   1  -580722.18 1488.05   1-0.80060-0.84556-0.33447-0.07061 0.49714 0.52917
   1  -1   584203.39 1444.61   1-0.78875-0.74379-0.07082-0.33468 0.61061 0.57858
   1  -1   580193.21 1248.76   1-0.78910-0.74219 0.07293-0.19042-0.60991-0.64256
  -1   1  -584919.68 1415.31   1-0.71823-0.76515-0.18257 0.08077-0.67141-0.63876
  -1   1  -638143.06  816.25   1 0.00000-0.03136-0.28991 0.01623 0.95705 0.99937
  -1   1  -643302.13  973.12   1-0.80225-0.83352-0.31181-0.00490 0.50907 0.55245
   1  -1   645505.25  925.56   1-0.77700-0.74572-0.01002-0.31693 0.62941 0.58604
   1  -1   643468.33  849.31   1-0.79953-0.76597 0.15415-0.15226-0.58049-0.62458
  -1   1  -643931.97  868.73   1-0.73308-0.76664-0.14284 0.16357-0.66497-0.62088
  -1   1  -7144671.3 1819.82   1 0.00000-0.01772-0.32442 0.02465 0.94591 0.99953
   1  -1   7168845.7 2101.65   1 0.00000 0.01772 0.02553-0.32354 0.99967 0.94604
  -1   1  -7158028.3 2180.66   1-0.80287-0.82045-0.30055 0.04940 0.51484 0.56957
   1  -1   7155899.7 1986.94   1-0.76471-0.74712 0.04071-0.30925 0.64308 0.58835
  -1   1  -7163061.0 1987.26   1-0.74171-0.76193-0.11774 0.23173-0.66029-0.60477
   1  -1   825769.80  724.44   1 0.00000 0.00408 0.03586-0.35612 0.99935 0.93442
  -1   1  -830228.06  764.81   1-0.80304-0.80693-0.29690 0.09610 0.51668 0.58276
   1  -1   829938.21  731.57   1-0.75220-0.74831 0.08476-0.30825 0.65345 0.58737
  -1   1  -830572.74  636.02   1-0.74653-0.75340-0.10298 0.28956-0.65733-0.59036
  -1   1  -9 5038.89  267.04   1 0.00000 0.00607-0.38603 0.04866 0.92248 0.99879
   1  -1   9 4578.64  262.97   1 0.00000-0.00955 0.04917-0.38573 0.99879 0.92255
  -1   1  -9 5091.83  264.14   1-0.80296-0.79317-0.29857 0.13749 0.51584 0.59327
   1  -1   9 5183.90  304.94   1-0.73956-0.74936 0.12416-0.31189 0.66153 0.58410
  -1   1  -9 5208.40  214.91   1-0.74882-0.74234-0.09575 0.33986-0.65581-0.57741
  -1   1 -1014378.09  450.19   1 0.00000 0.01935-0.41431 0.06339 0.91013 0.99780
   1  -1  1014006.30  482.00   1 0.00000-0.02319 0.06468-0.41313 0.99790 0.91037
  -1   1 -1012766.94  453.86   1-0.80269-0.77920-0.30407 0.17503 0.51305 0.60183
   1  -1  1011908.16  436.61   1-0.72677-0.75025 0.16021-0.31889 0.66793 0.57915
  -1   1 -1012055.51  378.10   1-0.74932-0.72950-0.09413 0.38454-0.65547-0.56563
  -1   1 -1126105.07  628.68   1 0.00000 0.03264-0.44142 0.07930 0.89729 0.99631
   1  -1  1125958.07  618.50   1 0.00000-0.03684 0.08189-0.43884 0.99664 0.89780
  -1   1 -1126253.48  752.44   1-0.80221-0.76503-0.31244 0.20971 0.50875 0.60887
   1  -1  1126843.12  671.31   1-0.71379-0.75097 0.19376-0.32839 0.67301 0.57288
  -1   1 -1125937.15  563.70   1-0.74848-0.71531-0.09682 0.42490-0.65604-0.55477
  -1   1 -12 5032.03  270.84   1 0.00000 0.04592-0.46760 0.09613 0.88393 0.99430
   1  -1  12 4757.01  265.30   1 0.00000-0.05048 0.10044-0.46321 0.99494 0.88480
  -1   1 -12 5061.56  283.57   1-0.80150-0.75064-0.32301 0.24220 0.50323 0.61471
   1  -1  12 4715.64  276.85   1-0.70059-0.75146 0.22540-0.33980 0.67701 0.56554
  -1   1 -12 5117.57  275.58   1-0.74655-0.70004-0.10291 0.46189-0.65731-0.54460
  -1   1 -1313412.94  406.09   1 0.00000 0.05921-0.49301 0.11374 0.87002 0.99174
   1  -1  1313863.35  486.69   1 0.00000-0.06412 0.12007-0.48649 0.99276 0.87132
  -1   1 -1315760.03  481.61   1-0.80053-0.73597-0.33530 0.27296 0.49670 0.61953
   1  -1  1314229.10  514.29   1-0.68662-0.75084 0.25663-0.35251 0.68020 0.55853
  -1   1 -1313810.10  382.48   1-0.74370-0.68385-0.11171 0.49615-0.65910-0.53495
  -1   1 -14  876.40  128.76   1 0.00000 0.07249-0.51776 0.13199 0.85552 0.98859
   1  -1  14  989.11  142.33   1 0.00000-0.07776 0.14061-0.50886 0.99006 0.85732
  -1   1 -14  425.14  121.16   1-0.79926-0.72101-0.34896 0.30235 0.48929 0.62347
   1  -1  14   87.78  114.33   1-0.67281-0.75071 0.28559-0.36667 0.68245 0.54952
  -1   1 -14  131.88  102.04   1-0.74004-0.66684-0.12273 0.52819-0.66126-0.52567
  -1   1 -15 2318.51  172.81   1 0.00000 0.08578-0.54195 0.15082 0.84040 0.98483
   1  -1  15 2604.93  206.63   1 0.00000-0.09141 0.16193-0.53046 0.98680 0.84276
  -1   1 -15 4261.69  283.43   1-0.79765-0.70572-0.36373 0.33063 0.48107 0.62660
   1  -1  15 3455.88  296.09   1-0.65866-0.75023 0.31358-0.38180 0.68397 0.53978
  -1   1 -15 4036.11  242.62   1-0.73562-0.64907-0.13562 0.55836-0.66367-0.51664
  -1   1 -16 4635.22  250.89   1 0.00000 0.09906-0.56564 0.17014 0.82464 0.98042
   1  -1  16 3718.01  261.95   1 0.00000-0.10505 0.18391-0.55140 0.98294 0.82759
  -1   1 -16 4732.95  330.16   1-0.79568-0.69006-0.37943 0.35798 0.47213 0.62901
   1  -1  16 5037.74  339.09   1-0.64413-0.74938 0.34076-0.39774 0.68481 0.52936
  -1   1 -16 4034.44  253.77   1-0.73048-0.63058-0.15009 0.58696-0.66623-0.50777
  -1   1 -17 2146.77  184.44   1 0.00000 0.11235-0.58888 0.18992 0.80821 0.97534
  -1   1 -17 2613.18  224.33   1-0.79331-0.67399-0.39590 0.38456 0.46251 0.63074
  -1   1 -18  112.59  100.94   1 0.00000 0.12563-0.61170 0.21011 0.79108 0.96956
  -1   1 -18   97.19   92.33   1-0.79050-0.65750-0.41302 0.41049 0.45222 0.63180
  -1   1 -19  129.45   83.87   1 0.00000 0.13892-0.63413 0.23069 0.77322 0.96305
  -1   1 -19   30.96  139.70   1-0.78724-0.64054-0.43070 0.43586 0.44130 0.63223
   1   0 -1912649.80  526.81   1 0.00000 0.28523-0.76647 0.00068 0.64227 0.95845
   1   0 -1913004.92  595.36   1-0.79389-0.50020-0.39208 0.37500 0.46476 0.78048
   1   0 -18 1175.99  160.99   1 0.00000 0.27194-0.75387-0.02972 0.65701 0.96185
   1   0 -18  793.77  138.17   1-0.79661-0.51662-0.37228 0.35175 0.47624 0.78061
   1   0 -17 5466.09  318.10   1 0.00000 0.25865-0.74184-0.06070 0.67057 0.96405
  -1   0  17 4379.85  303.43   1 0.00000-0.26464 0.02351-0.65536 0.99972 0.70743
   1   0 -17 5816.44  321.74   1-0.79886-0.53256-0.35283 0.32815 0.48715 0.78018
   1   0 -16 2480.08  196.71   1 0.00000 0.24537-0.73052-0.09240 0.68288 0.96501
  -1   0  16 2241.71  194.38   1 0.00000-0.25100-0.01221-0.64817 0.99992 0.71893
   1   0 -16 1849.39  181.99   1-0.80066-0.54805-0.33379 0.30414 0.49751 0.77919
  -1   0  16 1794.40  214.92   1-0.62363-0.87609 0.37679-0.26233 0.68491 0.40451
   1   0 -16 1794.47  148.39   1-0.79810-0.55080 0.13956 0.77764-0.58613-0.30310
   1   0 -15 8016.05  354.18   1 0.00000 0.23208-0.72012-0.12501 0.69384 0.96462
  -1   0  15 8770.63  401.68   1 0.00000-0.23736-0.04886-0.64191 0.99880 0.72911
   1   0 -15 7462.98  359.51   1-0.80203-0.56311-0.31524 0.27963 0.50730 0.77762
  -1   0  15 6143.31  327.51   1-0.63749-0.87628 0.35270-0.24330 0.68497 0.41583
   1   0 -14  607.23   95.33   1 0.00000 0.21880-0.71085-0.15875 0.70333 0.96276
  -1   0  14  521.12  113.32   1 0.00000-0.22372-0.08668-0.63681 0.99623 0.73784
   1   0 -14  765.11  132.18   1-0.80302-0.57779-0.29728 0.25455 0.51649 0.77547
  -1   0  14  739.44  149.14   1-0.65095-0.87606 0.32818-0.22470 0.68450 0.42662
   1   0 -1320806.49  489.13   1 0.00000 0.20551-0.70302-0.19393 0.71117 0.95924
  -1   0  1317595.95  579.00   1 0.00000-0.21008-0.12596-0.63318 0.99203 0.74494
   1   0 -1324447.85  651.97   1-0.80366-0.59212-0.28003 0.22875 0.52507 0.77269
  -1   0  1323538.33  596.68   1-0.66403-0.87547 0.30315-0.20662 0.68348 0.43686
   1   0 -12 6993.12  305.33   1 0.00000 0.19223-0.69700-0.23093 0.71706 0.95379
  -1   0  12 6102.25  277.66   1 0.00000-0.19643-0.16711-0.63141 0.98593 0.75015
   1   0 -12 7464.04  340.71   1-0.80399-0.60614-0.26366 0.20206 0.53298 0.76925
  -1   0  12 7125.88  356.79   1-0.67677-0.87453 0.27747-0.18918 0.68189 0.44653
   1   0 -1137923.63  827.77   1 0.00000 0.17894-0.69330-0.27025 0.72064 0.94601
  -1   0  1137784.82  911.85   1 0.00000-0.18279-0.21064-0.63202 0.97756 0.75308
   1   0 -1133792.55  818.37   1-0.80406-0.61989-0.24841 0.17426 0.54016 0.76508
  -1   0  1136453.51  906.00   1-0.68922-0.87330 0.25099-0.17254 0.67968 0.45558
   1   0 -10  762.55  119.42   1 0.00000 0.16566-0.69259-0.31255 0.72132 0.93534
  -1   0  10  827.44  107.47   1 0.00000-0.16915-0.25724-0.63571 0.96634 0.75316
   1   0 -10  557.59  120.06   1-0.80392-0.63345-0.23461 0.14501 0.54649 0.76007
  -1   0  10  688.21  122.01   1-0.70180-0.87227 0.22261-0.15702 0.67669 0.46312
   1   0  -912941.14  405.93   1 0.00000 0.15237-0.69579-0.35876 0.71823 0.92090
  -1   0   912856.79  431.99   1 0.00000-0.15551-0.30787-0.64342 0.95142 0.74954
   1   0  -912761.73  456.53   1-0.80366-0.64687-0.22274 0.11383 0.55182 0.75404
  -1   0   912568.63  447.75   1-0.71382-0.87060 0.19370-0.14287 0.67300 0.47078
   1   0  -8   24.15   72.08   1 0.00000 0.13909-0.70416-0.41015 0.71003 0.90134
  -1   0   8   -5.21   48.61   1 0.00000-0.14187-0.36385-0.65648 0.93145 0.74088
   1   0  -8   28.46   58.84   1-0.80336-0.66027-0.21354 0.07998 0.55588 0.74675
  -1   0   8   -9.32   59.71   1-0.72577-0.86886 0.16289-0.13064 0.66836 0.47749
   1   0  -7  197.19   85.19   1 0.00000 0.12580-0.71948-0.46848 0.69450 0.87446
  -1   0   7  298.49   92.38   1 0.00000-0.12580-0.42683-0.67783 0.90432 0.72436
   1   0  -7  173.57   92.25   1-0.80315-0.67375-0.20816 0.04231 0.55822 0.73774
  -1   0   7  110.32   67.28   1-0.73780-0.86720 0.12932-0.12115 0.66251 0.48298
   1   0  -610303.12  435.76   1 0.00000 0.11252-0.74423-0.53625 0.66791 0.83652
  -1   0   611912.45  506.54   1 0.00000-0.11252-0.49951-0.70750 0.86630 0.69769
   1   0  -610007.12  473.77   1-0.80317-0.68745-0.20856-0.00113 0.55804 0.72622
  -1   0   610047.94  447.92   1-0.75010-0.86582 0.09161-0.11581 0.65493 0.48676
   1   0  -5 3189.33  200.46   1 0.00000 0.09923-0.78173-0.61675 0.62361 0.78087
  -1   0   5 3073.10  207.76   1 0.00000-0.09923-0.58548-0.75045 0.81068 0.65342
   1   0  -5 3548.69  232.63   1-0.80352-0.70150-0.21828-0.05390 0.55379 0.71062
  -1   0   5 3295.18  228.02   1-0.76299-0.86501 0.04715-0.11722 0.64468 0.48786
   1   0  -4279228.5 3702.44   1 0.00000 0.08595-0.83564-0.71368 0.54926 0.69516
  -1   0   4271037.5 3496.64   1 0.00000-0.08595-0.68877-0.81073 0.72497 0.57907
   1   0  -4269123.0 3506.03   1-0.80404-0.71570-0.24448-0.12315 0.54198 0.68745
  -1   0   4257268.6 3410.37   1-0.77684-0.86517-0.00930-0.13063 0.62962 0.48414
  -1   0   3  -11.03   85.04   1 0.00000-0.07266-0.81057-0.88951 0.58564 0.45108
   1   0  -3   20.10   80.40   1-0.80271-0.72807-0.30364-0.22536 0.51327 0.64739
  -1   0   3    5.30   79.85   1-0.79182-0.86646-0.09027-0.16855 0.60403 0.46991
  -1   0   2255627.5 3505.01   1 0.00000-0.06046 0.97932 0.94377-0.20228-0.32500
   1   0  -2271099.2 3707.58   1 0.00000 0.06046 0.93581 0.97136-0.35249-0.22977
   1   0  -1371088.1 4851.69   1 0.00000 0.04686 0.99999 0.99251 0.00127 0.11274
   1   0   0375319.3 4994.17   1 0.00000 0.03329 0.91890 0.86839 0.39447 0.49475
   1   0   1153099.9 2374.36   1 0.00000 0.01968 0.73595 0.64243 0.67703 0.76609
  -1   0  -1151407.7 2325.51   1-0.59027-0.61024 0.43055 0.52440 0.68279 0.59380
   1   0   1161941.8 2590.49   1-0.44673-0.42676 0.61355 0.51970 0.65112 0.74011
   1   0   1155589.1 2394.22   1-0.44183-0.42132-0.61875-0.71264-0.64955-0.56090
  -1   0  -1152481.9 2460.22   1-0.32084-0.34134-0.73041-0.63652-0.60295-0.69160
  -1   0  -222417.84  866.85   1 0.00000-0.00606 0.42536 0.56189 0.90502 0.82718
   1   0   222434.08  845.32   1 0.00000 0.00606 0.56209 0.42556 0.82707 0.90490
  -1   0  -223118.51  841.16   1-0.68305-0.68935 0.26430 0.40127 0.68086 0.60313
   1   0   222868.09  834.89   1-0.57680-0.57050 0.45077 0.31380 0.68124 0.75897
   1   0   221999.46  761.71   1-0.65083-0.64376-0.32841-0.46548-0.68451-0.60735
  -1   0  -224352.54  702.66   1-0.54265-0.54971-0.49880-0.36173-0.67580-0.75296
  -1   0  -3200146.2 3099.21   1 0.00000 0.00819 0.25490 0.43434 0.96696 0.90070
   1   0   3193338.7 2864.46   1 0.00000-0.00755 0.43615 0.25661 0.89987 0.96648
  -1   0  -3200611.2 2889.03   1-0.72175-0.71425 0.17350 0.35353 0.67004 0.60402
   1   0   3207080.0 2958.53   1-0.62132-0.62869 0.38070 0.20062 0.68485 0.75132
   1   0   3195356.5 2630.80   1-0.74347-0.74975-0.11241-0.29255-0.65924-0.59352
  -1   0  -3209858.0 2883.18   1-0.65039-0.64411-0.32922-0.14909-0.68453-0.75025
  -1   0  -419686.90  818.41   1 0.00000 0.02183 0.12613 0.34849 0.99201 0.93705
   1   0   419156.29  693.88   1 0.00000-0.02183 0.35051 0.12815 0.93655 0.99151
  -1   0  -418377.04  665.39   1-0.74330-0.72212 0.11294 0.33601 0.65934 0.60467
   1   0   419875.80  761.65   1-0.63947-0.66052 0.34917 0.12597 0.68494 0.74015
   1   0   419278.61  671.75   1-0.78256-0.80219 0.03673-0.18645-0.62148-0.56720
  -1   0  -419749.01  692.74   1-0.70212-0.68249-0.22186 0.00133-0.67660-0.73089
  -1   0  -5  357.06   82.88   1 0.00000 0.03547 0.02590 0.29117 0.99966 0.95601
   1   0   5  243.64  103.21   1 0.00000-0.03547 0.29579 0.03052 0.95525 0.99890
  -1   0  -5   93.19   69.01   1-0.75771-0.72283 0.06610 0.33223 0.64923 0.60591
   1   0   5  183.28   79.37   1-0.64653-0.68126 0.33637 0.07005 0.68472 0.72867
   1   0   5  143.95   71.74   1-0.79850-0.83147 0.14343-0.12283-0.58465-0.54181
  -1   0  -5  102.33   74.20   1-0.72841-0.69543-0.15577 0.11049-0.66719-0.71004
  -1   0  -6 4975.86  315.62   1 0.00000 0.04912-0.05489 0.25329 0.99849 0.96613
   1   0   6 5358.26  331.53   1 0.00000-0.04912 0.26104-0.04714 0.96532 0.99767
  -1   0  -6 5807.37  349.10   1-0.76831-0.71975 0.02675 0.33593 0.63950 0.60753
   1   0   6 6252.47  332.11   1-0.64786-0.69627 0.33392 0.02448 0.68466 0.71736
  -1   0  -6 6032.61  284.47   1-0.74244-0.69612-0.11554 0.19378-0.65986-0.69127
  -1   0  -7389238.5 4154.72   1 0.00000 0.06276-0.12229 0.22881 0.99249 0.97144
   1   0   7398653.4 4391.05   1 0.00000-0.06276 0.23999-0.11111 0.97077 0.99182
  -1   0  -7367999.4 3976.32   1-0.77657-0.71431-0.00808 0.34414 0.62997 0.60935
   1   0   7377435.4 4086.83   1-0.64578-0.70786 0.33774-0.01480 0.68475 0.70618
  -1   0  -7382844.8 3964.94   1-0.75000-0.69033-0.09193 0.26045-0.65500-0.67497
  -1   0  -8 7237.01  317.74   1 0.00000 0.07640-0.18020 0.21381 0.98362 0.97388
   1   0   8 7410.08  361.41   1 0.00000-0.07640 0.22862-0.16539 0.97351 0.98326
  -1   0  -8 7536.91  324.49   1-0.78320-0.70726-0.04001 0.35526 0.62047 0.61120
   1   0   8 7630.64  386.61   1-0.64143-0.71719 0.34564-0.05002 0.68489 0.69507
  -1   0  -8 6895.06  256.89   1-0.75380-0.68079-0.07945 0.31599-0.65227-0.66080
  -1   0  -913541.88  409.06   1 0.00000 0.09004-0.23120 0.20573 0.97290 0.97445
   1   0   913392.34  464.28   1 0.00000-0.09004 0.22428-0.21265 0.97452 0.97297
  -1   0  -912319.18  426.91   1-0.78861-0.69897-0.06996 0.36836 0.61089 0.61297
   1   0   912495.34  492.10   1-0.63544-0.72488 0.35633-0.08244 0.68500 0.68391
  -1   0  -911345.66  344.68   1-0.75520-0.66884-0.07473 0.36378-0.65121-0.64830
  -1   0 -10 7598.24  336.25   1 0.00000 0.10369-0.27704 0.20281 0.96085 0.97371
   1   0  10 8690.40  369.02   1 0.00000-0.10369 0.22520-0.25465 0.97431 0.96145
  -1   0 -10 9270.17  374.33   1-0.79302-0.68970-0.09852 0.38286 0.60116 0.61459
   1   0  10 9958.56  420.43   1-0.62818-0.73129 0.36900-0.11289 0.68499 0.67264
  -1   0 -10 9029.01  327.41   1-0.75494-0.65523-0.07562 0.40595-0.65141-0.63707
  -1   0 -11 6255.12  276.29   1 0.00000 0.11733-0.31890 0.20386 0.94778 0.97194
   1   0  11 6886.38  302.34   1 0.00000-0.11733 0.23014-0.29262 0.97315 0.94900
  -1   0 -11 6988.67  355.18   1-0.79659-0.67958-0.12605 0.39838 0.59122 0.61600
   1   0  11 8051.17  363.54   1-0.61987-0.73666 0.38313-0.14188 0.68480 0.66120
  -1   0 -11 7270.00  265.96   1-0.75342-0.64037-0.08072 0.44392-0.65255-0.62677
  -1   0 -12 2989.56  201.84   1 0.00000 0.13097-0.35765 0.20803 0.93385 0.96931
   1   0  12 2652.72  216.56   1 0.00000-0.13097 0.23824-0.32744 0.97120 0.93574
  -1   0 -12 2360.32  225.88   1-0.79941-0.66870-0.15281 0.41467 0.58102 0.61715
   1   0  12 2385.86  200.22   1-0.61066-0.74112 0.39835-0.16978 0.68439 0.64953
  -1   0 -12 2240.17  164.22   1-0.75089-0.62449-0.08906 0.47864-0.65438-0.61717
  -1   0 -13  500.65  100.64   1 0.00000 0.13989-0.39355 0.21571 0.91929 0.96638
   1   0  13  475.83   96.98   1 0.00000-0.14461 0.24886-0.35973 0.96853 0.92177
  -1   0 -13  475.81   94.67   1-0.80153-0.65714-0.17899 0.43154 0.57052 0.61800
   1   0  13  343.35  126.91   1-0.60065-0.74479 0.41441-0.19684 0.68372 0.63760
  -1   0 -13  331.27   73.67   1-0.74748-0.60774-0.09997 0.51080-0.65670-0.60805
  -1   0 -1440472.25  670.63   1 0.00000 0.15318-0.42772 0.22456 0.90390 0.96234
   1   0  1436960.78  796.97   1 0.00000-0.15825 0.26155-0.38996 0.96518 0.90712
  -1   0 -1440364.13  822.05   1-0.80300-0.64491-0.20471 0.44887 0.55971 0.61854
   1   0  1439421.91  969.92   1-0.58989-0.74770 0.43112-0.22324 0.68275 0.62537
  -1   0 -1437144.36  620.51   1-0.74329-0.59020-0.11296 0.54087-0.65935-0.59926
  -1   0 -1511240.49  411.98   1 0.00000 0.16646-0.46019 0.23511 0.88781 0.95760
   1   0  1510148.48  487.69   1 0.00000-0.17190 0.27595-0.41848 0.96117 0.89180
  -1   0 -15 9688.70  407.79   1-0.80384-0.63206-0.23008 0.46655 0.54854 0.61872
   1   0  1510153.73  511.13   1-0.57843-0.74992 0.44836-0.24912 0.68145 0.61281
  -1   0 -15 9564.34  368.65   1-0.73836-0.57192-0.12769 0.56921-0.66220-0.59067
  -1   0 -16 6503.11  294.57   1 0.00000 0.17975-0.49122 0.24709 0.87103 0.95217
   1   0  16 5889.77  356.58   1 0.00000-0.18554 0.29179-0.44555 0.95648 0.87581
  -1   0 -16 6104.93  343.81   1-0.80405-0.61859-0.25517 0.48451 0.53700 0.61853
   1   0  16 5049.67  348.77   1-0.56630-0.75147 0.46601-0.27459 0.67979 0.59990
  -1   0 -16 5294.94  242.83   1-0.73271-0.55293-0.14387 0.59609-0.66515-0.58218
  -1   0 -17  131.06   78.78   1 0.00000 0.19303-0.52102 0.26030 0.85354 0.94603
  -1   0 -17   84.38   94.81   1-0.80366-0.60451-0.28004 0.50269 0.52506 0.61795
  -1   0 -18  -24.36   71.67   1 0.00000 0.20632-0.54976 0.27458 0.83532 0.93916
  -1   0 -18  -18.68   81.45   1-0.80265-0.58981-0.30473 0.52105 0.51271 0.61694
  -1   0 -19    1.32   76.20   1 0.00000 0.21960-0.57755 0.28980 0.81635 0.93155
  -1   0 -19   46.40  128.74   1-0.80102-0.57449-0.32929 0.53955 0.49991 0.61549
   1   1 -19 1069.29  203.31   1 0.00000 0.20454-0.80958-0.04494 0.58699 0.97782
   1   1 -18 4082.05  241.66   1 0.00000 0.19125-0.80085-0.07922 0.59886 0.97833
   1   1 -17   78.09   75.24   1 0.00000 0.17797-0.79298-0.11436 0.60924 0.97736
   1   1 -16   33.59   93.46   1 0.00000 0.16468-0.78616-0.15056 0.61801 0.97478
  -1  -1  16  -21.42  105.43   1 0.00000-0.17051-0.11749-0.75142 0.99307 0.63740
   1   1 -16  -12.51   82.50   1-0.79409-0.62669 0.10624 0.74141-0.59843-0.23990
   1   1 -1513555.53  461.96   1 0.00000 0.15140-0.78062-0.18803 0.62500 0.97042
  -1  -1  1511787.22  516.74   1 0.00000-0.15687-0.15864-0.74965 0.98733 0.64296
  -1  -1  1513606.91  598.08   1-0.70555-0.86464 0.21377-0.37884 0.67563 0.32996
   1   1 -1513773.04  430.92   1-0.79754-0.64348 0.13441 0.72652-0.58808-0.24100
   1   1 -14 8847.17  366.87   1 0.00000 0.13811-0.77661-0.22703 0.62997 0.96404
  -1  -1  14 6354.96  316.36   1 0.00000-0.14323-0.20128-0.74937 0.97953 0.64646
  -1  -1  14 9015.80  386.64   1-0.71997-0.86536 0.17813-0.37143 0.67075 0.33642
   1   1 -14 8377.54  293.60   1-0.80029-0.65957 0.16275 0.71179-0.57709-0.24144
   1   1 -1369686.53  939.83   1 0.00000 0.12483-0.77447-0.26791 0.63260 0.95532
  -1  -1  1366489.01 1027.79   1 0.00000-0.12959-0.24572-0.75089 0.96934 0.64757
  -1  -1  1366010.75 1057.97   1-0.73393-0.86563 0.14044-0.36607 0.66454 0.34156
   1   1 -12 4375.97  236.71   1 0.00000 0.11154-0.77458-0.31104 0.63246 0.94382
  -1  -1  12 5410.05  288.51   1 0.00000-0.11594-0.29234-0.75460 0.95631 0.64585
   1   1 -12 4005.67  260.87   1-0.78470-0.66669-0.44313 0.02032 0.43342 0.74505
  -1  -1  12 3303.60  220.09   1-0.74740-0.86541 0.10024-0.36322 0.65676 0.34513
   1   1 -1171065.94 1090.99   1 0.00000 0.09826-0.77745-0.35691 0.62894 0.92895
  -1  -1  1168791.03 1164.60   1 0.00000-0.10230-0.34161-0.76096 0.93984 0.64068
   1   1 -1178240.60 1277.52   1-0.78439-0.68006-0.44462-0.02421 0.43247 0.73274
  -1  -1  1178863.12 1264.00   1-0.76031-0.86463 0.05690-0.36351 0.64705 0.34678
   1   1 -10 2121.85  172.06   1 0.00000 0.08497-0.78365-0.40613 0.62119 0.90985
  -1  -1  10 2339.40  215.98   1 0.00000-0.08497-0.39406-0.77158 0.91908 0.63042
  -1  -1  10 1641.85  176.97   1-0.77251-0.86315 0.00959-0.36777 0.63492 0.34599
   1   1  -9 1149.62  113.34   1 0.00000 0.07169-0.79392-0.45941 0.60801 0.88532
  -1  -1   9 1763.76  161.29   1 0.00000-0.07169-0.45030-0.78481 0.89287 0.61556
  -1  -1   9 1184.07  141.08   1-0.78374-0.86068-0.04282-0.37713 0.61960 0.34202
   1   1  -8 7180.21  344.01   1 0.00000 0.05840-0.80910-0.51760 0.58766 0.85362
  -1  -1   8 7422.73  319.48   1 0.00000-0.05840-0.51122-0.80271 0.85944 0.59349
  -1  -1   8 7567.80  320.59   1-0.79350-0.85675-0.10190-0.39316 0.59997 0.33375
   1   1  -712362.68  387.94   1 0.00000 0.04512-0.83011-0.58163 0.55760 0.81220
  -1  -1   713431.71  483.17   1 0.00000-0.04512-0.57763-0.82611 0.81629 0.56169
  -1  -1   713142.81  458.61   1-0.80086-0.85043-0.16983-0.41804 0.57425 0.31938
   1   1  -6 4592.24  273.59   1 0.00000 0.03183-0.85776-0.65229 0.51404 0.75729
  -1  -1   6 4561.48  258.58   1 0.00000-0.03183-0.65024-0.85570 0.75972 0.51647
  -1  -1   6 4769.73  284.85   1-0.80406-0.83993-0.24964-0.45480 0.53959 0.29606
   1   1  -510967.87  476.81   1 0.00000 0.01855-0.89227-0.72982 0.45148 0.68337
  -1  -1   511434.20  480.10   1 0.00000-0.01855-0.72913-0.89158 0.68437 0.45247
  -1  -1   511190.25  502.05   1-0.79961-0.82180-0.34534-0.50745 0.49127 0.25909
  -1  -1   4 7515.93  410.78   1 0.00000-0.00526-0.81263-0.93207 0.58276 0.36222
  -1  -1   4 6052.34  391.42   1 0.00000-0.00766 0.93208 0.81263-0.36224-0.58272
  -1  -1   314194.59  570.08   1 0.00000 0.00801-0.89516-0.97158 0.44574 0.23654
  -1  -1   314721.04  686.13   1 0.00000 0.00593 0.97169 0.89526-0.23625-0.44548
  -1  -1   2187724.0 2926.58   1 0.00000 0.01954 0.99785 0.96445-0.06553-0.26352
   1   1  -2163188.2 2473.38   1 0.00000-0.01954 0.96413 0.99753-0.26540-0.06741
  -1  -1   1458909.8 5719.77   1 0.00000 0.03314 0.98904 0.99868 0.14757-0.03915
   1   1  -1469729.2 5942.13   1 0.00000-0.03314 0.99898 0.98935-0.04502 0.14171
  -1  -1   0265560.2 3748.52   1 0.00000 0.04675 0.92518 0.97785 0.37950 0.20401
   1   1   0280437.6 3914.07   1 0.00000-0.04675 0.98127 0.92861 0.19259 0.36807
  -1  -1  -1194591.7 2754.12   1 0.00000 0.06039 0.80674 0.90242 0.59089 0.42658
   1   1   1201185.5 2957.24   1 0.00000-0.06039 0.91208 0.81639 0.41001 0.57432
  -1  -1  -1195690.7 2894.03   1-0.18364-0.12361 0.82464 0.92059 0.53500 0.37044
   1   1   1197783.6 2869.73   1-0.43463-0.49396-0.62628-0.72300-0.64719-0.48297
  -1  -1  -2  127.86  103.93   1 0.00000 0.07401 0.65780 0.79648 0.75319 0.60010
   1   1   2   93.04   80.68   1 0.00000-0.07401 0.81429 0.67560 0.58045 0.73354
  -1  -1  -2  138.34   88.67   1-0.35868-0.28506 0.69867 0.83774 0.61902 0.46574
   1   1   2  136.85  125.65   1-0.16244-0.23616 0.83654 0.69747 0.52326 0.67657
   1   1   2   98.39   53.38   1-0.71588-0.78871-0.18854-0.32851-0.67227-0.51962
  -1  -1  -2   83.28   67.83   1-0.40266-0.32998-0.65826-0.51846-0.63603-0.78886
  -1  -1  -333361.10  753.09   1 0.00000 0.08762 0.50605 0.68775 0.86250 0.72063
   1   1   331932.43  776.04   1 0.00000-0.08762 0.71400 0.53231 0.70013 0.84200
  -1  -1  -336679.82  858.56   1-0.47931-0.39201 0.57749 0.75968 0.66087 0.51884
   1   1   334239.57  859.22   1-0.28299-0.37029 0.75953 0.57734 0.58567 0.72770
   1   1   334328.83  697.87   1-0.78766-0.87382 0.06435-0.11868-0.61273-0.47152
  -1  -1  -334350.85  760.56   1-0.60355-0.51739-0.40979-0.22675-0.68394-0.82516
  -1  -1  -411884.08  508.91   1 0.00000 0.10232 0.36489 0.58928 0.93105 0.80141
   1   1   411183.04  512.48   1 0.00000-0.10124 0.62635 0.40164 0.77953 0.91017
  -1  -1  -411898.58  560.77   1-0.56165-0.46067 0.47263 0.69793 0.67909 0.54832
   1   1   411726.83  578.28   1-0.36215-0.46313 0.69563 0.47032 0.62043 0.75119
  -1  -1  -412998.39  514.48   1-0.68427-0.58476-0.26169-0.03559-0.68064-0.81042
  -1  -1  -5168529.5 2482.86   1 0.00000 0.11597 0.24425 0.51156 0.96970 0.85137
   1   1   5162243.1 2507.28   1 0.00000-0.11486 0.55592 0.28820 0.83123 0.95065
  -1  -1  -5164039.8 2355.88   1-0.61929-0.50464 0.38410 0.65252 0.68478 0.56528
   1   1   5176604.3 2663.58   1-0.41404-0.52869 0.64714 0.37872 0.64013 0.75963
  -1  -1  -5173854.0 2332.03   1-0.72040-0.60754-0.17701 0.09215-0.67058-0.78892
  -1  -1  -618986.91  568.86   1 0.00000 0.12961 0.14090 0.45113 0.99002 0.88299
   1   1   619032.82  591.12   1 0.00000-0.12847 0.50193 0.19120 0.86490 0.97310
  -1  -1  -618932.11  590.67   1-0.66109-0.53276 0.30889 0.62042 0.68377 0.57552
   1   1   619932.77  641.72   1-0.44818-0.57650 0.61201 0.30048 0.65158 0.75983
  -1  -1  -619254.96  443.57   1-0.73814-0.61194-0.12832 0.18390-0.66232-0.76922
  -1  -1  -761793.72 1087.45   1 0.00000 0.14325 0.05210 0.40524 0.99864 0.90291
   1   1   753174.96  982.22   1 0.00000-0.14209 0.46185 0.10812 0.88695 0.98392
  -1  -1  -756111.14 1024.54   1-0.69292-0.55083 0.24281 0.59731 0.67889 0.58292
   1   1   757604.26 1156.60   1-0.47054-0.61255 0.58747 0.23281 0.65837 0.75536
  -1  -1  -753524.26  863.01   1-0.74719-0.60764-0.10090 0.25439-0.65689-0.75236
  -1  -1  -827136.01  653.04   1 0.00000 0.15689-0.02500 0.37105 0.99968 0.91526
   1   1   825494.04  660.03   1 0.00000-0.15570 0.43302 0.03628 0.90138 0.98713
  -1  -1  -827267.38  701.97   1-0.71701-0.56123 0.18567 0.58322 0.67186 0.58724
   1   1   827342.97  784.87   1-0.48484-0.64051 0.57110 0.17333 0.66239 0.74812
  -1  -1  -825540.52  628.62   1-0.75157-0.59867-0.08684 0.31151-0.65390-0.73793
  -1  -1  -9 4857.54  306.29   1 0.00000 0.17053-0.09284 0.34612 0.99567 0.92255
   1   1   9 5165.09  337.15   1 0.00000-0.16932 0.41313-0.02661 0.91066 0.98520
  -1  -1  -9 5775.72  373.72   1-0.73603-0.56655 0.13445 0.57505 0.66345 0.59018
   1   1   9 6037.23  413.70   1-0.49338-0.66274 0.56104 0.12016 0.66467 0.73914
  -1  -1  -9 5427.12  308.78   1-0.75313-0.58688-0.08169 0.35973-0.65277-0.72536
  -1  -1 -10 3008.45  224.69   1 0.00000 0.18418-0.15333 0.32855 0.98817 0.92635
   1   1  10 2326.21  216.76   1 0.00000-0.18418 0.39781-0.08408 0.91746 0.97928
  -1  -1 -10 2012.42  189.41   1-0.75128-0.56812 0.08779 0.57144 0.65411 0.59219
   1   1  10 2394.86  267.68   1-0.49769-0.68073 0.55589 0.07189 0.66578 0.72899
  -1  -1 -10 2124.24  156.76   1-0.75281-0.57322-0.08275 0.40173-0.65301-0.71416
  -1  -1 -1131611.98  710.91   1 0.00000 0.19782-0.20796 0.31684 0.97813 0.92761
   1   1  1129922.92  824.53   1 0.00000-0.19782 0.39073-0.13407 0.92050 0.97102
  -1  -1 -1130095.55  697.66   1-0.76365-0.56680 0.04468 0.57139 0.64407 0.59350
   1   1  1130538.83  765.37   1-0.49878-0.69548 0.55459 0.02747 0.66606 0.71801
  -1  -1 -1128518.87  631.12   1-0.75111-0.55817-0.08835 0.43919-0.65423-0.70395
  -1  -1 -12 2533.78  193.63   1 0.00000 0.21146-0.25785 0.30986 0.96618 0.92696
   1   1  12 2181.91  246.88   1 0.00000-0.21146 0.38826-0.17946 0.92154 0.96076
  -1  -1 -12 2007.31  188.57   1-0.77373-0.56319 0.00440 0.57415 0.63349 0.59427
   1   1  12 1890.56  226.35   1-0.49731-0.70769 0.55636-0.01387 0.66568 0.70638
  -1  -1 -12 2190.09  148.74   1-0.74831-0.54202-0.09737 0.47324-0.65616-0.69444
  -1  -1 -1319973.35  530.13   1 0.00000 0.22510-0.30389 0.30674 0.95270 0.92478
   1   1  1319914.13  708.38   1 0.00000-0.22510 0.38955-0.22108 0.92100 0.94891
  -1  -1 -1319711.08  493.83   1-0.78195-0.55771-0.03362 0.57917 0.62243 0.59456
   1   1  1320779.13  656.43   1-0.49377-0.71783 0.56058-0.05276 0.66477 0.69420
  -1  -1 -1320009.41  449.04   1-0.74457-0.52494-0.10905 0.50462-0.65856-0.68541
  -1  -1 -14 1820.38  151.52   1 0.00000 0.23875-0.34675 0.30680 0.93795 0.92134
   1   1  14  846.86  144.52   1 0.00000-0.23875 0.39396-0.25959 0.91912 0.93573
  -1  -1 -14  765.76  125.61   1-0.78858-0.55066-0.06982 0.58602 0.61094 0.59442
   1   1  14  707.55  127.86   1-0.48851-0.72624 0.56680-0.08966 0.66338 0.68155
  -1  -1 -14  742.50  113.22   1-0.73999-0.50702-0.12287 0.53386-0.66128-0.67669
  -1  -1 -15  254.18   96.74   1 0.00000 0.24715-0.38628 0.31153 0.92237 0.91752
   1   1  15   67.51   94.44   1 0.00000-0.25239 0.40097-0.29549 0.91608 0.92140
  -1  -1 -15   42.89  109.43   1-0.79386-0.54225-0.10453 0.59437 0.59904 0.59387
   1   1  15  101.51  133.99   1-0.48176-0.73317 0.57467-0.12491 0.66155 0.66846
  -1  -1 -15  112.21   74.82   1-0.73463-0.48831-0.13845 0.56135-0.66418-0.66815
  -1  -1 -16 5080.21  331.31   1 0.00000 0.26043-0.42417 0.31666 0.90558 0.91208
   1   1  16 5732.88  339.19   1 0.00000-0.26463 0.41273-0.32807 0.91084 0.90682
  -1  -1 -16 7375.05  420.80   1-0.79793-0.53263-0.13800 0.60395 0.58673 0.59291
  -1  -1 -16 5423.50  334.45   1-0.72851-0.46884-0.15549 0.58737-0.66715-0.65968
  -1  -1 -17  305.88   91.85   1 0.00000 0.27372-0.46014 0.32370 0.88784 0.90569
  -1  -1 -17  429.67  142.62   1-0.80091-0.52192-0.17045 0.61455 0.57400 0.59153
  -1  -1 -17  164.93   80.32   1-0.72163-0.44862-0.17381 0.61212-0.67009-0.65118
  -1  -1 -18    7.01   62.98   1 0.00000 0.28700-0.49446 0.33240 0.86919 0.89840
  -1  -1 -18  218.45  145.40   1-0.80288-0.51019-0.20203 0.62602 0.56085 0.58974
  -1  -1 -19 3273.30  238.97   1 0.00000 0.30029-0.52733 0.34254 0.84965 0.89021
   1   2 -1912750.32  457.79   1 0.00000 0.12385-0.85251-0.09038 0.52270 0.98817
   1   2 -18 5545.61  334.40   1 0.00000 0.11057-0.84706-0.12796 0.53148 0.98559
   1   2 -17 3707.94  239.64   1 0.00000 0.09728-0.84265-0.16655 0.53845 0.98122
   1   2 -16 1278.72  172.69   1 0.00000 0.08400-0.83943-0.20635 0.54345 0.97486
  -1  -2  16 1179.71  145.41   1-0.73845-0.83138 0.12743-0.50596 0.66215 0.22978
   1   2 -15 8265.11  365.81   1 0.00000 0.07071-0.83763-0.24756 0.54622 0.96628
  -1  -2  15 7946.15  400.32   1 0.00000-0.07638-0.24184-0.83082 0.97031 0.55127
  -1  -2  15 6489.60  350.11   1-0.75200-0.83124 0.08543-0.50491 0.65359 0.23257
   1   2 -15 6824.40  258.86   1-0.79081-0.71663 0.08360 0.67280-0.60632-0.18374
   1   2 -14 2988.36  215.23   1 0.00000 0.05743-0.83748-0.29042 0.54646 0.95517
  -1  -2  14 2980.41  199.80   1 0.00000-0.06274-0.28652-0.83258 0.95807 0.55032
  -1  -2  14 2544.85  226.65   1-0.76462-0.83017 0.04104-0.50624 0.64316 0.23349
   1   2 -14 2047.92  150.92   1-0.79425-0.73343 0.10743 0.65357-0.59800-0.18686
   1   2 -1310675.17  382.95   1 0.00000 0.04414-0.83924-0.33520 0.54375 0.94111
  -1  -2  13 8138.60  337.99   1 0.00000-0.04909-0.33284-0.83599 0.94297 0.54654
  -1  -2  1311811.25  453.41   1-0.77613-0.82800-0.00613-0.51038 0.63053 0.23220
   1   2 -1311629.72  322.55   1-0.79716-0.74968 0.13095 0.63403-0.58938-0.18968
   1   2 -12  961.78  110.30   1 0.00000 0.03086-0.84322-0.38219 0.53756 0.92356
  -1  -2  12 1459.84  144.68   1 0.00000-0.03086-0.38098-0.84200 0.92458 0.53858
  -1  -2  12  387.61  113.08   1-0.78630-0.82447-0.05662-0.51781 0.61524 0.22826
   1   2 -12  357.28   84.25   1-0.79953-0.76540 0.15416 0.61417-0.58049-0.19222
   1   2 -1143247.83  799.89   1 0.00000 0.01757-0.84975-0.43174 0.52717 0.90182
  -1  -2  1141986.20  899.50   1-0.79473-0.81921-0.11100-0.52915 0.59672 0.22110
   1   2 -1013837.66  513.86   1 0.00000 0.00429-0.85919-0.48419 0.51165 0.87495
  -1  -2  1014429.06  449.51   1 0.00000-0.00429-0.48416-0.85916 0.87497 0.51167
  -1  -2  1014124.18  516.48   1-0.80087-0.81167-0.16999-0.54509 0.57419 0.20991
   1   2  -9 7199.37  316.01   1 0.00000-0.00899-0.87186-0.53987 0.48975 0.84169
  -1  -2   9 8321.57  327.73   1 0.00000 0.00899-0.53976-0.87174 0.84181 0.48987
  -1  -2   9 7400.62  352.13   1-0.80392-0.80102-0.23439-0.56643 0.54659 0.19367
   1   2  -8   -2.04   58.82   1 0.00000-0.02227-0.88801-0.59904 0.45981 0.80040
  -1  -2   8   18.01   64.33   1 0.00000 0.02227-0.59832-0.88729 0.80125 0.46066
  -1  -2   8  119.39   63.38   1-0.80264-0.78605-0.30504-0.59403 0.51255 0.17098
  -1  -2   7 7772.19  321.09   1 0.00000 0.03556-0.65987-0.90583 0.75137 0.42213
  -1  -2   7 8759.88  358.33   1-0.79523-0.76495-0.38273-0.62867 0.47022 0.14000
  -1  -2   6 1787.96  151.43   1 0.00000 0.04884-0.72406-0.92700 0.68973 0.37184
  -1  -2   6 2047.73  160.27   1 0.00000 0.04513 0.93019 0.72683-0.36706-0.68532
  -1  -2   5  914.93  124.17   1 0.00000 0.06213-0.78980-0.94973 0.61335 0.30682
  -1  -2   5 1203.63  143.68   1 0.00000 0.05873 0.95469 0.79436-0.29758-0.60459
  -1  -2   425756.75  712.71   1 0.00000 0.07541-0.85480-0.97171 0.51895 0.22376
  -1  -2   424547.56  657.26   1 0.00000 0.07234 0.97813 0.86083-0.20795-0.50370
  -1  -2   3107489.2 1740.11   1 0.00000 0.08594 0.99548 0.92121-0.09494-0.37945
   1   2  -3106640.5 1825.09   1 0.00000-0.08598 0.91488 0.98913-0.40372-0.11920
  -1  -2   2141487.7 2163.56   1 0.00000 0.09955 0.99910 0.96786 0.04231-0.23094
   1   2  -2142728.9 2159.49   1 0.00000-0.09955 0.96376 0.99501-0.26674 0.00651
  -1  -2   1  381.57  100.66   1 0.00000 0.11315 0.97984 0.99162 0.19977-0.06223
   1   2  -1  316.10   96.47   1 0.00000-0.11315 0.99382 0.98203-0.11100 0.15100
  -1  -2   0  991.12  134.17   1 0.00000 0.12676 0.93031 0.98512 0.36676 0.11600
   1   2   0  944.05  147.56   1 0.00000-0.12676 0.99849 0.94368 0.05484 0.30560
  -1  -2  -131749.69  820.79   1 0.00000 0.14047 0.84934 0.94718 0.52783 0.28827
   1   2   131394.93  772.10   1 0.00000-0.14036 0.97598 0.87814 0.21782 0.45733
  -1  -2  -131055.67  811.41   1-0.09272 0.04724 0.87099 0.96903 0.48245 0.24234
  -1  -2  -2 1132.88  150.39   1 0.00000 0.15409 0.74379 0.88464 0.66840 0.44006
   1   2   2 1124.38  138.20   1 0.00000-0.15397 0.93099 0.79013 0.36502 0.59328
  -1  -2  -2 1375.54  187.08   1-0.22165-0.06811 0.80159 0.94276 0.55526 0.32642
  -1  -2  -324136.16  651.47   1 0.00000 0.16770 0.62511 0.80897 0.78053 0.56341
   1   2   323262.62  627.57   1 0.00000-0.16770 0.87285 0.68900 0.48797 0.70509
  -1  -2  -323674.68  748.36   1-0.33151-0.16429 0.72173 0.90602 0.60761 0.39004
   1   2   325773.48  833.65   1-0.05410-0.22145 0.88707 0.70279 0.45844 0.67604
  -1  -2  -325507.75  754.35   1-0.36310-0.19724-0.69479-0.50908-0.62081-0.83781
  -1  -2  -440797.16  853.95   1 0.00000 0.18132 0.50435 0.73121 0.86349 0.65760
   1   2   441511.27  934.56   1 0.00000-0.18132 0.81068 0.58381 0.58548 0.79137
  -1  -2  -441711.99  884.11   1-0.42174-0.24084 0.63946 0.86686 0.64282 0.43650
   1   2   445645.98 1090.78   1-0.13692-0.31795 0.84998 0.62259 0.50870 0.71504
  -1  -2  -443588.46  870.40   1-0.59520-0.41580-0.42294-0.19393-0.68326-0.88853
  -1  -2  -5 8371.21  417.41   1 0.00000 0.19645 0.38566 0.65501 0.92263 0.72963
   1   2   511020.85  445.36   1 0.00000-0.19493 0.75147 0.48159 0.65976 0.85443
  -1  -2  -511537.89  469.82   1-0.49456-0.29999 0.55964 0.83016 0.66498 0.46992
   1   2   512199.19  479.85   1-0.20202-0.39659 0.81378 0.54326 0.54492 0.73998
  -1  -2  -511306.54  373.99   1-0.67498-0.48223-0.28116-0.00909-0.68215-0.87599
  -1  -2  -616689.91  639.82   1 0.00000 0.21010 0.27909 0.59135 0.96026 0.77855
   1   2   615709.12  525.66   1 0.00000-0.20855 0.69901 0.38612 0.71511 0.89855
  -1  -2  -615541.98  524.39   1-0.55309-0.34485 0.48457 0.79821 0.67769 0.49389
   1   2   616720.74  653.24   1-0.25200-0.46024 0.78155 0.46792 0.57066 0.75446
  -1  -2  -615424.50  474.46   1-0.70963-0.50354-0.20398 0.11115-0.67439-0.85679
  -1  -2  -761363.74 1095.95   1 0.00000 0.22374 0.18274 0.53792 0.98316 0.81275
   1   2   761815.78 1272.84   1 0.00000-0.22217 0.65474 0.29885 0.75584 0.92807
  -1  -2  -760876.27 1261.94   1-0.60030-0.37837 0.41496 0.77171 0.68369 0.51115
   1   2   764506.23 1338.86   1-0.28997-0.51190 0.75435 0.39759 0.58895 0.76149
  -1  -2  -755793.59  952.22   1-0.72652-0.50708-0.16087 0.19733-0.66803-0.83900
  -1  -2  -8 1760.30  162.42   1 0.00000 0.23738 0.09618 0.49428 0.99536 0.83626
   1   2   8 1664.81  190.20   1 0.00000-0.23578 0.61872 0.21981 0.78561 0.94661
  -1  -2  -8 1455.55  157.51   1-0.63863-0.40303 0.35067 0.75054 0.68495 0.52367
   1   2   8 1659.79  198.92   1-0.31849-0.55409 0.73229 0.33242 0.60192 0.76320
  -1  -2  -8 1506.85  148.56   1-0.73498-0.50219-0.13745 0.26381-0.66400-0.82352
  -1  -2  -917680.85  538.45   1 0.00000 0.25102 0.01836 0.45937 0.99983 0.85203
   1   2   914492.85  531.24   1 0.00000-0.24940 0.59030 0.14839 0.80717 0.95696
  -1  -2  -914738.89  473.31   1-0.67002-0.42074 0.29124 0.73423 0.68281 0.53279
   1   2   914609.44  568.84   1-0.33956-0.58883 0.71505 0.27206 0.61106 0.76108
  -1  -2  -914912.29  428.29   1-0.73881-0.49268-0.12637 0.31796-0.66195-0.81004
  -1  -2 -10  209.63  103.99   1 0.00000 0.26467-0.05190 0.43201 0.99865 0.86215
   1   2  10  151.39   76.43   1 0.00000-0.26302 0.56863 0.08371 0.82258 0.96115
  -1  -2 -10  353.86  116.23   1-0.69642-0.43341 0.23496 0.72088 0.67807 0.54080
   1   2  10  272.46  143.64   1-0.35474-0.61769 0.70211 0.21601 0.61741 0.75617
  -1  -2 -10  125.49   66.00   1-0.73978-0.48030-0.12351 0.36388-0.66141-0.79806
  -1  -2 -1113535.18  404.73   1 0.00000 0.27831-0.11577 0.41107 0.99327 0.86807
   1   2  1114534.58  477.56   1 0.00000-0.27663 0.55280 0.02487 0.83331 0.96065
  -1  -2 -1115356.56  467.42   1-0.71786-0.44117 0.18352 0.71249 0.67155 0.54563
   1   2  1113820.11  546.72   1-0.36520-0.64183 0.69293 0.16371 0.62166 0.74916
  -1  -2 -1113857.54  408.59   1-0.73878-0.46596-0.12644 0.40401-0.66196-0.78718
  -1  -2 -12   98.66   92.83   1 0.00000 0.29195-0.17422 0.39553 0.98470 0.87081
   1   2  12  338.64  119.08   1 0.00000-0.29025 0.54197-0.02896 0.84039 0.95651
  -1  -2 -12  214.66  118.30   1-0.73576-0.44538 0.13522 0.70724 0.66360 0.54903
   1   2  12  421.73  137.65   1-0.37184-0.66214 0.68700 0.11466 0.62430 0.74054
  -1  -2 -12  362.33   84.80   1-0.73632-0.45014-0.13362 0.43989-0.66330-0.77708
  -1  -2 -13 1561.85  162.31   1 0.00000 0.30559-0.22810 0.38456 0.97363 0.87104
   1   2  13 2454.25  203.82   1 0.00000-0.30386 0.53543-0.07851 0.84457 0.94947
  -1  -2 -13 2894.22  212.08   1-0.75072-0.44665 0.08961 0.70468 0.65450 0.55128
   1   2  13 2244.48  252.82   1-0.37532-0.67930 0.68385 0.06840 0.62567 0.73066
  -1  -2 -13 2345.30  167.98   1-0.73265-0.43314-0.14403 0.47255-0.66518-0.76751
  -1  -2 -1416206.07  447.12   1 0.00000 0.31924-0.27812 0.37746 0.96054 0.86925
   1   2  1416468.41  558.97   1 0.00000-0.31748 0.53255-0.12440 0.84639 0.94006
  -1  -2 -1416873.34  461.82   1-0.76322-0.44546 0.04628 0.70441 0.64447 0.55260
   1   2  1416389.25  624.37   1-0.37616-0.69381 0.68309 0.02452 0.62600 0.71973
  -1  -2 -1415430.87  498.57   1-0.72796-0.41510-0.15698 0.50266-0.66739-0.75829
  -1  -2 -15 6285.36  370.42   1 0.00000 0.33288-0.32484 0.37365 0.94576 0.86577
   1   2  15 5794.09  356.13   1 0.00000-0.33110 0.53282-0.16713 0.84622 0.92867
  -1  -2 -15 6960.74  365.34   1-0.77362-0.44216 0.00490 0.70608 0.63363 0.55311
  -1  -2 -15 5427.34  334.33   1-0.72233-0.39612-0.17199 0.53072-0.66981-0.74927
  -1  -2 -16 2783.03  190.66   1 0.00000 0.34112-0.36783 0.37552 0.92988 0.86175
  -1  -2 -16 2529.11  265.18   1-0.78218-0.43704-0.03479 0.70942 0.62207 0.55290
  -1  -2 -16 2137.20  187.41   1-0.71582-0.37626-0.18869 0.55708-0.67230-0.74032
  -1  -2 -17  265.60  107.70   1 0.00000 0.35440-0.40921 0.37716 0.91243 0.85565
  -1  -2 -17  584.88  168.50   1-0.78912-0.43029-0.07307 0.71420 0.60986 0.55204
  -1  -2 -17  137.24   89.43   1-0.70845-0.35554-0.20685 0.58198-0.67476-0.73135
  -1  -2 -18  -20.64   96.44   1-0.79461-0.42209-0.11011 0.72021 0.59704 0.55057
   1   3 -1812651.52  557.46   1 0.00000 0.02988-0.89017-0.17359 0.45561 0.98436
   1   3 -17 2619.88  355.74   1 0.00000 0.01660-0.88837-0.21480 0.45911 0.97651
   1   3 -16  100.51   85.77   1 0.00000 0.00331-0.88776-0.25720 0.46030 0.96635
   1   3 -15 1661.90  190.65   1 0.00000-0.00996-0.88849-0.30094 0.45889 0.95358
  -1  -3  15 1426.12  164.44   1-0.78017-0.77957-0.02486-0.61294 0.62507 0.12869
   1   3 -15 1637.37  176.31   1-0.77913-0.78485 0.01992 0.60622-0.62653-0.12845
   1   3 -1416226.05  612.71   1 0.00000-0.02325-0.89073-0.34619 0.45452 0.93787
  -1  -3  1412550.30  509.11   1 0.00000 0.01774-0.34584-0.88986 0.93829 0.45587
  -1  -3  1416089.00  578.77   1-0.78935-0.77507-0.07448-0.61951 0.60939 0.12437
   1   3 -1414882.24  451.75   1-0.78296-0.80202 0.03878 0.58201-0.62085-0.13421
   1   3 -1321374.48  516.99   1 0.00000-0.03653-0.89465-0.39313 0.44676 0.91875
  -1  -3  1326924.04  702.81   1 0.00000 0.03653-0.39172-0.89324 0.92008 0.44809
  -1  -3  1321449.80  659.96   1-0.79668-0.76870-0.12677-0.62875 0.59095 0.11727
   1   3 -1321700.78  519.96   1-0.78631-0.81871 0.05669 0.55686-0.61522-0.14001
   1   3 -12 6266.55  330.93   1 0.00000-0.04982-0.90041-0.44190 0.43503 0.89567
  -1  -3  12 6519.34  312.07   1 0.00000 0.04982-0.43921-0.89771 0.89838 0.43774
  -1  -3  12 5856.52  295.28   1-0.80174-0.76007-0.18204-0.64097 0.56926 0.10694
   1   3 -12 5878.78  260.98   1-0.78920-0.83495 0.07351 0.53061-0.60972-0.14595
  -1  -3  11138534.6 1573.62   1-0.80400-0.74865-0.24056-0.65643 0.54378 0.09281
   1   3 -11143163.2 1286.00   1-0.79164-0.85074 0.08904 0.50308-0.60446-0.15213
  -1  -3  1027644.09  612.82   1 0.00000 0.07639-0.53889-0.91136 0.84237 0.40443
  -1  -3  1033887.01  736.59   1 0.00000 0.07077 0.91768 0.54437-0.39731-0.83584
  -1  -3  1034213.57  842.77   1-0.80277-0.73372-0.30255-0.67538 0.51382 0.07420
   1   3 -1033955.03  656.86   1-0.79365-0.86610 0.10303 0.47400-0.59957-0.15868
  -1  -3   9 2701.42  182.99   1 0.00000 0.08967-0.59118-0.92064 0.80653 0.37995
  -1  -3   9 2783.31  190.17   1 0.00000 0.08432 0.92947 0.59918-0.36887-0.79615
  -1  -3   9 2753.55  195.36   1-0.79713-0.71439-0.36815-0.69793 0.47858 0.05031
   1   3  -9 2792.24  162.20   1-0.79526-0.88104 0.11510 0.44301-0.59524-0.16578
  -1  -3   8    3.98   81.94   1 0.00000 0.10296-0.64502-0.93147 0.76416 0.34893
  -1  -3   8  -27.46   66.14   1 0.00000 0.09793 0.94310 0.65584-0.33248-0.74851
  -1  -3   8  -76.99  104.63   1-0.78592-0.68950-0.43727-0.72400 0.43715 0.02023
   1   3  -8   81.03   69.11   1-0.79644-0.89558 0.12474 0.40959-0.59170-0.17368
  -1  -3   729424.23  694.76   1 0.00000 0.11624-0.70011-0.94355 0.71402 0.31014
  -1  -3   726457.32  711.38   1 0.00000 0.11153 0.95804 0.71381-0.28662-0.69139
   1   3  -728062.20  616.61   1-0.79718-0.90967 0.13119 0.37297-0.58930-0.18272
  -1  -3   6 8151.06  466.45   1 0.00000 0.12953-0.75585-0.95627 0.65473 0.26221
  -1  -3   6 8540.53  514.58   1 0.00000 0.12514 0.97330 0.77209-0.22953-0.62306
   1   3  -6 8568.33  426.06   1-0.79742-0.92325 0.13326 0.33198-0.58852-0.19338
  -1  -3   5 2776.77  215.48   1 0.00000 0.14282-0.81116-0.96857 0.58481 0.20364
  -1  -3   5 2810.86  226.00   1 0.00000 0.13874 0.98720 0.82903-0.15943-0.54171
   1   3  -5 2540.98  160.47   1-0.79694-0.93612 0.12908 0.28473-0.59009-0.20638
  -1  -3   420866.73  596.33   1 0.00000 0.15610-0.86433-0.97873 0.50291 0.13308
  -1  -3   421058.90  628.76   1 0.00000 0.15235 0.99719 0.88204-0.07481-0.44584
   1   3  -422138.15  499.62   1-0.79529-0.94781 0.11538 0.22797-0.59514-0.22287
  -1  -3   3 3021.71  215.64   1 0.00000 0.16595 0.99968 0.92756 0.02500-0.33477
   1   3  -3 3065.92  237.35   1 0.00000-0.16599 0.91283 0.98493-0.40833-0.04853
   1   3  -3 3045.18  166.84   1-0.79118-0.95704 0.08600 0.15553-0.60550-0.24467
  -1  -3   2134428.7 1920.28   1 0.00000 0.17956 0.99028 0.96118 0.13907-0.20945
   1   3  -2131403.1 1787.48   1 0.00000-0.17956 0.95352 0.98261-0.30132 0.04720
   1   3  -2135344.4 1709.21   1-0.78075-0.95996 0.02769 0.05415-0.62422-0.27483
  -1  -3   1207704.3 2570.90   1 0.00000 0.19316 0.96449 0.97843 0.26409-0.07318
   1   3  -1212536.1 2604.19   1 0.00000-0.19316 0.98299 0.96905-0.18362 0.15365
   1   3  -1222701.1 2539.66   1-0.74901-0.94157-0.09513-0.11173-0.65568-0.31773
  -1  -3   0140270.2 1993.90   1 0.00000 0.20693 0.91897 0.97596 0.39430 0.06827
   1   3   0138557.3 1912.91   1 0.00000-0.20677 0.99824 0.94128-0.05914 0.26688
   1   3   0139533.8 2198.74   1-0.58314-0.78905-0.44134-0.50101-0.68202-0.35549
  -1  -3  -127423.60  675.97   1 0.00000 0.22055 0.85321 0.95321 0.52156 0.20675
   1   3   126899.87  759.13   1 0.00000-0.22037 0.99778 0.89779 0.06653 0.38131
  -1  -3  -127041.86  738.47   1-0.07861 0.14130 0.87711 0.97725 0.47380 0.15814
  -1  -3  -2 2992.50  237.47   1 0.00000 0.23416 0.76972 0.91273 0.63837 0.33478
   1   3   2 2802.48  229.17   1 0.00000-0.23398 0.98232 0.83929 0.18720 0.49074
  -1  -3  -2 2603.94  225.78   1-0.17588 0.05772 0.82908 0.97233 0.53074 0.22634
  -1  -3  -317102.38  529.03   1 0.00000 0.24778 0.67370 0.85972 0.73899 0.44663
   1   3   317837.74  627.95   1 0.00000-0.24759 0.95472 0.76867 0.29749 0.58977
  -1  -3  -317015.12  589.27   1-0.26541-0.01827 0.77222 0.95861 0.57725 0.28412
  -1  -3  -423562.21  654.21   1 0.00000 0.26140 0.57128 0.80031 0.82075 0.53960
   1   3   421851.44  673.58   1 0.00000-0.26140 0.91931 0.69029 0.39351 0.67466
  -1  -3  -422281.49  680.03   1-0.34545-0.08463 0.71008 0.93958 0.61355 0.33168
  -1  -3  -526837.35  687.59   1 0.00000 0.27501 0.46795 0.73998 0.88375 0.61382
   1   3   525691.37  683.25   1 0.00000-0.27501 0.88008 0.60804 0.47481 0.74474
  -1  -3  -526438.92  797.82   1-0.41559-0.14110 0.64560 0.91822 0.64068 0.37007
   1   3   526633.65  767.55   1-0.03848-0.31314 0.89297 0.62037 0.44845 0.71907
  -1  -3  -526225.39  804.62   1-0.47678-0.20437-0.58040-0.30570-0.66016-0.92993
  -1  -3  -6   67.16   83.78   1 0.00000 0.29059 0.36378 0.67808 0.93148 0.67510
   1   3   6   33.55   87.00   1 0.00000-0.28863 0.84066 0.52562 0.54155 0.80025
  -1  -3  -6   15.66   88.35   1-0.47628-0.18812 0.58096 0.89670 0.66002 0.40067
   1   3   6  109.98   91.64   1-0.08944-0.37778 0.87244 0.55672 0.48045 0.73981
  -1  -3  -6   41.64   46.97   1-0.61110-0.32511-0.39764-0.07959-0.68442-0.94231
  -1  -3  -716054.32  569.88   1 0.00000 0.30423 0.26863 0.62584 0.96324 0.71816
   1   3   717602.18  545.16   1 0.00000-0.30224 0.80354 0.44549 0.59524 0.84272
  -1  -3  -718782.70  587.58   1-0.52841-0.22657 0.51758 0.87644 0.67296 0.42487
   1   3   718215.78  616.77   1-0.13160-0.43363 0.85266 0.49382 0.50562 0.75372
  -1  -3  -714393.91  477.30   1-0.66250-0.36317-0.30613 0.05497-0.68363-0.93009
  -1  -3  -813014.74  450.45   1 0.00000 0.31787 0.18008 0.58020 0.98365 0.74987
   1   3   812257.27  457.00   1 0.00000-0.31586 0.77021 0.36915 0.63778 0.87404
  -1  -3  -811863.73  432.31   1-0.57303-0.25751 0.45629 0.85826 0.68075 0.44391
   1   3   811433.65  546.24   1-0.16598-0.48169 0.83460 0.43265 0.52524 0.76208
  -1  -3  -811284.01  408.43   1-0.68735-0.37468-0.25505 0.14912-0.68006-0.91508
  -1  -3  -9 8147.01  339.64   1 0.00000 0.33151 0.09830 0.54135 0.99515 0.77267
   1   3   9 8471.87  424.66   1 0.00000-0.32948 0.74136 0.29729 0.67109 0.89613
  -1  -3  -9 8831.84  343.89   1-0.61119-0.28200 0.39748 0.84257 0.68442 0.45885
   1   3   9 9616.16  479.33   1-0.19361-0.52301 0.81881 0.37374 0.54042 0.76600
  -1  -3  -9 7988.04  328.64   1-0.70013-0.37411-0.22647 0.22076-0.67714-0.90072
  -1  -3 -10  -23.67   80.01   1 0.00000 0.34516 0.02299 0.50895 0.99973 0.78856
   1   3  10   58.51  117.67   1 0.00000-0.34309 0.71720 0.23012 0.69685 0.91067
  -1  -3 -10  128.23   96.26   1-0.64385-0.30098 0.34127 0.82947 0.68482 0.47051
   1   3  10  309.89  138.27   1-0.21565-0.55852 0.80538 0.31717 0.55213 0.76644
  -1  -3 -10  142.77   49.03   1-0.70639-0.36702-0.21178 0.27851-0.67539-0.88753
  -1  -3 -11   30.53   96.90   1 0.00000 0.35880-0.04640 0.48247 0.99892 0.79904
   1   3  11   56.69   96.26   1 0.00000-0.35671 0.69760 0.16752 0.71648 0.91907
  -1  -3 -11   50.66   77.94   1-0.67182-0.31527 0.28760 0.81892 0.68259 0.47953
   1   3  11  -39.66  120.89   1-0.23259-0.58914 0.79453 0.26322 0.56089 0.76395
  -1  -3 -11   19.94   53.26   1-0.70867-0.35596-0.20631 0.32705-0.67469-0.87540
  -1  -3 -12 1017.73  133.34   1 0.00000 0.37244-0.11052 0.46127 0.99387 0.80530
   1   3  12  905.17  164.74   1 0.00000-0.37033 0.68227 0.10918 0.73109 0.92246
  -1  -3 -12  881.21  145.28   1-0.69630-0.32607 0.23524 0.80953 0.67810 0.48818
   1   3  12  752.22  166.11   1-0.24533-0.61555 0.78608 0.21165 0.56734 0.75913
  -1  -3 -12  718.01   90.07   1-0.70825-0.34219-0.20732 0.36910-0.67482-0.86409
  -1  -3 -1323772.71  686.03   1 0.00000 0.38608-0.16998 0.44472 0.98544 0.80817
   1   3  1322962.31  731.07   1 0.00000-0.38394 0.67086 0.05475 0.74158 0.92172
  -1  -3 -1323657.59  695.28   1-0.71679-0.33288 0.18625 0.80359 0.67194 0.49338
   1   3  1323941.50  788.65   1-0.25446-0.63836 0.77986 0.16231 0.57188 0.75242
  -1  -3 -1322267.61  651.06   1-0.70585-0.32644-0.21308 0.40641-0.67555-0.85338
  -1  -3 -14  224.47  117.70   1 0.00000 0.39973-0.22536 0.43226 0.97427 0.80830
   1   3  14  874.75  158.54   1 0.00000-0.39756 0.66297 0.00386 0.74864 0.91756
  -1  -3 -14 1057.37  169.30   1-0.73434-0.33674 0.13928 0.79967 0.66433 0.49711
  -1  -3 -14  569.17  120.76   1-0.70186-0.30910-0.22247 0.44008-0.67668-0.84307
  -1  -3 -15 2710.48  214.52   1 0.00000 0.41337-0.27717 0.42336 0.96081 0.80615
   1   3  15 2170.40  241.99   1 0.00000-0.41117 0.65825-0.04386 0.75279 0.91049
  -1  -3 -15 2572.46  206.16   1-0.74932-0.33803 0.09412 0.79757 0.65547 0.49960
  -1  -3 -15 2226.30  240.94   1-0.69652-0.29043-0.23472 0.47090-0.67804-0.83300
  -1  -3 -16  274.59  140.38   1 0.00000 0.42701-0.32587 0.41758 0.94541 0.80204
  -1  -3 -16  498.16  111.14   1-0.76205-0.33707 0.05060 0.79709 0.64553 0.50101
  -1  -3 -16  312.01  116.04   1-0.68999-0.27055-0.24929 0.49939-0.67952-0.82304
  -1  -3 -17   30.04  104.65   1 0.00000 0.43509-0.37064 0.41824 0.92877 0.79734
  -1  -3 -17  155.77  119.25   1-0.77277-0.33410 0.00852 0.79807 0.63462 0.50145
  -1  -3 -17    0.37   79.30   1-0.68234-0.24956-0.26579 0.52595-0.68099-0.81307
  -1  -4  17 4109.98  315.23   1 0.00000 0.05549 0.92797 0.25561-0.37264-0.96518
  -1  -4  16  268.70  154.88   1 0.00000 0.06910 0.92892 0.29958-0.37026-0.95156
  -1  -4  15  127.20   89.02   1 0.00000 0.08270 0.93099 0.34469-0.36502-0.93506
  -1  -4  14 3548.48  320.59   1 0.00000 0.09631 0.93427 0.39100-0.35654-0.91533
   1   4 -14 2986.99  221.09   1-0.76432-0.86327-0.04217 0.49814-0.64345-0.08131
  -1  -4  13 6099.89  315.02   1 0.00000 0.11722-0.42759-0.92658 0.90397 0.35734
  -1  -4  13 8220.80  429.84   1 0.00000 0.10991 0.93882 0.43857-0.34440-0.89194
  -1  -4  13 7712.63  430.56   1-0.80353-0.69572-0.21858-0.71829 0.55366 0.00464
   1   4 -13 7755.35  315.79   1-0.76741-0.87971-0.03029 0.46696-0.64042-0.08973
  -1  -4  12  666.67  125.52   1 0.00000 0.13050-0.47326-0.92924 0.88092 0.34564
  -1  -4  12 1555.27  208.13   1 0.00000 0.12352 0.94464 0.48742-0.32808-0.86438
  -1  -4  12 1804.20  172.50   1-0.80381-0.68230-0.27434-0.73100 0.52784-0.00982
   1   4 -12 1709.27  151.53   1-0.76992-0.89556-0.02031 0.43388-0.63781-0.09854
  -1  -4  1123483.41  619.90   1 0.00000 0.13712 0.95171 0.53752-0.30697-0.83202
  -1  -4  1123098.45  741.32   1-0.80079-0.66560-0.33217-0.74578 0.49838-0.02794
   1   4 -1124047.65  479.69   1-0.77179-0.91078-0.01260 0.39852-0.63574-0.10791
  -1  -4  1047128.82  731.33   1 0.00000 0.15707-0.56743-0.93739 0.82341 0.31084
  -1  -4  1042355.73  881.63   1 0.00000 0.15073 0.95989 0.58873-0.28035-0.79414
  -1  -4  1042738.96  932.88   1-0.79391-0.64502-0.39195-0.76251 0.46483-0.05013
   1   4 -1043815.28  700.33   1-0.77297-0.92530-0.00766 0.36039-0.63439-0.11800
  -1  -4   9 2426.07  184.57   1 0.00000 0.17036-0.61581-0.94276 0.78788 0.28666
  -1  -4   9 2029.54  185.87   1 0.00000 0.16433 0.96891 0.64078-0.24737-0.74992
   1   4  -9 2409.75  174.37   1-0.77331-0.93899-0.00619 0.31880-0.63398-0.12903
  -1  -4   8  306.51   82.79   1 0.00000 0.18364-0.66484-0.94876 0.74698 0.25711
  -1  -4   8  305.32  125.03   1 0.00000 0.17794 0.97831 0.69320-0.20712-0.69842
   1   4  -8  269.78   80.23   1-0.77262-0.95164-0.00915 0.27278-0.63480-0.14128
  -1  -4   7 1397.44  130.05   1 0.00000 0.19693-0.71416-0.95507 0.69998 0.22146
  -1  -4   7 1499.93  170.68   1 0.00000 0.19154 0.98733 0.74525-0.15861-0.63866
   1   4  -7 1387.65  120.06   1-0.77050-0.96287-0.01794 0.22093-0.63717-0.15510
  -1  -4   6 2624.97  193.97   1 0.00000 0.21021-0.76323-0.96113 0.64612 0.17895
  -1  -4   6 3497.38  240.79   1 0.00000 0.20515 0.99489 0.79584-0.10088-0.56968
   1   4  -6 3501.24  198.01   1-0.76630-0.97201-0.03464 0.16116-0.64154-0.17091
  -1  -4   5  511.85  102.17   1 0.00000 0.22350-0.81125-0.96614 0.58468 0.12887
  -1  -4   5  362.93  125.52   1 0.00000 0.21875 0.99945 0.84342-0.03313-0.49068
   1   4  -5  454.43   92.22   1-0.75872-0.97778-0.06255 0.09019-0.64840-0.18919
  -1  -4   4  232.01   92.71   1 0.00000 0.23679-0.85711-0.96898 0.51512 0.07066
  -1  -4   4  257.20   92.45   1 0.00000 0.23236 0.99898 0.88599 0.04502-0.40128
   1   4  -4  291.34   68.76   1-0.74519-0.97760-0.10712 0.00255-0.65817-0.21041
  -1  -4   345853.10  989.80   1 0.00000 0.25007-0.89935-0.96821 0.43721 0.00410
  -1  -4   347654.36 1023.40   1 0.00000 0.24597 0.99107 0.92110 0.13329-0.30175
   1   4  -346928.96  918.11   1-0.71995-0.96571-0.17817-0.11155-0.67075-0.23443
  -1  -4   213341.12  470.71   1 0.00000 0.25957 0.97309 0.94615 0.23039-0.19340
   1   4  -213959.05  489.22   1 0.00000-0.25957 0.93609 0.96303-0.35175 0.07205
   1   4  -214797.41  495.19   1-0.66797-0.92707-0.29534-0.27178-0.68306-0.25817
  -1  -4   1 7280.63  354.69   1 0.00000 0.27318 0.94264 0.95873 0.33379-0.07875
   1   4  -1 7375.33  367.47   1 0.00000-0.27318 0.96577 0.94968-0.25937 0.15318
   1   4  -1 7192.75  331.44   1-0.53703-0.80948-0.50629-0.52580-0.67472-0.26127
  -1  -4   0  155.49  100.63   1 0.00000 0.28701 0.89799 0.95714 0.44001 0.03872
   1   4   0  258.90   82.53   1 0.00000-0.28678 0.98677 0.92765-0.16211 0.23918
  -1  -4  -192045.47 1693.41   1 0.00000 0.30062 0.83907 0.94123 0.54401 0.15395
   1   4   192682.28 1692.16   1 0.00000-0.30039 0.99803 0.89588-0.06271 0.32734
  -1  -4  -194071.48 1801.90   1-0.09136 0.20851 0.87159 0.97383 0.48162 0.09042
  -1  -4  -212178.23  525.32   1 0.00000 0.31424 0.76711 0.91228 0.64151 0.26267
   1   4   213088.63  508.23   1 0.00000-0.31399 0.99936 0.85419 0.03563 0.41444
  -1  -4  -213624.91  535.92   1-0.16862 0.14493 0.83314 0.97849 0.52671 0.14677
  -1  -4  -3 1592.32  171.75   1 0.00000 0.32786 0.68481 0.87299 0.72871 0.36109
   1   4   3 1350.34  147.70   1 0.00000-0.32760 0.99154 0.80334 0.12974 0.49730
  -1  -4  -3 1596.69  176.00   1-0.24215 0.08490 0.78822 0.97670 0.56574 0.19706
  -1  -4  -4  843.65  117.22   1 0.00000 0.34147 0.59571 0.82690 0.80319 0.44679
   1   4   4  921.02  133.23   1 0.00000-0.34120 0.97618 0.74495 0.21694 0.57325
  -1  -4  -4  866.18  154.94   1-0.31071 0.03001 0.73844 0.97005 0.59845 0.24103
  -1  -4  -5 7813.37  370.39   1 0.00000 0.35509 0.50342 0.77761 0.86404 0.51886
   1   4   5 7638.95  388.22   1 0.00000-0.35481 0.95537 0.68111 0.29539 0.64045
  -1  -4  -5 7884.19  356.69   1-0.37358-0.01917 0.68542 0.96014 0.62499 0.27883
  -1  -4  -6 5941.12  310.76   1 0.00000 0.36871 0.41106 0.72826 0.91160 0.57765
   1   4   6 5794.01  318.40   1 0.00000-0.36841 0.93131 0.61403 0.36420 0.69802
  -1  -4  -6 5592.99  303.70   1-0.43049-0.06241 0.63055 0.94838 0.64581 0.31091
  -1  -4  -7 9593.36  483.00   1 0.00000 0.38472 0.31640 0.67565 0.94862 0.62886
   1   4   711936.52  504.95   1 0.00000-0.38232 0.90627 0.54606 0.42267 0.74541
  -1  -4  -711689.36  476.59   1-0.48152-0.09976 0.57494 0.93589 0.66148 0.33784
  -1  -4  -713021.15  604.68   1-0.36421 0.01473-0.69381-0.33010-0.62126-0.94382
  -1  -4  -8 9450.36  477.35   1 0.00000 0.39836 0.22978 0.63195 0.97324 0.66478
   1   4   8 9900.64  463.51   1 0.00000-0.39594 0.88134 0.47812 0.47246 0.78398
  -1  -4  -8 9717.85  434.60   1-0.52696-0.13152 0.51945 0.92352 0.67265 0.36027
   1   4   810478.36  458.23   1-0.03416-0.42983 0.89454 0.49050 0.44566 0.75805
  -1  -4  -810378.44  502.33   1-0.53359-0.14103-0.51083-0.10374-0.67403-0.98455
  -1  -4  -9  157.04   81.35   1 0.00000 0.41201 0.14786 0.59294 0.98900 0.69185
   1   4   9  412.92  126.49   1 0.00000-0.40955 0.85788 0.41165 0.51383 0.81412
  -1  -4  -9  290.84  118.17   1-0.56723-0.15812 0.46468 0.91186 0.67993 0.37881
   1   4   9  181.09  117.72   1-0.06359-0.47293 0.88331 0.43615 0.46443 0.76556
  -1  -4  -9  340.18  111.16   1-0.59273-0.18682-0.42676 0.02338-0.68303-0.98211
  -1  -4 -10 2648.46  204.16   1 0.00000 0.42565 0.07093 0.55892 0.99748 0.71162
   1   4  10 2240.20  209.04   1 0.00000-0.42317 0.83665 0.34741 0.54772 0.83679
  -1  -4 -10 3007.15  225.15   1-0.60280-0.18001 0.41099 0.90129 0.68388 0.39402
   1   4  10 2571.72  289.47   1-0.08816-0.51119 0.87300 0.38273 0.47967 0.76954
  -1  -4 -10 2451.43  216.76   1-0.62223-0.20297-0.37917 0.11404-0.68487-0.97251
  -1  -4 -11 2318.32  205.09   1 0.00000 0.43929-0.00106 0.52985 0.99999 0.72544
   1   4  11 1657.73  198.21   1 0.00000-0.43679 0.81808 0.28583 0.57509 0.85294
  -1  -4 -11 1578.12  197.56   1-0.63414-0.19767 0.35863 0.89205 0.68501 0.40640
   1   4  11 1258.79  220.78   1-0.10835-0.54506 0.86388 0.33049 0.49189 0.77050
  -1  -4 -11 1269.62  180.04   1-0.63793-0.20533-0.35193 0.18434-0.68497-0.96117
  -1  -4 -12  731.76  138.30   1 0.00000 0.45293-0.06837 0.50545 0.99765 0.73441
   1   4  12  481.29  106.22   1 0.00000-0.45040 0.80236 0.22710 0.59683 0.86345
  -1  -4 -12  578.42  120.94   1-0.66170-0.21155 0.30770 0.88423 0.68371 0.41636
  -1  -4 -12  572.67  103.79   1-0.64587-0.19992-0.33758 0.24175-0.68475-0.94951
  -1  -4 -13 4252.59  291.72   1 0.00000 0.46658-0.13135 0.48539 0.99133 0.73938
   1   4  13 6274.00  435.70   1 0.00000-0.46402 0.78953 0.17126 0.61370 0.86910
  -1  -4 -13 7129.22  403.99   1-0.68588-0.22206 0.25823 0.87788 0.68034 0.42425
  -1  -4 -13 6270.68  406.53   1-0.64888-0.18959-0.33203 0.29036-0.68461-0.93794
  -1  -4 -14 1633.93  273.48   1 0.00000 0.48022-0.19039 0.46926 0.98170 0.74106
   1   4  14 1003.86  213.72   1 0.00000-0.47764 0.77951 0.11824 0.62638 0.87056
  -1  -4 -14 1622.71  245.07   1-0.70750-0.23006 0.20913 0.87179 0.67505 0.43248
  -1  -4 -14 1077.18  209.47   1-0.64844-0.17580-0.33285 0.33261-0.68463-0.92653
  -1  -4 -15 1471.89  236.84   1 0.00000 0.49386-0.24589 0.45668 0.96929 0.73995
  -1  -4 -15 2542.31  342.53   1-0.72591-0.23478 0.16251 0.86823 0.66830 0.43709
  -1  -5  16 1182.03  171.33   1 0.00000 0.14911 0.96174 0.33456-0.27393-0.93050
  -1  -5  15   -9.93  108.49   1 0.00000 0.16271 0.96418 0.38003-0.26523-0.91055
  -1  -5  14 2986.81  241.51   1 0.00000 0.17632 0.96742 0.42629-0.25316-0.88723
  -1  -5  13 1336.60  192.64   1 0.00000 0.18992 0.97142 0.47332-0.23734-0.86016
   1   5 -13 1453.12  152.83   1-0.73794-0.93012-0.12890 0.36544-0.66243-0.03623
  -1  -5  12 1294.23  192.87   1 0.00000 0.20353 0.97609 0.52102-0.21734-0.82892
   1   5 -12 1064.34  146.94   1-0.73892-0.94445-0.12604 0.32524-0.66189-0.04713
  -1  -5  1164165.52 1361.06   1 0.00000 0.22447-0.53187-0.94232 0.84682 0.24825
  -1  -5  1175703.81 1542.92   1 0.00000 0.21713 0.98126 0.56922-0.19267-0.79299
  -1  -5  1167965.07 1488.18   1-0.79382-0.57879-0.39252-0.80385 0.46450-0.13716
   1   5 -1168171.64 1350.63   1-0.73880-0.95767-0.12640 0.28181-0.66196-0.05864
   1   5 -1085975.29 1018.42   1-0.73732-0.96954-0.13072 0.23443-0.66276-0.07088
  -1  -5   933364.13  890.02   1 0.00000 0.25104-0.62094-0.94536 0.78385 0.20799
  -1  -5   940576.95 1087.37   1 0.00000 0.24434 0.99189 0.66591-0.12705-0.70488
   1   5  -940854.85 1003.65   1-0.73411-0.97967-0.13994 0.18215-0.66445-0.08400
  -1  -5   8 1121.62  139.33   1 0.00000 0.26433-0.66576-0.94716 0.74616 0.18165
  -1  -5   8 1213.11  165.38   1 0.00000 0.25795 0.99638 0.71342-0.08494-0.65152
   1   5  -8 1103.22  127.54   1-0.72855-0.98746-0.15538 0.12364-0.66713-0.09812
  -1  -5   7 3534.61  248.12   1 0.00000 0.27761-0.71041-0.94880 0.70378 0.15062
  -1  -5   7 3331.77  235.34   1 0.00000 0.27155 0.99935 0.75942-0.03588-0.59120
   1   5  -7 3049.06  181.42   1-0.71966-0.99192-0.17892 0.05704-0.67087-0.11330
  -1  -5   6 9093.19  367.65   1 0.00000 0.29090-0.75449-0.94987 0.65630 0.11450
  -1  -5   610002.07  430.93   1 0.00000 0.28516 0.99978 0.80288 0.02057-0.52350
   1   5  -6 9508.40  349.26   1-0.70577-0.99137-0.21326-0.02035-0.67557-0.12943
  -1  -5   5  173.61  120.85   1 0.00000 0.30419-0.79745-0.94981 0.60338 0.07293
  -1  -5   5  138.67  117.10   1 0.00000 0.29877 0.99641 0.84253 0.08464-0.44817
   1   5  -5   50.88   61.39   1-0.68389-0.98284-0.26251-0.11266-0.68071-0.14602
  -1  -5   432717.27  706.85   1 0.00000 0.31747-0.83856-0.94791 0.54479 0.02569
  -1  -5   432688.49  806.25   1 0.00000 0.31237 0.98772 0.87688 0.15620-0.36537
   1   5  -433573.13  674.18   1-0.64828-0.96057-0.33315-0.22637-0.68464-0.16138
  -1  -5   3 2451.32  190.73   1 0.00000 0.33076-0.87698-0.94332 0.48052-0.02722
  -1  -5   3 2352.31  188.78   1 0.00000 0.32598 0.97209 0.90427 0.23460-0.27572
   1   5  -3 2255.98  173.73   1-0.58661-0.91225-0.43611-0.37240-0.68241-0.17058
  -1  -5   2133000.8 1559.77   1 0.00000 0.33958 0.94788 0.92309 0.31860-0.18047
   1   5  -2135796.8 1507.22   1 0.00000-0.33963 0.91166 0.93641-0.41092 0.08817
   1   5  -2133585.2 1505.69   1-0.46996-0.80857-0.58812-0.56691-0.65820-0.15754
  -1  -5   172944.75 1289.79   1 0.00000 0.35347 0.91361 0.93191 0.40658-0.08117
   1   5  -170487.78 1124.33   1 0.00000-0.35319 0.94153 0.92329-0.33690 0.15092
  -1  -5   028449.46  759.75   1 0.00000 0.36709 0.86868 0.92999 0.49536 0.01882
   1   5   028573.07  699.71   1 0.00000-0.36679 0.96582 0.90455-0.25921 0.21736
  -1  -5   027651.86  715.80   1-0.05193 0.31420 0.88791 0.94912 0.45706-0.02094
  -1  -5  -1   -3.26   71.40   1 0.00000 0.38070 0.81294 0.91725 0.58234 0.11702
   1   5   1   -1.85   83.78   1 0.00000-0.38040 0.98378 0.87949-0.17934 0.28599
  -1  -5  -1   36.48  109.37   1-0.11667 0.26315 0.85995 0.96428 0.49684 0.03009
  -1  -5  -2 1477.30  151.39   1 0.00000 0.39432 0.74721 0.89454 0.66458 0.21048
   1   5   2 1584.16  179.60   1 0.00000-0.39400 0.99508 0.84775-0.09903 0.35505
  -1  -5  -2 1566.27  192.54   1-0.18043 0.21307 0.82649 0.97393 0.53324 0.07775
  -1  -5  -3 2112.61  194.42   1 0.00000 0.40794 0.67313 0.86347 0.73951 0.29664
   1   5   3 1985.97  192.77   1 0.00000-0.40761 0.99979 0.80944-0.02015 0.42267
  -1  -5  -3 1882.95  193.10   1-0.24215 0.16482 0.78822 0.97880 0.56574 0.12151
  -1  -5  -425806.54  664.36   1 0.00000 0.42155 0.59291 0.82625 0.80526 0.37361
   1   5   423330.96  653.00   1 0.00000-0.42121 0.99845 0.76507 0.05547 0.48706
  -1  -5  -424770.05  728.00   1-0.30104 0.11961 0.74596 0.97966 0.59406 0.16109
  -1  -5  -5 1250.52  142.41   1 0.00000 0.43517 0.50894 0.78530 0.86079 0.44036
   1   5   5 1408.81  174.85   1 0.00000-0.43482 0.99198 0.71557 0.12636 0.54670
  -1  -5  -5 1235.71  161.15   1-0.35647 0.07785 0.70060 0.97742 0.61812 0.19640
   1   5   6  651.07  140.63   1 0.00000-0.44842 0.98151 0.66207 0.19138 0.60047
  -1  -5  -6  736.54  125.29   1-0.40807 0.03993 0.65301 0.97294 0.63800 0.22755
  -1  -5  -7 5972.93  469.51   1 0.00000 0.46521 0.33369 0.69498 0.94268 0.54824
   1   5   7 8407.65  402.42   1 0.00000-0.46203 0.96828 0.60581 0.24986 0.64769
  -1  -5  -7 8534.34  403.55   1-0.45567 0.00601 0.60394 0.96699 0.65392 0.25473
  -1  -5  -8  932.20  156.75   1 0.00000 0.47885 0.25035 0.65455 0.96815 0.58502
   1   5   8  865.93  138.83   1 0.00000-0.47564 0.95345 0.54796 0.30152 0.68811
  -1  -5  -8  767.90  125.41   1-0.49923-0.02387 0.55404 0.96021 0.66617 0.27824
  -1  -5  -9 3100.98  274.44   1 0.00000 0.49250 0.17008 0.61720 0.98542 0.61359
   1   5   9 3664.86  308.92   1 0.00000-0.48924 0.93806 0.48954 0.34645 0.72179
  -1  -5  -9 3774.91  273.02   1-0.53888-0.04984 0.50384 0.95313 0.67508 0.29841
  -1  -5 -10 2715.56  242.17   1 0.00000 0.50614 0.09346 0.58350 0.99562 0.63509
   1   5  10 3121.13  294.41   1 0.00000-0.50325 0.92326 0.43186 0.38416 0.74848
  -1  -5 -10 3232.34  245.62   1-0.57477-0.07205 0.45376 0.94616 0.68098 0.31556
  -1  -5 -1114541.96  568.84   1 0.00000 0.51978 0.02076 0.55371 0.99978 0.65055
   1   5  11 9337.90  471.25   1 0.00000-0.51687 0.90908 0.37467 0.41662 0.76971
  -1  -5 -11 9985.57  480.67   1-0.60712-0.09074 0.40408 0.93959 0.68418 0.33002
  -1  -5 -1110453.54  610.02   1-0.38902 0.12318-0.67122-0.13235-0.63096-0.98351
  -1  -5 -12 6113.05  412.18   1 0.00000 0.53342-0.04800 0.52785 0.99884 0.66092
   1   5  12 5914.12  409.88   1 0.00000-0.53048 0.89623 0.31881 0.44358 0.78545
  -1  -5 -12 7317.55  386.41   1-0.63619-0.10613 0.35501 0.93365 0.68499 0.34209
  -1  -5 -13 3926.27  289.55   1 0.00000 0.54707-0.11295 0.50582 0.99360 0.66697
   1   5  13 3012.85  435.32   1 0.00000-0.54410 0.88502 0.26459 0.46555 0.79620
  -1  -5 -13 3405.13  448.85   1-0.66221-0.11847 0.30671 0.92846 0.68366 0.35202
  -1  -5 -14 3179.49  278.11   1 0.00000 0.56071-0.17431 0.48738 0.98469 0.66936
  -1  -6  13 1177.14  218.27   1 0.00000 0.26993 0.99187 0.49592-0.12725-0.82534
  -1  -6  12 4714.72  367.71   1 0.00000 0.28354 0.99452 0.54160-0.10452-0.79137
   1   6 -12 3872.37  244.31   1-0.69308-0.97850-0.24245 0.20592-0.67885 0.01139
  -1  -6  11 2371.26  343.82   1 0.00000 0.29714 0.99699 0.58710-0.07740-0.75299
   1   6 -11 1943.22  306.59   1-0.68925-0.98800-0.25093 0.15438-0.67968-0.00086
  -1  -6  1040861.80  871.92   1 0.00000 0.31075 0.99896 0.63210-0.04549-0.70984
   1   6 -1041310.12  919.59   1-0.68300-0.99510-0.26440 0.09784-0.68087-0.01349
  -1  -6   9  227.44   82.28   1 0.00000 0.33173-0.61083-0.93273 0.79175 0.14125
  -1  -6   9  545.48  118.00   1 0.00000 0.32436 0.99996 0.67613-0.00844-0.66154
   1   6  -9  197.38   99.13   1-0.67358-0.99903-0.28404 0.03514-0.68235-0.02641
  -1  -6   8   20.53   80.37   1 0.00000 0.34502-0.65214-0.93102 0.75809 0.11894
  -1  -6   8  194.51  159.85   1 0.00000 0.33796 0.99941 0.71861 0.03408-0.60776
   1   6  -8   85.75   92.88   1-0.65980-0.99860-0.31138-0.03526-0.68388-0.03937
  -1  -6   7  303.02   97.98   1 0.00000 0.35830-0.69308-0.92895 0.72085 0.09306
  -1  -6   7  447.51  132.68   1 0.00000 0.35157 0.99660 0.75882 0.08234-0.54825
   1   6  -7  341.69   83.99   1-0.63980-0.99194-0.34858-0.11552-0.68493-0.05186
  -1  -6   6  128.73   94.32   1 0.00000 0.37159-0.73337-0.92623 0.67982 0.06338
  -1  -6   6  387.61  134.83   1 0.00000 0.36517 0.99064 0.79589 0.13644-0.48289
   1   6  -6  292.34   80.90   1-0.61048-0.97597-0.39864-0.20865-0.68438-0.06275
  -1  -6   5  171.49   78.78   1 0.00000 0.38487-0.77264-0.92248 0.63483 0.02974
  -1  -6   5  191.08   94.36   1 0.00000 0.37878 0.98054 0.82882 0.19630-0.41179
   1   6  -5  324.85   93.19   1-0.56635-0.94519-0.46595-0.31901-0.67980-0.06961
  -1  -6   4  625.58  125.06   1 0.00000 0.39816-0.81045-0.91728 0.58580-0.00793
  -1  -6   4  883.22  183.85   1 0.00000 0.39238 0.96519 0.85650 0.26153-0.33531
   1   6  -4  868.94  119.72   1-0.49870-0.89043-0.55468-0.45014-0.66604-0.06702
  -1  -6   313107.16  505.30   1 0.00000 0.41144-0.84626-0.91008 0.53276-0.04962
  -1  -6   313951.74  530.61   1 0.00000 0.40599 0.94348 0.87781 0.33142-0.25417
   1   6  -314183.32  578.85   1-0.37994-0.78503-0.67964-0.61817-0.62748-0.03985
  -1  -6   2    8.33   55.90   1 0.00000 0.42473-0.87950-0.90030 0.47589-0.09514
  -1  -6   2  -46.96  159.84   1 0.00000 0.41993 0.91422 0.89167 0.40521-0.16902
  -1  -6   1 7072.69  380.66   1 0.00000 0.43355 0.87689 0.89735 0.48067-0.08233
   1   6  -1 7111.25  355.62   1 0.00000-0.43325 0.90955 0.88911-0.41558 0.14754
  -1  -6   1 7053.63  421.77   1-0.04009 0.39231 0.89238 0.91257 0.44949-0.11532
  -1  -6   0 3980.08  298.23   1 0.00000 0.44716 0.83096 0.89443 0.55632 0.00452
   1   6   0 4016.02  280.01   1 0.00000-0.44680 0.93565 0.87223-0.35292 0.19893
  -1  -6   0 4710.81  349.00   1-0.09447 0.35161 0.87021 0.93352 0.48352-0.07003
  -1  -6  -122366.91  750.83   1 0.00000 0.46078 0.77650 0.88298 0.63011 0.08954
   1   6   121757.42  738.12   1 0.00000-0.46041 0.95754 0.85109-0.28829 0.25231
  -1  -6  -121156.03  728.34   1-0.14906 0.31071 0.84371 0.95013 0.51568-0.02661
  -1  -6  -220380.92  571.62   1 0.00000 0.47440 0.71411 0.86360 0.70002 0.17067
   1   6   221641.96  719.26   1 0.00000-0.47401 0.97487 0.82540-0.22273 0.30662
  -1  -6  -221437.09  638.39   1-0.20307 0.27014 0.81314 0.96271 0.54549 0.01444
   1   6   3 4698.12  324.03   1 0.00000-0.48762 0.98754 0.79503-0.15735 0.36074
  -1  -6  -3 5833.07  351.31   1-0.25594 0.23095 0.77884 0.97152 0.57261 0.05283
  -1  -6  -4  310.22  104.69   1 0.00000 0.50163 0.57039 0.80589 0.82137 0.31446
   1   6   4  184.44  113.24   1 0.00000-0.50123 0.99563 0.76010-0.09332 0.41353
  -1  -6  -4  400.89  116.81   1-0.30705 0.19352 0.74131 0.97711 0.59680 0.08827
   1   6   5  421.89  160.11   1 0.00000-0.51483 0.99949 0.72093-0.03171 0.46389
  -1  -6  -5  240.00  130.95   1-0.35594 0.15831 0.70107 0.97999 0.61790 0.12063
   1   6   6 4200.32  302.08   1 0.00000-0.52844 0.99964 0.67805 0.02650 0.51086
  -1  -6  -6 4759.08  374.70   1-0.40226 0.12566 0.65864 0.98068 0.63589 0.14988
  -1  -6  -7 2202.19  430.42   1 0.00000 0.54570 0.32620 0.68952 0.94529 0.47618
   1   6   7 3730.31  303.59   1 0.00000-0.54204 0.99674 0.63212 0.08060 0.55371
  -1  -6  -7 3858.10  298.30   1-0.44580 0.09579 0.61455 0.97970 0.65083 0.17608
  -1  -6  -8  764.10  184.11   1 0.00000 0.55935 0.24611 0.65235 0.96924 0.51143
   1   6   8  580.16  137.21   1 0.00000-0.55565 0.99150 0.58386 0.13004 0.59191
  -1  -6  -8  994.72  165.74   1-0.48643 0.06884 0.56924 0.97750 0.66282 0.19934
  -1  -6  -9 5565.17  388.20   1 0.00000 0.57299 0.16798 0.61713 0.98579 0.53928
   1   6   9 7023.70  437.69   1 0.00000-0.56925 0.98465 0.53397 0.17454 0.62515
  -1  -6  -9 7641.10  425.65   1-0.52411 0.04483 0.52312 0.97451 0.67204 0.21981
  -1  -6 -10  -27.17   89.01   1 0.00000 0.58663 0.09247 0.58454 0.99571 0.56050
   1   6  10  164.78  111.91   1 0.00000-0.58286 0.97683 0.48313 0.21397 0.65333
  -1  -6 -10  186.56  175.84   1-0.55886 0.02376 0.47655 0.97105 0.67864 0.23768
  -1  -6 -11   54.09  127.00   1 0.00000 0.60027 0.02000 0.55498 0.99980 0.57589
   1   6  11   63.93  119.13   1 0.00000-0.59646 0.96865 0.43192 0.24839 0.67650
  -1  -6 -11  -47.83  115.17   1-0.59076 0.00554 0.42979 0.96741 0.68284 0.25313
  -1  -7  1038045.76  948.62   1 0.00000 0.39076 0.99746 0.63275 0.07110-0.66851
  -1  -7   969704.01 1213.42   1 0.00000 0.40437 0.99410 0.67242 0.10842-0.61994
  -1  -7   8 3088.45  417.93   1 0.00000 0.41797 0.98863 0.70997 0.15035-0.56676
   1   7  -8 2163.05  350.29   1-0.55983-0.97852-0.47518-0.20196-0.67880 0.04119
  -1  -7   7   44.44  103.58   1 0.00000 0.43158 0.98041 0.74479 0.19693-0.50894
   1   7  -7   20.35  110.60   1-0.52417-0.95568-0.52305-0.29209-0.67205 0.03671
  -1  -7   6 1015.45  167.92   1 0.00000 0.45227-0.70127-0.89161 0.71289 0.02180
  -1  -7   6 1437.91  234.62   1 0.00000 0.44518 0.96874 0.77614 0.24807-0.44655
   1   7  -6 1055.66  198.90   1-0.47145-0.91632-0.58644-0.39856-0.65864 0.03873
  -1  -7   5  282.25  104.57   1 0.00000 0.46556-0.73768-0.88500 0.67514-0.00458
  -1  -7   5  569.07  153.24   1 0.00000 0.45879 0.95282 0.80325 0.30351-0.37985
   1   7  -5  594.13  146.88   1-0.39205-0.85026-0.66838-0.52358-0.63210 0.05387
  -1  -7   4 9120.56  408.66   1 0.00000 0.47884-0.77293-0.87724 0.63448-0.03389
  -1  -7   410823.78  513.34   1 0.00000 0.47239 0.93186 0.82532 0.36280-0.30932
   1   7  -410331.29  567.13   1-0.26026-0.73184-0.77584-0.67412-0.57474 0.09985
  -1  -7   3 1208.91  161.95   1 0.00000 0.49213-0.80671-0.86800 0.59094-0.06608
  -1  -7   3 1325.01  175.35   1 0.00000 0.48639 0.90490 0.84151 0.42560-0.23510
  -1  -7   282957.92 1285.83   1 0.00000 0.50541-0.83866-0.85694 0.54465-0.10101
  -1  -7   293265.79 1339.76   1 0.00000 0.50001 0.87162 0.85123 0.49017-0.15931
  -1  -7   2102051.7 1692.17   1-0.04600 0.45266 0.89017 0.86934 0.45328-0.19833
  -1  -7   1 4475.85  279.92   1 0.00000 0.51870-0.86840-0.84366 0.49586-0.13845
  -1  -7   1 5004.36  345.53   1 0.00000 0.51363 0.83140 0.85402 0.55566-0.08260
  -1  -7   1 4858.52  331.84   1-0.09216 0.42019 0.87124 0.89353 0.48211-0.15824
  -1  -7   0 1979.09  176.77   1 0.00000 0.53198-0.89556-0.82782 0.44492-0.17804
  -1  -7   0 2233.54  223.87   1 0.00000 0.52724 0.78405 0.84968 0.62068-0.00635
  -1  -7   0 3118.51  324.15   1-0.13899 0.38704 0.84892 0.91432 0.50990-0.11919
  -1  -7  -1  402.25  115.29   1 0.00000 0.54086 0.72972 0.83836 0.68374 0.06791
   1   7   1  365.64  124.84   1 0.00000-0.54047 0.91979 0.81112-0.39240 0.22350
  -1  -7  -1  481.11  137.28   1-0.18601 0.35371 0.82327 0.93179 0.53629-0.08154
  -1  -7  -2   25.90  118.48   1 0.00000 0.55448 0.66890 0.82054 0.74335 0.13875
   1   7   2   20.83   99.89   1 0.00000-0.55403 0.94069 0.78906-0.33925 0.26537
  -1  -7  -2  233.81  168.61   1-0.23267 0.32047 0.79448 0.94615 0.56093-0.04565
   1   7   3  -10.13   93.07   1 0.00000-0.56763 0.95830 0.76364-0.28575 0.30762
  -1  -7  -3  -64.35  134.70   1-0.27864 0.28817 0.76272 0.95750 0.58361-0.01171
   1   7   4 7635.40  402.51   1 0.00000-0.58124 0.97255 0.73487-0.23266 0.34946
  -1  -7  -4 8078.72  500.03   1-0.32346 0.25702 0.72829 0.96619 0.60411 0.02003
   1   7   5 5416.38  341.24   1 0.00000-0.59484 0.98352 0.70281-0.18074 0.39013
  -1  -7  -5 6135.64  403.02   1-0.36678 0.22738 0.69152 0.97254 0.62229 0.04948
  -1  -7  -6 1077.83  473.16   1 0.00000 0.61255 0.37501 0.69745 0.92701 0.37192
   1   7   6 4210.15  326.32   1 0.00000-0.60845 0.99142 0.66768-0.13069 0.42894
  -1  -7  -6 5297.25  349.28   1-0.40832 0.19952 0.65276 0.97689 0.63809 0.07653
  -1  -7  -7  356.32  134.01   1 0.00000 0.62620 0.29715 0.66250 0.95482 0.41104
   1   7   7  239.75  126.17   1 0.00000-0.62205 0.99653 0.62976-0.08315 0.46523
  -1  -7  -7  337.00  158.27   1-0.44787 0.17364 0.61234 0.97959 0.65149 0.10119
   2  -9   0  288.68  170.74   1-0.14278 0.64396 0.84697 0.76435 0.51209 0.03273
   2  -9   1 1572.15  228.05   1-0.10177 0.67129 0.86692 0.74118 0.48793-0.00267
   2  -8  -8  332.15  178.94   1-0.45248 0.36358 0.60739 0.86764 0.65293 0.33909
   2  -8  -7  783.33  219.95   1-0.41273 0.38965 0.64843 0.86557 0.63967 0.31457
   2  -8  -6  252.53  129.74   1-0.37094 0.41777 0.68781 0.86183 0.62395 0.28759
   2  -8  -5   64.62  212.91   1-0.32730 0.44773 0.72517 0.85608 0.60579 0.25817
   2  -8  -4  462.60  163.89   1-0.28210 0.47925 0.76018 0.84797 0.58525 0.22638
   2  -8  -4  588.77  117.48   1-0.76823-0.00823-0.02707 0.06655-0.63959-0.99774
   2  -8  -227965.67 1099.11   1 0.00000 0.73768-0.41747-0.41147 0.90868 0.53526
   2  -8  -232069.72  846.98   1-0.18854 0.54561 0.82179 0.82331 0.53767 0.15639
   2  -8  -232999.23  644.01   1-0.78611-0.05280 0.05556 0.06306-0.61558-0.99661
   2  -8  -1 6304.87  435.86   1 0.00000 0.72439-0.40370-0.44070 0.91489 0.53011
   2  -8  -1 3856.72  363.19   1-0.14097 0.57950 0.84790 0.80630 0.51105 0.11850
   2  -8  -1 3483.43  225.40   1-0.79214-0.07218 0.09239 0.05682-0.60330-0.99577
   2  -8   0 8243.88  518.35   1 0.00000 0.70722 0.73384 0.65010 0.67931 0.27785
   2  -8   010261.78  545.17   1-0.09354 0.61325 0.87063 0.78591 0.48295 0.07915
   2  -8   010170.74  493.84   1-0.79671-0.09010 0.12704 0.04841-0.59085-0.99475
   2  -8   114491.14  664.85   1 0.00000 0.69575-0.36452-0.49255 0.93119 0.52280
   2  -8   111957.33  713.36   1 0.00000 0.69360 0.83336 0.70661 0.55272 0.14003
   2  -8   114535.63  696.40   1-0.04676 0.64635 0.88989 0.76205 0.45377 0.03870
   2  -8   114448.98  599.93   1-0.80005-0.10679 0.15996 0.03827-0.57820-0.99354
   2  -8   2 6158.00  384.86   1 0.00000 0.68210-0.34386-0.51481 0.93901 0.51932
   2  -8   2 6912.71  480.25   1 0.00000 0.67999 0.90296 0.73319 0.42971 0.00581
   2  -8   3 6647.70  367.89   1 0.00000 0.66846-0.32202-0.53588 0.94673 0.51573
   2  -8   310924.83  519.47   1 0.00000 0.66579 0.94918 0.73629 0.31471-0.12078
   2  -8   4 4732.22  317.08   1 0.00000 0.65482-0.29927-0.55605 0.95416 0.51187
   2  -8   4 7535.79  478.93   1 0.00000 0.65218 0.97704 0.72113 0.21303-0.23372
  -2   8  -4 6261.06  358.09   1-0.15048-0.80345-0.84295-0.59164-0.51650-0.06648
   2  -8   518440.05  687.76   1 0.00000 0.64117-0.27582-0.57551 0.96120 0.50761
   2  -8   522977.34  833.18   1 0.00000 0.63857 0.99227 0.69332 0.12407-0.33393
  -2   8  -519620.18  690.11   1-0.21495-0.85456-0.80582-0.51142-0.55176-0.09035
   2  -8   6 6087.88  336.98   1 0.00000 0.62753-0.25178-0.59439 0.96778 0.50288
   2  -8   6 4609.17  334.66   1 0.00000 0.62497 0.99887 0.65689 0.04748-0.42177
  -2   8  -6 4204.08  301.15   1-0.26933-0.89560-0.76943-0.43195-0.57915-0.10634
   2  -8   7  547.54  146.85   1 0.00000 0.61389-0.22724-0.61277 0.97383 0.49763
   2  -8   7 2065.84  363.71   1 0.00000 0.61136 0.99984 0.61484-0.01769-0.49819
  -2   8  -7 1933.71  330.53   1-0.31486-0.92777-0.73518-0.35462-0.60030-0.11610
   2  -8   8 4085.70  287.75   1 0.00000 0.60025-0.20227-0.63071 0.97932 0.49182
   2  -8   8 4769.29  371.59   1 0.00000 0.59776 0.99735 0.56932-0.07264-0.56439
  -2   8  -8 4431.23  397.29   1-0.35272-0.95228-0.70385-0.28021-0.61657-0.12098
   2  -8   9 2122.54  252.86   1 0.00000 0.58661-0.17691-0.64827 0.98422 0.48542
   2  -8   9 5081.88  350.98   1 0.00000 0.58415 0.99294 0.52188-0.11860-0.62160
  -2   8  -9 4513.43  338.13   1-0.38402-0.97023-0.67587-0.20915-0.62905-0.12206
   2  -7 -12 4275.86  397.23   1-0.59755 0.19329 0.41927 0.84989 0.68347 0.49022
   2  -7 -11  279.06  163.22   1-0.56588 0.21129 0.46661 0.85411 0.67973 0.47522
   2  -7 -10   38.69  101.07   1-0.53131 0.23218 0.51381 0.85820 0.67356 0.45779
   2  -7 -10   42.83   80.54   1-0.33042 0.42963-0.72262-0.37363-0.60714-0.82207
   2  -7  -9 1726.80  249.69   1 0.00000 0.75000-0.55630-0.25171 0.83098 0.61166
  -2   7   9 1627.02  280.30   1 0.00000-0.74906 0.96210 0.66080-0.27266-0.04741
   2  -7  -9 1442.45  229.88   1-0.49376 0.25605 0.56059 0.86186 0.66477 0.43774
   2  -7  -9 1598.39  195.87   1-0.38414 0.36256-0.67576-0.36985-0.62910-0.85542
   2  -7  -8  518.85  140.44   1 0.00000 0.73672-0.51304-0.25146 0.85836 0.62769
   2  -7  -8 1158.44  161.80   1-0.45320 0.28294 0.60661 0.86476 0.65316 0.41487
   2  -7  -8  944.37  150.63   1-0.44041 0.29293-0.62024-0.35741-0.64909-0.88681
   2  -7  -7 1484.72  232.70   1 0.00000 0.72345-0.84031-0.62174 0.54209 0.30006
   2  -7  -7  791.74  188.24   1 0.00000 0.72345-0.45390-0.23533 0.89104 0.64902
   2  -7  -7 1243.61  179.76   1-0.40966 0.31280 0.65145 0.86649 0.63857 0.38902
   2  -7  -7 1233.19  193.28   1-0.49701 0.22299-0.55672-0.33697-0.66561-0.91472
   2  -7  -6 3279.65  356.98   1 0.00000 0.71018-0.74613-0.57058 0.66579 0.41240
   2  -7  -6 3175.74  294.87   1 0.00000 0.71081-0.36957-0.19920 0.92920 0.67457
   2  -7  -6 2395.49  250.80   1-0.36326 0.34553 0.69465 0.86657 0.62088 0.36007
   2  -7  -6 3155.82  246.93   1-0.54973 0.15707-0.48921-0.31236-0.67710-0.93688
   2  -7  -5 4039.87  396.34   1 0.00000 0.69688-0.65706-0.52453 0.75383 0.48909
   2  -7  -5 2116.63  426.49   1 0.00000 0.69715-0.20631-0.07887 0.97848 0.71256
   2  -7  -5 7124.65  466.19   1-0.31421 0.38090 0.73569 0.86449 0.60001 0.32795
   2  -7  -5 6590.76  353.30   1-0.59987 0.09357-0.41563-0.28184-0.68366-0.95488
   2  -7  -4 2350.34  308.54   1 0.00000 0.68358-0.58967-0.50015 0.80764 0.53155
   2  -7  -4 2811.27  277.18   1 0.00000 0.68349 0.01878 0.10330 0.99982 0.72260
   2  -7  -4 1871.06  273.37   1-0.26285 0.41859 0.77403 0.85971 0.57600 0.29268
   2  -7  -4 1953.66  168.41   1-0.64396 0.03614-0.34107-0.25035-0.68482-0.96747
   2  -7  -3 3916.41  361.75   1 0.00000 0.67028-0.53999-0.49348 0.84167 0.55424
   2  -7  -3 2000.29  405.91   1 0.00000 0.66983 0.26783 0.30944 0.96346 0.67495
   2  -7  -3 4586.29  369.56   1-0.20962 0.45814 0.80913 0.85170 0.54896 0.25438
   2  -7  -3 4506.89  250.79   1-0.68123-0.01447-0.26815-0.22050-0.68118-0.97527
   2  -7  -2 5758.08  446.47   1 0.00000 0.65699-0.50018-0.49669 0.86591 0.56713
   2  -7  -2 6932.59  452.60   1-0.15517 0.49903 0.84046 0.83988 0.51916 0.21342
   2  -7  -2 6838.67  309.34   1-0.71177-0.05836-0.19876-0.19417-0.67369-0.97922
   2  -7  -1 3620.35  283.63   1 0.00000 0.64370-0.46564-0.50516 0.88497 0.57484
   2  -7  -1 3600.35  357.26   1 0.00000 0.64076 0.69681 0.65391 0.71725 0.40226
   2  -7  -1 4103.96  343.11   1-0.10004 0.54049 0.86771 0.82401 0.48689 0.16989
   2  -7  -1 4283.44  253.39   1-0.73622-0.09615-0.13390-0.17237-0.66335-0.98032
   2  -7   0  -27.31   59.36   1 0.00000 0.63042-0.43403-0.51657 0.90089 0.57941
   2  -7   0   92.83   96.79   1 0.00000 0.62714 0.82924 0.74333 0.55888 0.23267
   2  -7   0  121.28  135.84   1-0.04501 0.58183 0.89055 0.80373 0.45265 0.12439
   2  -7   0  119.05   58.41   1-0.75545-0.12873-0.07387-0.15540-0.65101-0.97942
   2  -7   1 2552.58  235.05   1 0.00000 0.61713-0.40414-0.52970 0.91469 0.58186
   2  -7   1 3735.99  313.03   1 0.00000 0.61352 0.91601 0.78709 0.40114 0.06371
   2  -7   1 3906.19  217.24   1-0.77036-0.15699-0.01851-0.14311-0.63733-0.97717
   2  -7   2 4421.07  303.81   1 0.00000 0.60384-0.37532-0.54389 0.92689 0.58270
   2  -7   2 3579.70  310.96   1 0.00000 0.59938 0.96693 0.79492 0.25501-0.09397
   2  -7   2 3821.45  196.84   1-0.78174-0.18171 0.03258-0.13507-0.62274-0.97403
  -2   7  -2 4126.34  299.43   1-0.10247-0.70231-0.86660-0.69862-0.48836-0.13669
   2  -7   3  166.41   74.56   1 0.00000 0.58797-0.34590-0.56180 0.93826 0.58195
   2  -7   3  532.55  114.88   1 0.00000 0.58577 0.99169 0.77666 0.12857-0.23165
   2  -7   3  626.96   88.01   1-0.79023-0.20355 0.07992-0.13079-0.60756-0.97028
  -2   7  -3  512.92  110.25   1-0.18447-0.77096-0.82416-0.61310-0.53546-0.17240
   2  -7   4 3921.30  239.68   1 0.00000 0.57433-0.31863-0.57744 0.94787 0.58025
   2  -7   4 2616.56  262.37   1 0.00000 0.57217 0.99976 0.74170 0.02148-0.34999
   2  -7   4 2886.12  182.63   1-0.79635-0.22301 0.12400-0.12978-0.59197-0.96613
  -2   7  -4 2698.70  254.39   1-0.25421-0.82734-0.78003-0.52589-0.57176-0.19731
   2  -7   5  923.77  141.39   1 0.00000 0.56068-0.29153-0.59326 0.95656 0.57763
   2  -7   5 1777.55  205.52   1 0.00000 0.55856 0.99771 0.69662-0.06751-0.45024
   2  -7   5 1745.88  127.20   1-0.80050-0.24051 0.16526-0.13158-0.57609-0.96168
  -2   7  -5 1552.55  204.23   1-0.31261-0.87239-0.73695-0.43973-0.59930-0.21345
   2  -7   6  135.75   78.97   1 0.00000 0.54704-0.26452-0.60916 0.96437 0.57415
   2  -7   6  444.45  121.80   1 0.00000 0.54496 0.99006 0.64594-0.14060-0.53457
  -2   7  -6  363.23  110.73   1-0.36098-0.90741-0.69665-0.35635-0.61996-0.22272
   2  -7   7 1064.27  142.85   1 0.00000 0.53340-0.23753-0.62509 0.97137 0.56985
   2  -7   7 1884.83  198.38   1 0.00000 0.53135 0.97976 0.59261-0.20013-0.60536
  -2   7  -7 1688.38  241.52   1-0.40074-0.93382-0.66011-0.27672-0.63533-0.22670
   2  -7   8 3004.74  255.94   1 0.00000 0.51976-0.21053-0.64100 0.97758 0.56476
   2  -7   8 3776.08  345.64   1 0.00000 0.51775 0.96867 0.53849-0.24831-0.66479
  -2   7  -8 3520.65  287.99   1-0.43321-0.95293-0.62775-0.20128-0.64672-0.22669
   2  -7   914284.39  636.37   1 0.00000 0.50611-0.18347-0.65687 0.98302 0.55889
   2  -7   913483.86  626.31   1 0.00000 0.50414 0.95791 0.48470-0.28704-0.71476
  -2   7  -911369.13  574.81   1-0.45955-0.96593-0.59969-0.13014-0.65511-0.22369
   2  -7  10 9569.89  532.12   1 0.00000 0.49247-0.15634-0.67265 0.98770 0.55227
   2  -7  1011359.81  455.98   1 0.00000 0.49054 0.94812 0.43189-0.31788-0.75686
  -2   7 -10 9612.98  441.14   1-0.48077-0.97379-0.57581-0.06318-0.66127-0.21845
   2  -7  11 6764.80  373.35   1 0.00000 0.47883-0.12910-0.68833 0.99163 0.54489
   2  -7  12   87.91  141.64   1 0.00000 0.46332 0.93262 0.33033-0.36084-0.82231
   2  -7  13  615.39  196.21   1 0.00000 0.44972 0.92709 0.28176-0.37483-0.84755
   2  -6 -14 1077.32  162.80   1-0.66991 0.06837 0.29146 0.80622 0.68283 0.58765
   2  -6 -13 1770.87  257.32   1 0.00000 0.72244-0.63636-0.16224 0.77138 0.67212
   2  -6 -13 1976.14  298.43   1-0.64444 0.08016 0.34019 0.81182 0.68480 0.57836
   2  -6 -12 3570.21  220.34   1 0.00000 0.70915-0.60962-0.17852 0.79268 0.68207
  -2   6  12 2073.31  264.21   1 0.00000-0.70985 0.92278 0.49455 0.38530 0.50152
   2  -6 -12 2814.21  277.33   1-0.61591 0.09501 0.38972 0.81824 0.68465 0.56695
   2  -6 -1111048.42  509.52   1 0.00000 0.69587-0.58138-0.19329 0.81362 0.69166
  -2   6  1112373.84  664.30   1 0.00000-0.69624 0.94811 0.56291 0.31792 0.44539
   2  -6 -1113182.90  607.19   1-0.58408 0.11317 0.43994 0.82534 0.68212 0.55316
   2  -6 -10   51.60   72.21   1 0.00000 0.68259-0.55098-0.20590 0.83451 0.70119
  -2   6  10  -15.74   68.69   1 0.00000-0.68264 0.97325 0.63108 0.22970 0.36842
   2  -6 -10   15.47  128.08   1-0.54869 0.13489 0.49063 0.83292 0.67691 0.53670
   2  -6 -10   86.15   84.59   1-0.10098 0.57924-0.86728-0.52112-0.48746-0.62682
   2  -6  -9 1553.41  170.83   1 0.00000 0.66930-0.51730-0.21524 0.85579 0.71112
  -2   6   9 1994.52  210.52   1 0.00000-0.66903 0.99328 0.69413 0.11567 0.26563
   2  -6  -9 1782.87  182.84   1-0.50950 0.16039 0.54151 0.84068 0.66870 0.51722
   2  -6  -9 1848.37  220.10   1-0.15447 0.51239-0.84084-0.53776-0.51876-0.66952
   2  -6  -8  377.04   89.10   1 0.00000 0.65602-0.47820-0.21915 0.87825 0.72222
  -2   6   8  211.13   82.29   1 0.00000-0.65543 0.99959 0.74347-0.02835 0.13286
   2  -6  -8  163.19   73.02   1-0.21488 0.43863-0.80586-0.54586-0.55172-0.71388
   2  -6  -7  453.42  120.84   1 0.00000 0.64273-0.42919-0.21315 0.90321 0.73583
  -2   6   7  867.35  147.66   1 0.00000-0.64182 0.97937 0.76627-0.20207-0.02960
   2  -6  -7  963.17  145.05   1-0.41909 0.22346 0.64212 0.85505 0.64190 0.46790
   2  -6  -7 1039.38  144.78   1-0.28102 0.35914-0.76098-0.54406-0.58474-0.75829
   2  -6  -6 2082.45  216.92   1 0.00000 0.63027-0.36527-0.19695 0.93090 0.75097
  -2   6   6 3752.09  269.17   1 0.00000-0.62821 0.91940 0.74927-0.39330-0.20959
   2  -6  -6 3503.12  267.05   1-0.36773 0.26113 0.69068 0.86050 0.62267 0.43742
   2  -6  -6 3411.64  238.99   1-0.35082 0.27598-0.70548-0.53165-0.61579-0.80073
   2  -6  -5 7808.33  411.27   1 0.00000 0.61617-0.81317-0.68316 0.58201 0.39193
   2  -6  -5 6279.21  485.98   1 0.00000 0.61663-0.24686-0.12145 0.96905 0.77781
   2  -6  -5 6113.96  388.15   1-0.31243 0.30276 0.73709 0.86380 0.59922 0.40270
   2  -6  -5 5894.39  321.95   1-0.42141 0.19205-0.63978-0.50903-0.64271-0.83904
   2  -6  -436214.50 1156.36   1 0.00000 0.60289-0.69017-0.60317 0.72364 0.52220
   2  -6  -435371.38 1335.98   1 0.00000 0.60299-0.04058 0.04190 0.99917 0.79664
   2  -6  -439715.32  705.96   1-0.48949 0.11061-0.56565-0.47797-0.66364-0.87137
   2  -6  -3 8577.56  563.03   1 0.00000 0.58960-0.59298-0.54900 0.80521 0.59242
   2  -6  -3 8854.39  557.57   1 0.00000 0.58934 0.24832 0.28789 0.96867 0.75484
   2  -6  -314433.22  612.38   1-0.19168 0.39627 0.81995 0.86039 0.53937 0.32043
   2  -6  -314691.81  449.06   1-0.55097 0.03590-0.48750-0.44275-0.67732-0.89592
   2  -6  -222486.22  618.14   1 0.00000 0.57630-0.52563-0.52466 0.85071 0.62657
   2  -6  -221803.31  562.32   1 0.00000 0.57430 0.55634 0.55429 0.83095 0.60243
   2  -6  -222916.88  772.79   1-0.12756 0.44670 0.85466 0.85199 0.50326 0.27306
   2  -6  -221776.74  539.62   1-0.60610-0.03257-0.40573-0.40404-0.68412-0.91415
   2  -6  -128715.82  697.52   1 0.00000 0.56302-0.47586-0.51791 0.87951 0.64402
   2  -6  -124000.57  803.11   1 0.00000 0.56068 0.77293 0.72787 0.63448 0.39475
   2  -6  -123480.86  686.45   1-0.06227 0.49830 0.88384 0.83805 0.46361 0.22215
   2  -6  -124284.67  541.37   1-0.65268-0.09250-0.32493-0.36631-0.68440-0.92588
   2  -6   0   92.48   61.61   1 0.00000 0.54973-0.43536-0.52043 0.90025 0.65341
   2  -6   0 1195.64  172.97   1 0.00000 0.54706 0.90821 0.82015 0.41849 0.16754
   2  -6   175468.27 1410.32   1 0.00000 0.53297 0.97606 0.84493 0.21747-0.04498
   2  -6   180861.32  978.24   1-0.72131-0.18783-0.17464-0.30215-0.67022-0.93457
  -2   6  -180430.24 1262.60   1-0.10219-0.63555-0.86672-0.73900-0.48819-0.22349
   2  -6   2 2911.20  203.54   1 0.00000 0.52112-0.36558-0.54060 0.93077 0.66043
   2  -6   2 5162.87  369.88   1 0.00000 0.51937 0.99877 0.82461 0.04950-0.22420
   2  -6   2 5191.32  235.94   1-0.74522-0.22508-0.10705-0.27762-0.65816-0.93395
  -2   6  -2 5326.05  332.64   1-0.19464-0.71464-0.81820-0.64739-0.54097-0.26487
   2  -6   3 6385.04  291.54   1 0.00000 0.50748-0.33557-0.55350 0.94201 0.66037
   2  -6   3 7246.46  403.95   1 0.00000 0.50576 0.99635 0.77916-0.08531-0.37027
   2  -6   3 6548.70  259.27   1-0.76366-0.25686-0.04465-0.25829-0.64406-0.93129
  -2   6  -3 6965.61  346.12   1-0.27330-0.77995-0.76659-0.55270-0.58106-0.29357
   2  -6   4  122.51   68.97   1 0.00000 0.49383-0.30657-0.56742 0.95184 0.65890
   2  -6   4  271.63  109.12   1 0.00000 0.49216 0.98158 0.72136-0.19104-0.48725
   2  -6   4  214.27   66.70   1-0.77762-0.28417 0.01288-0.24381-0.62859-0.92725
  -2   6  -4  265.85  102.70   1-0.33874-0.83204-0.71573-0.45876-0.61071-0.31183
   2  -6   520686.47  569.92   1 0.00000 0.48019-0.27823-0.58199 0.96051 0.65626
   2  -6   524042.85  702.84   1 0.00000 0.47855 0.96198 0.65873-0.27310-0.58056
   2  -6   524376.00  462.37   1-0.78794-0.30784 0.06604-0.23371-0.61218-0.92228
  -2   6  -524140.74  701.42   1-0.39234-0.87229-0.66811-0.36805-0.63221-0.32193
   2  -6   630258.08  627.65   1 0.00000 0.46655-0.25033-0.59700 0.96815 0.65261
   2  -6   628792.02  719.90   1 0.00000 0.46495 0.94167 0.59540-0.33651-0.65522
   2  -6   629234.19  549.59   1-0.79529-0.32853 0.11534-0.22748-0.59515-0.91668
  -2   6  -626972.39  735.75   1-0.43578-0.90237-0.62509-0.28195-0.64757-0.32589
   2  -6   7  817.86  119.36   1 0.00000 0.45291-0.22271-0.61230 0.97488 0.64803
   2  -6   7  -18.23   90.00   1 0.00000 0.45136 0.92277 0.53351-0.38534-0.71528
   2  -6   7   61.75   50.71   1-0.80016-0.34675 0.16126-0.22462-0.57768-0.91066
  -2   6  -7   10.84   88.10   1-0.47072-0.92396-0.58727-0.20106-0.65842-0.32535
   2  -6   813966.55  523.19   1 0.00000 0.43926-0.19526-0.62777 0.98075 0.64260
  -2   6  -818556.35  674.44   1-0.49864-0.93853-0.55476-0.12546-0.66602-0.32156
  -2   6  -9   22.89   68.40   1 0.00000-0.43016-0.89327-0.42108 0.44951 0.79852
   2  -6   9  100.94   74.16   1 0.00000 0.42562-0.16792-0.64335 0.98580 0.63634
  -2   6  -9   87.43   79.46   1-0.52080-0.94734-0.52735-0.05497-0.67131-0.31545
  -2   6 -10 1733.84  242.03   1 0.00000-0.41688-0.88196-0.36676 0.47131 0.83168
   2  -6  10 1110.08  170.06   1 0.00000 0.41198-0.14062-0.65896 0.99006 0.62931
   2  -6  10 1541.37  167.77   1-0.79265-0.38337-0.40009-0.91873 0.46001 0.09455
  -2   6 -10 1461.45  200.93   1-0.53807-0.95144-0.50492 0.01016-0.67492-0.30764
  -2   6 -11  575.57  163.98   1 0.00000-0.40359-0.87325-0.31503 0.48727 0.85898
   2  -6  11  155.09   91.69   1 0.00000 0.39834-0.11331-0.67457 0.99355 0.62150
  -2   6 -11  750.61  166.68   1-0.55163-0.95165-0.48660 0.07154-0.67743-0.29871
  -2   6 -1215308.96  728.44   1 0.00000-0.39030-0.86692-0.26569 0.49844 0.88151
   2  -6  1213431.82  700.13   1 0.00000 0.38470-0.08597-0.69015 0.99629 0.61294
  -2   6 -1316711.32  594.50   1 0.00000-0.37702-0.86274-0.21850 0.50563 0.90006
  -2   6 -14 1111.40  204.19   1 0.00000-0.36374-0.86048-0.17322 0.50947 0.91525
  -2   6 -15  345.30   97.12   1 0.00000-0.35045-0.85991-0.12964 0.51043 0.92756
   2  -5 -16  242.79   86.70   1 0.00000 0.68161-0.69838-0.09774 0.71572 0.72515
   2  -5 -16  170.92  125.70   1-0.73320-0.04782 0.14249 0.74090 0.66490 0.66990
   2  -5 -15 9203.21  432.28   1 0.00000 0.66832-0.67678-0.11916 0.73618 0.73426
  -2   5  15 9055.66  572.78   1 0.00000-0.67123 0.69304 0.13814 0.72089 0.72826
   2  -5 -1510403.34  487.06   1-0.71559-0.04390 0.18927 0.74463 0.67238 0.66603
   2  -5 -1415522.43  528.22   1 0.00000 0.65504-0.65488-0.14027 0.75572 0.74245
  -2   5  1415108.22  672.58   1 0.00000-0.65761 0.70447 0.19257 0.70973 0.72832
   2  -5 -1417723.67  592.18   1-0.69531-0.03731 0.23746 0.74977 0.67834 0.66063
   2  -5 -13   52.47   81.67   1 0.00000 0.64175-0.63266-0.16106 0.77442 0.74980
  -2   5  13  196.53  103.54   1 0.00000-0.64399 0.72166 0.25277 0.69224 0.72205
   2  -5 -13   56.03  101.70   1-0.67142-0.02673 0.28842 0.75795 0.68264 0.65175
   2  -5 -1217671.70  548.90   1 0.00000 0.62847-0.61008-0.18150 0.79233 0.75635
  -2   5  1221390.51  735.97   1 0.00000-0.63038 0.74566 0.31978 0.66632 0.70735
   2  -5 -1220882.70  620.70   1-0.64476-0.01374 0.33961 0.76604 0.68479 0.64264
  -2   5  1218354.39  687.07   1-0.09461-0.72577 0.87015 0.44376 0.48360 0.52566
   2  -5 -11  179.37   95.49   1 0.00000 0.61518-0.58709-0.20152 0.80951 0.76218
  -2   5  11  425.27  126.09   1 0.00000-0.61676 0.77759 0.39472 0.62876 0.68102
   2  -5 -11  464.02  122.36   1-0.61434 0.00299 0.39232 0.77563 0.68458 0.63117
  -2   5  11  355.94  171.97   1-0.07475-0.69222 0.87874 0.49546 0.47140 0.52472
   2  -5 -10 3913.65  239.04   1 0.00000 0.60190-0.56359-0.22104 0.82604 0.76736
  -2   5  10 4279.65  313.86   1 0.00000-0.60315 0.81839 0.47853 0.57464 0.63813
   2  -5 -10 4726.93  321.45   1-0.57972 0.02393 0.44645 0.78663 0.68161 0.61694
  -2   5  10 4285.84  315.67   1-0.05056-0.65435 0.88844 0.54828 0.45619 0.52077
   2  -5  -9   47.56   60.84   1 0.00000 0.58861-0.53942-0.23988 0.84203 0.77200
  -2   5   9   63.36   85.11   1 0.00000-0.58953 0.86812 0.57127 0.49634 0.57104
   2  -5  -9  140.31  104.20   1-0.54042 0.04956 0.50179 0.79886 0.67538 0.59946
  -2   5   9   -6.65   93.76   1-0.02160-0.61171 0.89896 0.60192 0.43748 0.51331
   2  -5  -8   91.59   58.17   1 0.00000 0.57533-0.51424-0.25772 0.85764 0.77625
  -2   5   8    0.85   78.97   1 0.00000-0.57541 0.92333 0.66936 0.38399 0.46994
   2  -5  -8  101.23  100.11   1-0.49594 0.08036 0.55800 0.81196 0.66533 0.57815
   2  -5  -7  400.59   82.91   1 0.00000 0.56204-0.48739-0.27388 0.87317 0.78044
  -2   5   7  495.68  107.90   1 0.00000-0.56181 0.97611 0.76517 0.21724 0.31444
   2  -5  -7  576.92  112.22   1-0.44583 0.11679 0.61451 0.82535 0.65084 0.55239
   2  -5  -6 6716.67  338.59   1 0.00000 0.54876-0.45717-0.28667 0.88937 0.78528
  -2   5   6 7146.95  367.69   1 0.00000-0.54820 0.99976 0.83184-0.02186 0.08658
   2  -5  -6 7139.49  365.97   1-0.38977 0.15918 0.67052 0.83824 0.63124 0.52154
   2  -5  -6 7255.39  365.83   1-0.15105 0.39593-0.84266-0.67164-0.51682-0.62619
  -2   5   5 3876.37  291.13   1 0.00000-0.53460 0.94175 0.81686-0.33629-0.21660
   2  -5  -5 3356.76  259.43   1-0.32763 0.20764 0.72491 0.84952 0.60593 0.48497
   2  -5  -5 3281.33  264.55   1-0.23216 0.30147-0.79482-0.66689-0.56067-0.68144
   2  -5  -416805.60 1395.64   1 0.00000 0.52222-0.73696-0.65248 0.67593 0.54913
   2  -5  -416177.80  857.82   1 0.00000 0.52253-0.34996-0.26950 0.93676 0.80890
   2  -5  -416591.19  619.24   1-0.25959 0.26200 0.77630 0.85779 0.57441 0.44219
   2  -5  -417214.21  539.07   1-0.31695 0.20333-0.73352-0.64867-0.60123-0.73340
   2  -5  -3   96.48  129.30   1 0.00000 0.50893-0.51175-0.47029 0.85913 0.72097
   2  -5  -3  161.41  151.96   1 0.00000 0.50887-0.01947 0.01806 0.99980 0.86064
   2  -5  -3  339.62  105.18   1-0.18638 0.32162 0.82306 0.86140 0.53649 0.39310
   2  -5  -3  137.16   80.58   1-0.40111 0.10581-0.65975-0.61799-0.63547-0.77903
   2  -5  -2   55.96   58.17   1 0.00000 0.49562-0.43417-0.43573 0.90082 0.75132
   2  -5  -2  347.65  129.36   1-0.10902 0.38529 0.86357 0.85880 0.49229 0.33764
   2  -5  -2  368.34   78.61   1-0.48019 0.01337-0.57648-0.57779-0.66111-0.81607
   2  -5  -115458.02  730.39   1 0.00000 0.48233-0.39423-0.43880 0.91901 0.75815
   2  -5  -116396.69  651.16   1 0.00000 0.48060 0.83401 0.78679 0.55174 0.38726
   2  -5  -116452.75  603.99   1-0.02929 0.45134 0.89628 0.84840 0.44250 0.27659
   2  -5  -117189.02  546.89   1-0.54995-0.06965-0.48890-0.53319-0.67714-0.84312
   2  -5   0  388.41   73.83   1 0.00000 0.46791-0.36005-0.45126 0.93293 0.75987
   2  -5   0 1288.30  173.55   1 0.00000 0.46657 0.97305 0.88279 0.23058 0.05465
   2  -5   0  854.30  103.10   1-0.61006-0.14312-0.39932-0.48667-0.68436-0.86178
   2  -5   1  507.26   86.42   1 0.00000 0.45427-0.33299-0.46712 0.94292 0.75857
   2  -5   1   80.60   90.08   1 0.00000 0.45296 0.99974 0.86645-0.02276-0.20994
   2  -5   1   76.96   69.66   1-0.65937-0.20577-0.31222-0.44263-0.68392-0.87277
  -2   5  -1  100.56   76.61   1-0.17495-0.62848-0.82960-0.69904-0.53023-0.34109
   2  -5   2 9139.00  355.92   1 0.00000 0.44063-0.30685-0.48390 0.95175 0.75609
   2  -5   2 7391.72  378.85   1 0.00000 0.43936 0.97863 0.80232-0.20559-0.40403
   2  -5   2 7750.14  289.16   1-0.69866-0.25841-0.22984-0.40332-0.67751-0.87780
  -2   5  -2 7438.53  334.18   1-0.26747-0.70764-0.77076-0.59712-0.57825-0.37772
   2  -5   3 1031.89  119.80   1 0.00000 0.42699-0.28115-0.50112 0.95966 0.75269
   2  -5   3 2546.50  218.46   1 0.00000 0.42575 0.94252 0.72318-0.33413-0.54381
   2  -5   3 2207.03  172.55   1-0.72932-0.30241-0.15328-0.36983-0.66677-0.87850
  -2   5  -3 2293.59  228.40   1-0.34438-0.77120-0.71098-0.49426-0.61310-0.40117
   2  -5   428349.27  672.58   1 0.00000 0.41334-0.25566-0.51854 0.96676 0.74850
   2  -5   423751.50  493.39   1-0.75280-0.33924-0.08277-0.34237-0.65301-0.87617
  -2   5  -425320.39  662.01   1-0.40678-0.82025-0.65426-0.39446-0.63753-0.41421
  -2   5  -5 1305.16  176.83   1 0.00000-0.40262-0.87372-0.57107 0.48641 0.71538
   2  -5   5  503.41   86.86   1 0.00000 0.39970-0.23025-0.53604 0.97313 0.74356
   2  -5   5 1404.30  106.66   1-0.77048-0.37026-0.01804-0.32071-0.63720-0.87180
  -2   5  -5 1534.14  151.01   1-0.45662-0.85674-0.60290-0.30002-0.65421-0.41950
  -2   5  -6 4321.09  312.90   1 0.00000-0.38933-0.84614-0.50048 0.53294 0.77326
   2  -5   6 3700.68  215.88   1 0.00000 0.38606-0.20483-0.55355 0.97879 0.73792
   2  -5   6 5005.62  226.89   1-0.78347-0.39660 0.04141-0.30431-0.62004-0.86607
  -2   5  -6 4675.69  272.54   1-0.49601-0.88278-0.55791-0.21194-0.66535-0.41924
  -2   5  -7 4269.59  242.51   1 0.00000-0.37605-0.82430-0.43562 0.56614 0.81781
   2  -5   7 4049.28  264.11   1 0.00000 0.37242-0.17937-0.57100 0.98378 0.73161
   2  -5   7 4320.56  197.62   1-0.79269-0.41916 0.09618-0.29261-0.60198-0.85946
  -2   5  -7 4119.71  284.28   1-0.52676-0.90028-0.51972-0.13092-0.67261-0.41513
  -2   5  -8 1880.23  189.37   1 0.00000-0.36276-0.80765-0.37596 0.58965 0.85267
   2  -5   8 1353.03  144.96   1 0.00000 0.35877-0.15384-0.58838 0.98809 0.72462
   2  -5   8 1648.96  117.75   1-0.79884-0.43866 0.14684-0.28501-0.58334-0.85225
  -2   5  -8 1860.45  202.62   1-0.55092-0.91110-0.48757-0.05571-0.67731-0.40840
  -2   5  -940789.76  829.09   1 0.00000-0.34948-0.79551-0.32080 0.60593 0.88031
   2  -5   942082.26  745.83   1 0.00000 0.34513-0.12820-0.60566 0.99174 0.71697
   2  -5   944632.42  900.99   1-0.79329-0.45016-0.39598-0.87384 0.46246 0.18370
  -2   5  -938449.35  861.15   1-0.56961-0.91644-0.46126 0.01366-0.68027-0.39992
  -2   5 -10 2028.70  219.66   1 0.00000-0.33619-0.78720-0.26948 0.61668 0.90241
   2  -5  10 2053.57  181.68   1 0.00000 0.33149-0.10244-0.62282 0.99473 0.70866
   2  -5  10 2089.99  200.63   1-0.80039-0.47095-0.33692-0.85783 0.49583 0.20572
  -2   5 -10 2123.51  189.78   1-0.58390-0.91738-0.44021 0.07777-0.68210-0.39031
  -2   5 -1115353.35  499.24   1 0.00000-0.32291-0.78215-0.22141 0.62308 0.92016
   2  -5  1113807.37  498.13   1 0.00000 0.31785-0.07655-0.63984 0.99706 0.69968
   2  -5  1112766.35  523.45   1-0.80367-0.48791-0.27976-0.84372 0.52520 0.22375
  -2   5 -1113659.01  519.76   1-0.59461-0.91475-0.42384 0.13720-0.68321-0.37998
  -2   5 -12   22.98  106.90   1 0.00000-0.30962-0.77983-0.17608 0.62598 0.93441
   2  -5  12   52.11  135.00   1 0.00000 0.30421-0.05052-0.65673 0.99872 0.69004
   2  -5  12   49.86  110.00   1-0.80371-0.50164-0.22462-0.83163 0.55099 0.23818
  -2   5 -12   67.46   96.27   1-0.60240-0.90919-0.41163 0.19248-0.68386-0.36919
  -2   5 -13  246.29  108.43   1 0.00000-0.29633-0.77983-0.13307 0.62598 0.94576
   2  -5  13  209.74   87.31   1 0.00000 0.29056-0.02433-0.67345 0.99970 0.67972
  -2   5 -14 1155.11  128.54   1 0.00000-0.28305-0.78178-0.09201 0.62354 0.95468
  -2   5 -15  865.28  165.70   1 0.00000-0.26976-0.78539-0.05260 0.61900 0.96148
  -2   5 -16 2029.56  297.29   1 0.00000-0.25648-0.79039-0.01458 0.61259 0.96643
   2  -4 -17 1652.54  155.05   1 0.00000 0.61421-0.72447-0.08334 0.68930 0.78472
  -2   4  17  842.35  182.03   1 0.00000-0.61838 0.50286-0.13589 0.86436 0.77403
   2  -4 -17 1214.72  175.90   1-0.76837-0.14914 0.02652 0.66571 0.63944 0.73114
   2  -4 -16  344.49  123.29   1 0.00000 0.60092-0.70634-0.10822 0.70787 0.79194
  -2   4  16  166.44  101.19   1 0.00000-0.60477 0.49469-0.10106 0.86906 0.78996
   2  -4 -16   84.86  103.12   1-0.75661-0.15107 0.06989 0.66603 0.65010 0.73045
   2  -4 -15 1204.43  129.87   1 0.00000 0.58764-0.68838-0.13327 0.72534 0.79806
  -2   4  15 1530.85  173.97   1 0.00000-0.59115 0.48957-0.06317 0.87196 0.80408
   2  -4 -15 1812.04  168.13   1-0.74266-0.15081 0.11489 0.66798 0.65973 0.72873
   2  -4 -14 1985.57  169.66   1 0.00000 0.57435-0.67070-0.15861 0.74172 0.80309
  -2   4  14 1081.13  156.66   1 0.00000-0.57753 0.48818-0.02155 0.87273 0.81607
   2  -4 -14 1136.45  136.42   1-0.72621-0.14805 0.16171 0.67175 0.66817 0.72582
  -2   4  14 1164.77  246.39   1-0.23630-0.81475 0.79210 0.28155 0.56278 0.50686
   2  -4 -13 5450.14  271.92   1 0.00000 0.56107-0.65346-0.18439 0.75695 0.80696
  -2   4  13 6527.72  336.33   1 0.00000-0.56392 0.49146 0.02473 0.87089 0.82545
   2  -4 -13 6304.20  300.52   1-0.70690-0.14242 0.21058 0.67756 0.67523 0.72153
  -2   4  13 5932.33  384.90   1-0.22710-0.79187 0.79810 0.33066 0.55807 0.51341
   2  -4 -1250062.26  735.48   1 0.00000 0.54778-0.63688-0.21082 0.77095 0.80961
  -2   4  1243596.00  886.30   1 0.00000-0.55030 0.50069 0.07697 0.86562 0.83140
   2  -4 -1242856.62  827.83   1-0.68367-0.13257 0.26298 0.68731 0.68075 0.71416
  -2   4  1245193.61 1002.90   1-0.21428-0.76537 0.80624 0.38191 0.55141 0.51801
   2  -4 -1117743.96  452.44   1 0.00000 0.53450-0.62128-0.23823 0.78358 0.81089
  -2   4  1119199.69  629.50   1 0.00000-0.53668 0.51766 0.13694 0.85558 0.83259
   2  -4 -1119806.77  576.74   1-0.65710-0.11968 0.31657 0.69777 0.68410 0.70624
  -2   4  1117895.51  754.23   1-0.19719-0.73472 0.81668 0.43550 0.54234 0.52011
   2  -4 -10  945.23  109.66   1 0.00000 0.52121-0.60715-0.26711 0.79458 0.81054
  -2   4  10 1182.34  169.20   1 0.00000-0.52307 0.54492 0.20722 0.83848 0.82671
   2  -4 -10  950.43  137.94   1-0.62598-0.10224 0.37278 0.71087 0.68496 0.69584
  -2   4  10 1501.15  178.47   1-0.17526-0.69910 0.82942 0.49136 0.53040 0.51943
   2  -4  -9 2827.81  179.59   1 0.00000 0.50792-0.59530-0.29829 0.80349 0.80810
  -2   4   9 3340.14  274.55   1 0.00000-0.50945 0.58620 0.29150 0.81016 0.80961
   2  -4  -9 3073.47  232.65   1-0.58949-0.07943 0.43173 0.72670 0.68271 0.68234
  -2   4   9 2899.50  250.60   1-0.14760-0.65776 0.84447 0.54952 0.51485 0.51514
   2  -4  -8  565.95   92.17   1 0.00000 0.49464-0.58722-0.33322 0.80942 0.80267
  -2   4   8  772.04  127.29   1 0.00000-0.49584 0.64683 0.39514 0.76263 0.77330
   2  -4  -8  735.47  145.39   1-0.54668-0.05029 0.49336 0.74521 0.67655 0.66492
  -2   4   8  747.17  161.93   1-0.11327-0.60975 0.86157 0.60974 0.49482 0.50637
   2  -4  -7  161.43   60.68   1 0.00000 0.48135-0.58584-0.37485 0.81042 0.79232
  -2   4   7  256.95   94.06   1 0.00000-0.48222 0.73393 0.52525 0.67922 0.70111
   2  -4  -7  236.16  111.77   1-0.49648-0.01377 0.55735 0.76609 0.66547 0.64258
  -2   4   7  252.40  159.13   1-0.07129-0.55408 0.88017 0.67146 0.46925 0.49206
   2  -4  -6   55.59   44.36   1 0.00000 0.46807-0.59823-0.43025 0.80132 0.77187
  -2   4   6  232.40   83.59   1 0.00000-0.46860 0.85317 0.68750 0.52162 0.55474
   2  -4  -6  198.94  107.75   1-0.43779 0.03124 0.62299 0.78862 0.64823 0.61408
  -2   4   6  294.07   96.34   1-0.02070-0.48981 0.89927 0.73367 0.43689 0.47095
   2  -4  -572040.18 1654.75   1 0.00000 0.45479-0.64804-0.52308 0.76160 0.72079
  -2   4   577432.93 1524.61   1 0.00000-0.45459 0.98117 0.85844 0.19310 0.23752
   2  -4  -580847.46 1453.03   1-0.36961 0.08574 0.68900 0.81150 0.62342 0.57801
   2  -4  -496499.40 1685.39   1-0.29136 0.15031 0.75331 0.83270 0.58960 0.53293
   2  -4  -498394.94 1757.25   1-0.13892 0.30152-0.84896-0.76694-0.50986-0.56646
   2  -4  -3 4146.17  274.03   1-0.20324 0.22476 0.81303 0.84931 0.54558 0.47765
   2  -4  -3 3981.97  245.98   1-0.23841 0.18868-0.79071-0.75177-0.56385-0.63184
   2  -4  -217275.23  601.29   1-0.10675 0.30762 0.86463 0.85776 0.49092 0.41182
   2  -4  -215199.21  529.97   1-0.33886 0.07488-0.71563-0.71977-0.61076-0.69015
   2  -4  -1  179.38   62.84   1 0.00000 0.40107-0.03080-0.08113 0.99952 0.91244
   2  -4  -1  266.29   86.02   1 0.00000 0.40016 0.88541 0.83603 0.46480 0.37538
   2  -4  -1  211.30   67.93   1-0.43391-0.03351-0.62703-0.67425-0.64695-0.73773
   2  -4   0 6463.55  427.81   1 0.00000 0.38742-0.14111-0.23436 0.98999 0.89161
   2  -4   0 5030.39  356.57   1 0.00000 0.38656 0.99678 0.90437-0.08009-0.18075
   2  -4   0 5047.95  273.19   1-0.51837-0.13133-0.53042-0.62073-0.67076-0.77294
  -2   4   0 5159.15  303.76   1-0.11415-0.50119-0.86116-0.77085-0.49534-0.39317
   2  -4   1143422.5 2147.90   1 0.00000 0.37295 0.93037 0.79494-0.36659-0.47851
   2  -4   1145716.5 1879.93   1-0.58912-0.21541-0.43230-0.56562-0.68267-0.79603
  -2   4  -2  356.45   85.45   1 0.00000-0.36179-0.85492-0.67879 0.51875 0.63902
   2  -4   2  449.64   76.19   1-0.64662-0.28626-0.33619-0.51258-0.68471-0.80951
  -2   4  -2  508.59   94.69   1-0.32157-0.68191-0.72981-0.55334-0.60328-0.47832
  -2   4  -320102.61  529.55   1 0.00000-0.34850-0.79250-0.57335 0.60986 0.74148
   2  -4   323753.75  582.75   1 0.00000 0.34650-0.16672-0.38872 0.98600 0.85371
   2  -4   322433.31  532.71   1-0.69163-0.34461-0.24568-0.46513-0.67917-0.81540
  -2   4  -323841.87  644.51   1-0.39859-0.74558-0.66217-0.44262-0.63454-0.49818
  -2   4  -4 1455.83  137.76   1 0.00000-0.33522-0.74697-0.48481 0.66485 0.80782
   2  -4   4 1161.11  134.30   1 0.00000 0.33285-0.15498-0.41989 0.98791 0.84432
   2  -4   4 1447.89  117.60   1-0.72605-0.39238-0.16212-0.42463-0.66824-0.81591
  -2   4  -4 1416.99  149.93   1-0.45940-0.79303-0.59986-0.33723-0.65506-0.50731
  -2   4  -5  152.68   58.26   1 0.00000-0.32193-0.71497-0.40980 0.69915 0.85347
   2  -4   5  174.00   83.68   1 0.00000 0.31921-0.13982-0.44765 0.99017 0.83528
   2  -4   5   25.37   66.03   1-0.75190-0.43157-0.08575-0.39132-0.65366-0.81277
  -2   4  -5  -11.79   89.33   1-0.50661-0.82690-0.54506-0.23936-0.66800-0.50886
  -2   4  -621309.16  591.15   1 0.00000-0.30865-0.69324-0.34505 0.72070 0.88638
   2  -4   623025.77  645.69   1 0.00000 0.30557-0.12240-0.47315 0.99247 0.82628
   2  -4   620062.28  488.75   1-0.77093-0.46395-0.01618-0.36482-0.63670-0.80725
  -2   4  -622284.75  652.14   1-0.54283-0.84982-0.49855-0.14991-0.67584-0.50530
  -2   4  -7 5927.35  362.27   1 0.00000-0.29536-0.67926-0.28806 0.73389 0.91092
   2  -4   7 7659.69  335.98   1 0.00000 0.29193-0.10337-0.49703 0.99464 0.81715
   2  -4   7 4524.24  342.35   1-0.78630-0.49563-0.43541-0.82944 0.43833 0.25762
   2  -4   7 4543.53  266.49   1-0.78458-0.49094 0.04724-0.34445-0.61821-0.80020
  -2   4  -7 4837.70  361.83   1-0.57060-0.86424-0.45982-0.06811-0.68041-0.49843
  -2   4  -8 4349.66  257.70   1 0.00000-0.28207-0.67119-0.23698 0.74127 0.92966
   2  -4   8 3456.44  234.92   1 0.00000 0.27828-0.08313-0.51971 0.99653 0.80774
   2  -4   8 6449.82  338.51   1-0.79724-0.52025-0.36724-0.80432 0.47909 0.28704
   2  -4   8 5596.25  227.35   1-0.79396-0.51367 0.10527-0.32949-0.59877-0.79219
  -2   4  -8 5106.99  278.03   1-0.59168-0.87197-0.42838 0.00638-0.68293-0.48951
  -2   4  -9 4606.86  252.55   1 0.00000-0.26879-0.66768-0.19045 0.74444 0.94418
   2  -4   9 4527.07  246.42   1 0.00000 0.26464-0.06197-0.54146 0.99807 0.79798
   2  -4   9 5194.29  300.08   1-0.80277-0.53947-0.30256-0.78269 0.51382 0.31041
   2  -4   9 4656.16  205.18   1-0.79993-0.53299 0.15861-0.31921-0.57873-0.78359
  -2   4  -9 5089.03  288.13   1-0.60751-0.87446-0.40345 0.07437-0.68421-0.47935
  -2   4 -10 5884.56  286.68   1 0.00000-0.25551-0.66772-0.14748 0.74440 0.95549
   2  -4  10 4831.26  259.24   1 0.00000 0.25100-0.04005-0.56246 0.99919 0.78779
   2  -4  10 6722.51  310.02   1-0.80401-0.55441-0.24143-0.76461 0.54338 0.32863
  -2   4 -10 7118.78  305.33   1-0.61923-0.87282-0.38421 0.13668-0.68478-0.46849
  -2   4 -11 1403.07  143.09   1 0.00000-0.24222-0.67059-0.10733 0.74182 0.96426
   2  -4  11 1437.58  172.03   1 0.00000 0.23736-0.01751-0.58284 0.99984 0.77714
   2  -4  11  917.87  140.50   1-0.80185-0.56593-0.18372-0.74995 0.56857 0.34246
  -2   4 -11  914.73  142.86   1-0.62765-0.86790-0.36992 0.19403-0.68498-0.45725
  -2   4 -12 2094.00  164.08   1 0.00000-0.22893-0.67570-0.06943 0.73716 0.97096
   2  -4  12 2152.26  182.77   1 0.00000 0.22372 0.00556-0.60267 0.99998 0.76598
   2  -4  12 2171.33  182.66   1-0.79696-0.57473-0.12920-0.73848 0.59004 0.35259
  -2   4 -12 2239.80  218.99   1-0.63341-0.86032-0.35991 0.24711-0.68501-0.44584
  -2   4 -1326843.22  587.99   1 0.00000-0.21565-0.68263-0.03335 0.73075 0.97589
   2  -4  1323413.79  604.81   1 0.00000 0.21007 0.02911-0.62204 0.99957 0.75427
   2  -4  1325065.04  715.35   1-0.78986-0.58132-0.07758-0.72992 0.60835 0.35955
  -2   4 -1324521.63  606.17   1-0.63698-0.85054-0.35362 0.29646-0.68498-0.43437
  -2   4 -14  457.51  106.62   1 0.00000-0.20236-0.69104 0.00125 0.72281 0.97930
   2  -4  14  426.58  130.43   1 0.00000 0.19643 0.05308-0.64099 0.99858 0.74198
   2  -4  14  209.99   96.77   1-0.78093-0.58609-0.02859-0.72398 0.62395 0.36379
  -2   4 -15  287.96   87.46   1 0.00000-0.18908-0.70065 0.03465 0.71350 0.98134
  -2   4 -16   35.23   93.59   1 0.00000-0.17579-0.71125 0.06707 0.70293 0.98213
  -2   4 -17  333.84  108.78   1 0.00000-0.16251-0.72265 0.09868 0.69120 0.98175
   2  -3 -18  519.29  113.11   1 0.00000 0.54681-0.75791-0.07629 0.65235 0.83377
  -2   3  18  130.86  121.39   1 0.00000-0.55249 0.33805-0.33914 0.94112 0.76139
   2  -3 -18  401.55  102.51   1-0.79331-0.24023-0.10058 0.57939 0.60044 0.77883
   2  -3 -17  669.31  154.13   1 0.00000 0.53352-0.74303-0.10443 0.66924 0.83931
  -2   3  17  469.20  117.24   1 0.00000-0.53885 0.31650-0.31777 0.94858 0.78016
   2  -3 -17  712.19  143.27   1-0.78738-0.24799-0.06278 0.57413 0.61325 0.78029
   2  -3 -16 3619.15  264.52   1 0.00000 0.52024-0.72865-0.13306 0.68487 0.84359
  -2   3  16 3146.96  296.53   1 0.00000-0.52521 0.29599-0.29537 0.95518 0.79806
   2  -3 -16 3555.73  301.76   1-0.77991-0.25420-0.02361 0.57025 0.62544 0.78114
   2  -3 -15 2892.12  232.64   1 0.00000 0.50695-0.71494-0.16236 0.69918 0.84654
  -2   3  15 2865.91  266.65   1 0.00000-0.51156 0.27669-0.27175 0.96095 0.81513
   2  -3 -15 2859.10  215.00   1-0.77069-0.25868 0.01717 0.56799 0.63697 0.78132
  -2   3  15 2332.84  299.45   1-0.35497-0.86717 0.70191 0.15034 0.61750 0.47477
   2  -3 -1476371.25  981.24   1 0.00000 0.49366-0.70212-0.19255 0.71205 0.84806
  -2   3  1476034.78 1263.61   1 0.00000-0.49792 0.25885-0.24668 0.96591 0.83139
   2  -3 -1474787.24 1109.08   1-0.75948-0.26116 0.05986 0.56763 0.64776 0.78075
  -2   3  1477811.78 1636.40   1-0.35378-0.85230 0.70294 0.19449 0.61701 0.48554
   2  -3 -1311751.09  394.74   1 0.00000 0.48038-0.69050-0.22395 0.72332 0.84798
  -2   3  1311474.51  474.72   1 0.00000-0.48428 0.24282-0.21979 0.97007 0.84685
   2  -3 -1313279.60  476.09   1-0.74595-0.26132 0.10477 0.56949 0.65769 0.77934
  -2   3  1312845.97  555.74   1-0.34985-0.83470 0.70632 0.24099 0.61538 0.49517
   2  -3 -1291919.67 1166.67   1 0.00000 0.46709-0.68051-0.25697 0.73273 0.84603
  -2   3  1295048.45 1339.27   1 0.00000-0.47064 0.22909-0.19061 0.97340 0.86148
   2  -3 -12100509.8 1249.73   1-0.72967-0.25873 0.15232 0.57399 0.66661 0.77691
  -2   3  12104006.6 1611.13   1-0.34266-0.81384 0.71243 0.29021 0.61238 0.50342
   2  -3 -11 1946.19  153.02   1 0.00000 0.45381-0.67275-0.29222 0.73986 0.84181
  -2   3  11 1535.10  162.05   1 0.00000-0.45700 0.21838-0.15840 0.97586 0.87524
   2  -3 -11 1230.91  145.46   1-0.71005-0.25280 0.20297 0.58158 0.67425 0.77320
  -2   3  11 1032.54  156.80   1-0.33154-0.78904 0.72170 0.34260 0.60763 0.50993
   2  -3 -10 3554.23  207.02   1 0.00000 0.44052-0.66813-0.33062 0.74404 0.83463
  -2   3  10 3814.20  242.45   1 0.00000-0.44335 0.21181-0.12205 0.97730 0.88799
   2  -3 -10 3683.92  224.07   1-0.68574-0.24192 0.25854 0.59453 0.68037 0.76681
  -2   3  10 3991.28  313.91   1-0.31559-0.75941 0.73460 0.39861 0.60063 0.51419
   2  -3  -9 9266.13  354.17   1 0.00000 0.42724-0.66805-0.37355 0.74411 0.82335
  -2   3   9 9757.56  416.98   1 0.00000-0.42971 0.21118-0.07977 0.97744 0.89943
   2  -3  -9 9135.55  396.94   1-0.65682-0.22667 0.31710 0.60998 0.68412 0.75930
  -2   3   9 8612.77  431.35   1-0.29363-0.72377 0.75160 0.45873 0.59065 0.51547
   2  -3  -810709.21  363.28   1 0.00000 0.41395-0.67483-0.42335 0.73796 0.80585
  -2   3   811878.27  477.88   1 0.00000-0.41607 0.21957-0.02846 0.97559 0.90888
   2  -3  -8 8998.37  357.28   1-0.62138-0.20491 0.38060 0.63035 0.68485 0.74877
  -2   3   8 9475.23  458.34   1-0.26412-0.68058 0.77313 0.52338 0.57662 0.51270
   2  -3  -714574.26  442.65   1 0.00000 0.40067-0.69258-0.48411 0.72133 0.77787
  -2   3   716873.45  512.36   1 0.00000-0.40243 0.24276 0.03764 0.97008 0.91467
   2  -3  -717255.98  561.63   1-0.57758-0.17479 0.44962 0.65626 0.68134 0.73400
  -2   3   717797.07  663.14   1-0.22508-0.62788 0.79940 0.59276 0.55703 0.50437
   2  -3  -6 4534.15  244.84   1 0.00000 0.38738-0.72927-0.56381 0.68422 0.72940
  -2   3   6 4770.47  257.40   1 0.00000-0.38879 0.29305 0.13084 0.95609 0.91198
   2  -3  -6 4518.28  256.22   1-0.52302-0.13390 0.52452 0.68804 0.67180 0.71320
  -2   3   6 4237.33  280.76   1-0.17409-0.56325 0.83009 0.66658 0.52975 0.48827
   2  -3  -5 7177.77  324.34   1 0.00000 0.37410-0.80234-0.67990 0.59686 0.63069
  -2   3   5 7112.70  382.92   1 0.00000-0.37514 0.40226 0.28296 0.91552 0.88271
   2  -3  -5 9199.67  380.60   1-0.45472-0.07928 0.60496 0.72537 0.65363 0.68377
  -2   3   5 9193.08  432.67   1-0.10833-0.48380 0.86389 0.74351 0.49187 0.46165
  -2   3   457937.18 1343.47   1 0.00000-0.36129 0.70275 0.62526 0.71143 0.69174
  -2   3   450794.76 1686.45   1 0.00000-0.36095 0.95548 0.87789-0.29503-0.31465
   2  -3  -450220.12 1075.09   1-0.36940-0.00764 0.68918 0.76647 0.62334 0.64222
  -2   3   452629.24 1085.88   1-0.02515-0.38694 0.89774 0.82046 0.43980 0.42084
   2  -3  -3  634.97  128.89   1-0.26432 0.08376 0.77299 0.80716 0.57672 0.58434
   2  -3  -228454.73  780.70   1-0.13918 0.19523 0.84882 0.83986 0.51001 0.50646
   2  -3  -228704.09  734.60   1-0.19034 0.14356-0.82074-0.82771-0.53865-0.54247
   2  -3  -1 4893.30  291.43   1-0.30848 0.01208-0.74020-0.79025-0.59744-0.61266
  -2   3   0  486.98   98.18   1 0.00000-0.30767-0.72945-0.63682 0.68403 0.70695
   2  -3   0  337.76   80.53   1 0.00000 0.30693 0.30829 0.21300 0.95129 0.92758
   2  -3   0  164.93   70.17   1-0.41912-0.11191-0.64208-0.73521-0.64191-0.66852
  -2   3   0  184.36   79.56   1-0.13324-0.44045-0.85183-0.75870-0.50657-0.47996
  -2   3  -123815.79  576.72   1 0.00000-0.29439-0.59477-0.45913 0.80389 0.83817
   2  -3   124091.86  631.40   1 0.00000 0.29329 0.13372-0.00447 0.99101 0.95601
   2  -3   122102.59  815.92   1-0.51529-0.22143-0.53431-0.67052-0.67006-0.70806
  -2   3  -122963.68  827.57   1-0.25449-0.54835-0.77984-0.64363-0.57190-0.53389
  -2   3  -2  163.40   67.63   1 0.00000-0.28110-0.53249-0.35384 0.84643 0.89206
   2  -3   2   83.96   64.31   1 0.00000 0.27965 0.05711-0.12400 0.99836 0.95205
   2  -3   2  242.29   71.23   1-0.59374-0.31326-0.42519-0.60449-0.68313-0.73242
  -2   3  -2  530.93  119.18   1-0.35532-0.63583-0.70160-0.52231-0.61764-0.56825
  -2   3  -3 9067.83  331.04   1 0.00000-0.26782-0.50223-0.28056 0.86473 0.92171
   2  -3   3 9526.60  359.48   1 0.00000 0.26600 0.02025-0.20377 0.99979 0.94218
   2  -3   3 5630.49  243.27   1-0.65516-0.38802-0.32026-0.54262-0.68424-0.74497
  -2   3  -3 6426.96  327.83   1-0.43514-0.70229-0.62575-0.40338-0.64736-0.58656
  -2   3  -450760.71  860.44   1 0.00000-0.25453-0.48878-0.22410 0.87240 0.94073
   2  -3   451306.48  959.72   1 0.00000 0.25236 0.00351-0.26343 0.99999 0.93108
   2  -3   449900.10  864.53   1-0.70163-0.44784-0.22300-0.48842-0.67674-0.74891
  -2   3  -452269.30 1040.23   1-0.49636-0.75017-0.55749-0.29203-0.66544-0.59325
  -2   3  -5 7809.58  316.94   1 0.00000-0.24124-0.48519-0.17749 0.87440 0.95409
   2  -3   5 7657.04  323.41   1 0.00000 0.23872-0.00158-0.31145 0.99999 0.91978
   2  -3   5 5622.84  241.84   1-0.73599-0.49555-0.13455-0.44303-0.66347-0.74708
  -2   3  -5 5622.24  272.48   1-0.54252-0.78296-0.49897-0.19049-0.67578-0.59217
  -2   3  -610780.04  371.69   1 0.00000-0.22796-0.48785-0.13714 0.87292 0.96396
   2  -3   610518.71  390.70   1 0.00000 0.22508 0.00065-0.35212 1.00000 0.90848
   2  -3   612567.03  494.10   1-0.79658-0.57206-0.37252-0.72577 0.47609 0.38209
   2  -3   610674.60  332.31   1-0.76090-0.53381-0.05476-0.40630-0.64654-0.74159
  -2   3  -612373.25  443.22   1-0.57698-0.80408-0.45050-0.09895-0.68127-0.58622
  -2   3  -725766.57  590.82   1 0.00000-0.21468-0.49470-0.10098 0.86905 0.97144
   2  -3   725675.86  634.08   1 0.00000 0.21144 0.00787-0.38782 0.99996 0.89715
   2  -3   726564.22  734.41   1-0.80306-0.59223-0.29643-0.69272 0.51692 0.41157
   2  -3   725015.38  546.77   1-0.77854-0.56479 0.01713-0.37747-0.62735-0.73383
  -2   3  -725489.49  643.10   1-0.60254-0.81629-0.41140-0.01679-0.68387-0.57738
  -2   3  -8  100.74   68.02   1 0.00000-0.20139-0.50448-0.06774 0.86342 0.97716
   2  -3   8  138.78   90.90   1 0.00000 0.19779 0.01861-0.41999 0.99982 0.88570
   2  -3   8   79.22   61.94   1-0.80377-0.60663-0.22731-0.66665 0.54978 0.43308
   2  -3   8   55.56   49.30   1-0.79057-0.59017 0.08211-0.35556-0.60683-0.72475
  -2   3  -8  178.86   68.81   1-0.62138-0.82178-0.38060 0.05707-0.68485-0.56693
  -2   3  -917610.76  511.97   1 0.00000-0.18810-0.51636-0.03661 0.85636 0.98146
   2  -3   917641.24  596.41   1 0.00000 0.18415 0.03198-0.44954 0.99948 0.87406
   2  -3   916245.81  526.07   1-0.80042-0.61697-0.16434-0.64674 0.57646 0.44840
   2  -3   915866.40  406.04   1-0.79826-0.61120 0.14112-0.33961-0.58554-0.71490
  -2   3  -916336.24  510.85   1-0.63509-0.82215-0.35696 0.12377-0.68500-0.55564
  -2   3 -10  598.49  106.12   1 0.00000-0.17482-0.52979-0.00702 0.84812 0.98457
   2  -3  10  631.22  108.39   1 0.00000 0.17051 0.04735-0.47708 0.99887 0.86215
   2  -3  10  566.25  125.31   1-0.79415-0.62439-0.10666-0.63211 0.59828 0.45887
  -2   3 -10  362.61  100.74   1-0.64486-0.81858-0.33942 0.18438-0.68478-0.54399
  -2   3 -1121757.27  530.28   1 0.00000-0.16153-0.54438 0.02139 0.83883 0.98663
   2  -3  1121333.67  626.07   1 0.00000 0.15687 0.06432-0.50304 0.99792 0.84990
   2  -3  1120280.35  552.52   1-0.78573-0.62965-0.05347-0.62197 0.61625 0.46549
  -2   3 -1117127.77  504.45   1-0.65155-0.81192-0.32706 0.23980-0.68447-0.53223
  -2   3 -12 4469.55  236.15   1 0.00000-0.14825-0.55986 0.04892 0.82858 0.98773
   2  -3  12 4884.12  280.64   1 0.00000 0.14322 0.08256-0.52771 0.99658 0.83726
   2  -3  12 5008.56  283.92   1-0.77567-0.63328-0.00405-0.61560 0.63112 0.46901
  -2   3 -12 4503.11  254.49   1-0.65577-0.80279-0.31911 0.29082-0.68420-0.52052
  -2   3 -13 2239.96  167.78   1 0.00000-0.13496-0.57601 0.07579 0.81744 0.98794
   2  -3  13 1943.65  205.31   1 0.00000 0.12958 0.10187-0.55131 0.99479 0.82416
   2  -3  13 1319.04  159.19   1-0.76432-0.63563 0.04216-0.61243 0.64344 0.46998
  -2   3 -13 1309.02  170.64   1-0.65796-0.79164-0.31491 0.33807-0.68403-0.50892
  -2   3 -14 2829.30  172.23   1 0.00000-0.12168-0.59267 0.10214 0.80544 0.98729
   2  -3  14 2235.37  215.88   1 0.00000 0.11594 0.12208-0.57402 0.99251 0.81059
   2  -3  14 1690.53  177.11   1-0.75193-0.63692 0.08567-0.61197 0.65365 0.46884
  -2   3 -14 1616.10  176.16   1-0.65847-0.77880-0.31394 0.38211-0.68399-0.49744
  -2   3 -15 2722.46  186.25   1 0.00000-0.10839-0.60972 0.12810 0.79260 0.98581
   2  -3  15 2938.69  234.15   1-0.73863-0.63732 0.12689-0.61381 0.66205 0.46589
  -2   3 -16  -79.71   81.45   1 0.00000-0.09511-0.62707 0.15376 0.77895 0.98351
  -2   3 -17  668.65  140.33   1 0.00000-0.08182-0.64464 0.17922 0.76448 0.98040
  -2   3 -18 1754.52  159.57   1 0.00000-0.06854-0.66235 0.20452 0.74919 0.97645
   2  -2 -19 6811.40  348.33   1 0.00000 0.47941-0.79455-0.07244 0.60718 0.87459
   2  -2 -19 5321.68  366.85   1-0.80387-0.31694-0.23196 0.48878 0.54769 0.81279
   2  -2 -18   -7.05   71.56   1 0.00000 0.46612-0.78254-0.10344 0.62259 0.87865
  -2   2  18  -14.80   84.48   1 0.00000-0.47200 0.17984-0.49532 0.98369 0.72929
   2  -2 -18  -17.30   98.48   1-0.80283-0.32959-0.20111 0.47659 0.56125 0.81500
   2  -2 -17  -37.69   67.91   1 0.00000 0.45284-0.77120-0.13511 0.63659 0.88129
  -2   2  17   24.74   86.45   1 0.00000-0.45836 0.14878-0.48346 0.98886 0.74576
   2  -2 -17  112.67  119.89   1-0.80083-0.34128-0.16949 0.46516 0.57439 0.81679
   2  -2 -16 1459.29  149.58   1 0.00000 0.43955-0.76071-0.16764 0.64908 0.88243
  -2   2  16 1504.06  172.72   1 0.00000-0.44472 0.11744-0.47188 0.99307 0.76127
   2  -2 -16 1334.90  156.35   1-0.79782-0.35196-0.13695 0.45465 0.58713 0.81817
  -2   2  16 1011.42  173.57   1-0.45901-0.90496 0.60029 0.00770 0.65494 0.42540
   2  -2 -15 3181.00  217.75   1 0.00000 0.42627-0.75133-0.20127 0.65992 0.88191
  -2   2  15 2639.52  240.54   1 0.00000-0.43107 0.08569-0.46072 0.99632 0.77582
   2  -2 -15 2855.82  206.56   1-0.79369-0.36152-0.10329 0.44525 0.59947 0.81917
  -2   2  15 3340.78  275.73   1-0.46534-0.89762 0.59329 0.04382 0.65685 0.43856
   2  -2 -14  834.75  132.36   1 0.00000 0.41298-0.74335-0.23630 0.66890 0.87954
  -2   2  14 1317.40  172.86   1 0.00000-0.41743 0.05335-0.45014 0.99857 0.78937
   2  -2 -14  254.00   90.63   1-0.78833-0.36984-0.06829 0.43720 0.61144 0.81979
  -2   2  14  275.87  131.03   1-0.47006-0.88867 0.58801 0.08165 0.65823 0.45121
   2  -2 -13 3076.03  181.67   1 0.00000 0.39969-0.73716-0.27313 0.67571 0.87500
  -2   2  13 3527.55  248.40   1 0.00000-0.40379 0.02023-0.44035 0.99979 0.80189
   2  -2 -13 2492.29  183.67   1-0.78155-0.37676-0.03163 0.43081 0.62303 0.82003
  -2   2  13 2674.44  273.41   1-0.47290-0.87782 0.58481 0.12157 0.65905 0.46328
   2  -2 -12208811.4 1560.59   1 0.00000 0.38641-0.73329-0.31227 0.67991 0.86785
  -2   2  12191878.2 2135.42   1-0.47346-0.86471 0.58417 0.16405 0.65921 0.47470
   2  -2 -11 8084.59  345.72   1 0.00000 0.37312-0.73245-0.35445 0.68081 0.85740
  -2   2  11 6744.64  324.92   1 0.00000-0.37650-0.04966-0.42441 0.99876 0.82347
   2  -2 -11 9135.46  339.96   1-0.76266-0.38525 0.04834 0.42469 0.64498 0.81927
  -2   2  1110762.76  474.38   1-0.47123-0.84881 0.58669 0.20968 0.65857 0.48532
   2  -2 -10   21.17   45.13   1 0.00000 0.35984-0.73563-0.40064 0.67737 0.84261
  -2   2  10   52.64   82.42   1 0.00000-0.36286-0.08745-0.41929 0.99616 0.83217
   2  -2 -10  129.12   95.40   1-0.74971-0.38599 0.09288 0.42618 0.65521 0.81815
  -2   2  10   31.26   89.07   1-0.46546-0.82937 0.59315 0.25926 0.65688 0.49489
   2  -2  -9 6794.90  278.12   1 0.00000 0.34655-0.74423-0.45225 0.66791 0.82180
  -2   2   9 6218.43  366.89   1 0.00000-0.34922-0.12824-0.41716 0.99174 0.83905
   2  -2  -9 8027.43  361.36   1-0.73351-0.38348 0.14162 0.43187 0.66475 0.81634
  -2   2   9 7856.49  389.18   1-0.45506-0.80529 0.60459 0.31382 0.65373 0.50301
   2  -2  -8 7355.24  275.09   1 0.00000 0.33327-0.76025-0.51129 0.64961 0.79215
  -2   2   8 6995.18  324.77   1 0.00000-0.33558-0.17349-0.41949 0.98483 0.84344
   2  -2  -8 8147.11  450.80   1-0.71295-0.37660 0.19586 0.44306 0.67330 0.81355
  -2   2   8 8399.56  524.07   1-0.43840-0.77495 0.62235 0.37470 0.64843 0.50896
   2  -2  -7 6021.37  277.27   1 0.00000 0.31998-0.78662-0.58067 0.61743 0.74861
  -2   2   7 7210.98  316.80   1 0.00000-0.32194-0.22563-0.42872 0.97421 0.84412
   2  -2  -7 4830.20  246.33   1-0.68570-0.36283 0.25863 0.46317 0.68038 0.80859
  -2   2   7 6062.80  343.06   1-0.41299-0.73586 0.64818 0.44364 0.63976 0.51154
   2  -2  -6 7555.28  307.69   1 0.00000 0.30670-0.82731-0.66438 0.56173 0.68156
  -2   2   6 7347.07  304.58   1 0.00000-0.30829-0.28908-0.44926 0.95730 0.83851
   2  -2  -6 7929.38  373.84   1-0.65002-0.34083 0.32991 0.49134 0.68455 0.80151
  -2   2   6 7914.10  390.23   1-0.37495-0.68414 0.68419 0.52276 0.62553 0.50858
   2  -2  -5166382.0 2367.17   1 0.00000 0.29341-0.88651-0.76659 0.46269 0.57116
  -2   2   5188318.3 2626.35   1 0.00000-0.29341-0.37174-0.49166 0.92833 0.81985
   2  -2  -5165698.4 2397.74   1-0.60073-0.30521 0.41428 0.53259 0.68373 0.78942
  -2   2   5178705.0 2790.78   1-0.31815-0.61367 0.73256 0.61425 0.60177 0.49607
  -2   2   474548.51 1412.66   1 0.00000-0.28095 0.96245 0.88705-0.27145-0.36633
   2  -2  -477565.76 1386.64   1-0.52991-0.24807 0.51563 0.59082 0.67327 0.76771
  -2   2   3 2586.63  193.70   1 0.00000-0.26684-0.67986-0.71375 0.73333 0.64756
  -2   2   3 1685.60  166.50   1 0.00000-0.26735 0.99594 0.96357 0.08992 0.00629
   2  -2  -3 2077.03  209.44   1-0.42471-0.15654 0.63645 0.66852 0.64385 0.72702
  -2   2   3 2067.99  218.32   1-0.10688-0.37504 0.86457 0.83250 0.49101 0.40776
  -2   2   2145746.5 2328.48   1 0.00000-0.25398 0.80008 0.81077 0.59988 0.52738
   2  -2  -2144551.3 2347.36   1 0.00000 0.25374 0.93915 0.92850-0.34348-0.27110
   2  -2  -2144082.3 2270.59   1-0.26763-0.01314 0.77065 0.75961 0.57833 0.65024
  -2   2   1150686.0 2251.18   1 0.00000-0.24036 0.43029 0.48399 0.90268 0.84141
   2  -2  -1165141.3 2573.56   1 0.00000 0.24014 0.95095 0.89727 0.30931 0.37044
   2  -2  -1158214.1 2464.40   1-0.04892 0.19186 0.88906 0.83489 0.45515 0.51588
   2  -2  -1157681.8 2355.36   1-0.18136 0.05936-0.82596-0.87884-0.53375-0.47340
  -2   2   010101.43  439.22   1 0.00000-0.22644 0.18887 0.28619 0.98200 0.93102
   2  -2   010206.06  474.92   1 0.00000 0.22675 0.69786 0.60115 0.71622 0.76628
   2  -2   0 9242.36  463.51   1-0.31861-0.09123-0.73219-0.82815-0.60197-0.55301
  -2   2   0 9398.16  472.82   1-0.11673-0.34410-0.85993-0.76397-0.49687-0.54583
  -2   2  -1204574.5 2783.54   1 0.00000-0.21280 0.04540 0.18564 0.99896 0.95929
   2  -2   1203109.3 2827.86   1 0.00000 0.21313 0.48143 0.34171 0.87648 0.91531
   2  -2   1197342.5 2725.10   1-0.44276-0.22873-0.61777-0.75681-0.64985-0.61229
  -2   2  -1198932.2 2863.97   1-0.25207-0.46610-0.78150-0.64246-0.57070-0.60826
  -2   2  -242793.95  897.66   1 0.00000-0.19916-0.04733 0.13581 0.99887 0.97051
   2  -2   248994.61  987.59   1 0.00000 0.19916 0.34730 0.16415 0.93775 0.96612
   2  -2   245326.51  929.02   1-0.54572-0.34513-0.49466-0.67686-0.67638-0.65018
  -2   2  -246467.92  984.19   1-0.36408-0.56476-0.69392-0.51180-0.62121-0.64738
  -2   2  -317262.06  618.69   1 0.00000-0.18551-0.11480 0.11126 0.99338 0.97632
   2  -2   317154.06  651.51   1 0.00000 0.18551 0.26264 0.03657 0.96489 0.98196
   2  -2   317989.13  675.05   1-0.78803-0.60228-0.42656-0.65292 0.44388 0.45928
   2  -2   316599.43  614.11   1-0.62539-0.43814-0.37379-0.59905-0.68495-0.67019
  -2   2  -318642.00  728.41   1-0.45103-0.63835-0.60895-0.38375-0.65248-0.66725
  -2   2  -4 4073.45  259.59   1 0.00000-0.17187-0.16833 0.10064 0.98572 0.97996
   2  -2   4 4188.25  262.52   1 0.00000 0.17187 0.21042-0.05856 0.97761 0.98337
   2  -2   4 4007.75  278.30   1-0.80205-0.62999-0.31494-0.58436 0.50745 0.51150
   2  -2   4 4150.77  235.29   1-0.68439-0.51049-0.26144-0.52977-0.68062-0.67730
  -2   2  -4 4243.68  278.14   1-0.51590-0.68987-0.53354-0.26526-0.67020-0.67358
  -2   2  -518987.80  523.88   1 0.00000-0.15823-0.21347 0.09842 0.97694 0.98248
   2  -2   518375.19  528.54   1 0.00000 0.15823 0.17867-0.13322 0.98390 0.97837
   2  -2   518772.63  572.62   1-0.80369-0.64531-0.22379-0.53626 0.55135 0.54405
   2  -2   518726.91  462.96   1-0.72679-0.56624-0.16014-0.47153-0.66792-0.67603
  -2   2  -519902.90  566.15   1-0.56349-0.72404-0.47002-0.15863-0.67937-0.67126
  -2   2  -6  545.44   85.63   1 0.00000-0.14459-0.25317 0.10163 0.96741 0.98425
   2  -2   6  604.32  102.31   1 0.00000 0.14459 0.16042-0.19438 0.98704 0.97020
   2  -2   6  442.18   84.73   1-0.79896-0.65427-0.14805-0.50357 0.58287 0.56421
   2  -2   6  377.64   87.39   1-0.75658-0.60937-0.07001-0.42447-0.65013-0.66969
  -2   2  -6  519.77  106.57   1-0.59779-0.74500-0.41890-0.06444-0.68349-0.66394
  -2   2  -713188.37  426.77   1 0.00000-0.13095-0.28914 0.10858 0.95728 0.98542
   2  -2   713700.82  467.45   1 0.00000 0.13095 0.15148-0.24624 0.98846 0.96032
   2  -2   713470.64  441.55   1-0.79081-0.65981-0.08362-0.48218 0.60631 0.57630
   2  -2   713522.05  405.21   1-0.77698-0.64311 0.00993-0.38758-0.62944-0.66043
  -2   2  -712779.21  432.99   1-0.62248-0.75635-0.37873 0.01878-0.68488-0.65389
  -2   2  -8 1458.31  142.59   1 0.00000-0.11730-0.32243 0.11821 0.94659 0.98603
   2  -2   8 1370.05  137.74   1 0.00000 0.11730 0.14919-0.29145 0.98880 0.94936
   2  -2   8  912.95  142.76   1-0.78071-0.66341-0.02751-0.46913 0.62427 0.58292
   2  -2   8  912.73   96.02   1-0.79041-0.66990 0.08107-0.35950-0.60718-0.64960
  -2   2  -8 1019.76  123.70   1-0.64015-0.76066-0.34796 0.09261-0.68492-0.64250
  -2   2  -9   97.47   79.90   1 0.00000-0.10366-0.35371 0.12985 0.93535 0.98609
   2  -2   9  195.99   80.90   1 0.00000 0.10366 0.15183-0.33172 0.98840 0.93766
   2  -2   9  239.11   91.84   1-0.76941-0.66580 0.02236-0.46230 0.63835 0.58564
   2  -2   9  142.20   55.69   1-0.79863-0.69146 0.14478-0.33886-0.58413-0.63800
  -2   2  -9  101.33   71.32   1-0.65261-0.75978-0.32508 0.15856-0.68441-0.63054
  -2   2 -1010753.15  359.77   1 0.00000-0.09413-0.38339 0.14189 0.92358 0.98539
   2  -2  1011296.59  442.54   1 0.00000 0.09002 0.15822-0.36825 0.98740 0.92535
   2  -2  1011845.78  418.83   1-0.75730-0.66738 0.06751-0.46020 0.64955 0.58550
  -2   2 -1011851.88  449.85   1-0.66115-0.75498-0.30876 0.21795-0.68376-0.61846
  -2   2 -11 5154.63  242.83   1 0.00000-0.08085-0.41191 0.15638 0.91122 0.98438
   2  -2  11 5634.64  302.40   1 0.00000 0.07638 0.16755-0.40184 0.98586 0.91251
   2  -2  11 5576.70  288.30   1-0.74459-0.66835 0.10899-0.46177 0.65855 0.58315
  -2   2 -11 5715.85  313.11   1-0.66670-0.74717-0.29789 0.27188-0.68320-0.60646
  -2   2 -12 7688.01  313.96   1 0.00000-0.06756-0.43941 0.17189 0.89828 0.98279
   2  -2  12 6644.62  311.76   1 0.00000 0.06273 0.17921-0.43309 0.98381 0.89916
   2  -2  12 7702.73  341.61   1-0.73138-0.66883 0.14759-0.46622 0.66580 0.57904
  -2   2 -12 7317.81  313.43   1-0.66986-0.73699-0.29157 0.32126-0.68283-0.59466
  -2   2 -1323303.48  576.84   1 0.00000-0.05428-0.46606 0.18826 0.88475 0.98061
   2  -2  1320118.52  622.99   1 0.00000 0.04909 0.19278-0.46244 0.98123 0.88528
   2  -2  1324350.60  705.09   1-0.71772-0.66886 0.18388-0.47298 0.67160 0.57349
  -2   2 -1322590.90  573.70   1-0.67110-0.72488-0.28907 0.36682-0.68268-0.58306
  -2   2 -14   48.82   69.79   1 0.00000-0.04099-0.49197 0.20536 0.87060 0.97782
   2  -2  14  -45.61  121.34   1 0.00000 0.03545 0.20794-0.49020 0.97814 0.87088
   2  -2  14   38.49  131.54   1-0.70364-0.66847 0.21830-0.48161 0.67618 0.56673
  -2   2 -14   86.32   84.00   1-0.67073-0.71117-0.28981 0.40915-0.68273-0.57167
  -2   2 -15  316.21   99.45   1 0.00000-0.02771-0.51725 0.22310 0.85583 0.97440
   2  -2  15  341.97  145.47   1 0.00000 0.02181 0.22443-0.51662 0.97448 0.85593
   2  -2  15  518.17  162.47   1-0.68858-0.66658 0.25239-0.49163 0.67981 0.56032
  -2   2 -15  385.84  105.84   1-0.66899-0.69608-0.29331 0.44871-0.68294-0.56045
  -2   2 -16  136.15   81.41   1 0.00000-0.01442-0.54197 0.24139 0.84039 0.97031
  -2   2 -17  502.20   90.78   1 0.00000-0.00114-0.56618 0.26019 0.82428 0.96555
   2  -1 -1918498.69  582.95   1 0.00000 0.39872-0.82214-0.10255 0.56927 0.91131
   2  -1 -1920805.99  668.23   1-0.80041-0.39331-0.33671 0.38176 0.49594 0.83639
   2  -1 -18 1220.42  194.29   1 0.00000 0.38543-0.81329-0.13671 0.58185 0.91254
   2  -1 -18 1256.82  227.12   1-0.80218-0.40877-0.31298 0.36245 0.50847 0.83757
   2  -1 -17  113.03   85.53   1 0.00000 0.37215-0.80535-0.17179 0.59279 0.91213
  -2   1  17   -3.66  117.46   1 0.00000-0.37787 0.00427-0.62594 0.99999 0.68221
   2  -1 -17  -10.93   73.15   1-0.80336-0.42365-0.28919 0.34318 0.52054 0.83829
   2  -1 -16  843.75  150.83   1 0.00000 0.35887-0.79855-0.20800 0.60192 0.90991
  -2   1  16  871.84  138.70   1 0.00000-0.36423-0.03496-0.62226 0.99938 0.69291
   2  -1 -16  799.90  149.20   1-0.80397-0.43794-0.26533 0.32399 0.53218 0.83858
  -2   1  16  782.80  151.09   1-0.55537-0.92140 0.48143-0.10905 0.67807 0.37297
   2  -1 -15 3177.28  196.40   1 0.00000 0.34558-0.79313-0.24560 0.60904 0.90567
  -2   1  15 2557.91  208.47   1 0.00000-0.35058-0.07556-0.61994 0.99714 0.70196
   2  -1 -15 2812.52  194.51   1-0.80401-0.45168-0.24137 0.30490 0.54341 0.83846
  -2   1  15 3746.17  287.12   1-0.56651-0.91887 0.46571-0.08166 0.67983 0.38599
   2  -1 -1488753.99 1246.64   1 0.00000 0.33229-0.78944-0.28491 0.61382 0.89911
  -2   1  1483182.34 1355.37   1 0.00000-0.33694-0.11785-0.61932 0.99303 0.70915
   2  -1 -1482734.54 1247.28   1-0.80349-0.46485-0.21727 0.28595 0.55424 0.83793
  -2   1  1481910.80 1359.90   1-0.57684-0.91552 0.45071-0.05353 0.68125 0.39867
   2  -1 -1327066.38  617.89   1 0.00000 0.31901-0.78785-0.32634 0.61585 0.88979
  -2   1  1325375.65  609.80   1 0.00000-0.32330-0.16227-0.62083 0.98674 0.71417
   2  -1 -1325000.06  562.54   1-0.80241-0.47745-0.19299 0.26718 0.56470 0.83704
  -2   1  1327480.47  724.06   1-0.58627-0.91128 0.43663-0.02450 0.68237 0.41105
   2  -1 -12263788.1 2813.50   1 0.00000 0.30572-0.78888-0.37039 0.61454 0.87712
   2  -1 -12277030.1 3042.15   1-0.80075-0.48949-0.16847 0.24865 0.57480 0.83580
  -2   1  12275932.5 3088.08   1-0.59470-0.90603 0.42371 0.00569 0.68322 0.42315
   2  -1 -1173720.85 1079.63   1 0.00000 0.29244-0.79315-0.41767 0.60901 0.86024
  -2   1  1175215.67 1199.77   1 0.00000-0.29601-0.25988-0.63260 0.96564 0.71567
   2  -1 -1172535.75 1144.06   1-0.79852-0.50094-0.14361 0.23045 0.58458 0.83423
  -2   1  1170438.40 1194.80   1-0.60198-0.89964 0.41230 0.03739 0.68382 0.43502
   2  -1 -10 1955.27  175.44   1 0.00000 0.27915-0.80145-0.46899 0.59804 0.83792
  -2   1  10 2122.27  182.43   1 0.00000-0.28237-0.31474-0.64454 0.94917 0.71051
   2  -1 -10 2232.20  183.70   1-0.79566-0.51178-0.11831 0.21271 0.59407 0.83236
  -2   1  10 2616.88  242.05   1-0.60787-0.89185 0.40287 0.07108 0.68423 0.44669
   2  -1  -9 2760.62  172.12   1 0.00000 0.26587-0.81477-0.52532 0.57977 0.80830
  -2   1   9 3204.76  213.90   1 0.00000-0.26587-0.37487-0.66433 0.92707 0.69855
   2  -1  -9 2779.71  207.75   1-0.79214-0.52194-0.09238 0.19558 0.60330 0.83025
  -2   1   9 2918.70  220.70   1-0.61203-0.88233 0.39612 0.10745 0.68447 0.45819
   2  -1  -843525.76  796.04   1 0.00000 0.25258-0.83425-0.58781 0.55138 0.76855
  -2   1   847760.37  890.24   1 0.00000-0.25258-0.44208-0.68852 0.89697 0.67980
   2  -1  -841248.43  804.31   1-0.78786-0.53136-0.06556 0.17935 0.61234 0.82793
  -2   1   844334.41  916.35   1-0.61386-0.87049 0.39311 0.14756 0.68456 0.46954
   2  -1  -7 4298.50  226.99   1 0.00000 0.23930-0.86106-0.65763 0.50849 0.71431
  -2   1   7 3912.70  238.66   1 0.00000-0.23930-0.51852-0.72195 0.85505 0.64924
   2  -1  -7 4411.30  250.46   1-0.78270-0.53988-0.03742 0.16445 0.62127 0.82551
  -2   1   7 5006.92  261.87   1-0.61239-0.85534 0.39553 0.19309 0.68449 0.48072
   2  -1  -699723.28 1568.49   1 0.00000 0.22601-0.89589-0.73548 0.44427 0.63873
  -2   1   6101825.9 1568.81   1 0.00000-0.22601-0.60653-0.76694 0.79505 0.60059
   2  -1  -696160.15 1590.40   1-0.77638-0.54725-0.00721 0.15161 0.63022 0.82311
  -2   1   6104536.7 1713.93   1-0.60582-0.83510 0.40617 0.24685 0.68410 0.49159
  -2   1   5123932.8 1927.77   1 0.00000-0.21273-0.70771-0.82511 0.70649 0.52338
  -2   1   5126994.8 1965.07   1 0.00000-0.21455 0.93807 0.82179-0.34643-0.52784
   2  -1  -5127534.4 1927.72   1-0.76839-0.55295 0.02647 0.14224 0.63943 0.82097
  -2   1   5127764.8 2002.10   1-0.59055-0.80615 0.43012 0.31391 0.68282 0.50157
  -2   1   4282571.2 3843.53   1 0.00000-0.20094 0.97936 0.90611-0.20209-0.37224
   2  -1  -4287217.9 3769.08   1-0.75757-0.55582 0.06659 0.13931 0.64934 0.81954
  -2   1   4296843.0 3977.76   1-0.55828-0.76020 0.47737 0.40428 0.67855 0.50856
  -2   1   311508.18  505.63   1 0.00000-0.18734 0.99999 0.96977 0.00259-0.15631
   2  -1  -312905.32  578.91   1 0.00000 0.18734 0.92923 0.95945-0.36947-0.21057
   2  -1  -311890.25  495.59   1-0.74072-0.55266 0.12072 0.15039 0.66087 0.81971
  -2   1   313019.04  573.52   1-0.48607-0.67432 0.56966 0.53968 0.66273 0.50400
  -2   1   226343.55  698.71   1 0.00000-0.17373 0.96551 0.97832 0.26035 0.11270
   2  -1  -227536.75  739.58   1 0.00000 0.17373 0.99592 0.98311-0.09019 0.05745
   2  -1  -227645.08  732.33   1-0.70476-0.53018 0.21567 0.20252 0.67586 0.82333
  -2   1   229470.95  797.02   1-0.29120-0.46577 0.75343 0.76657 0.58952 0.44205
  -2   1   135947.13  862.62   1 0.00000-0.16029 0.85258 0.90843 0.52259 0.38606
   2  -1  -136609.72  871.52   1 0.00000 0.16013 0.97430 0.91847 0.22521 0.36161
   2  -1  -138844.98 1044.13   1-0.55069-0.38979 0.48789 0.43163 0.67727 0.81348
  -2   1   0 1437.79  163.00   1 0.00000-0.14667 0.68533 0.78420 0.72822 0.60291
   2  -1   0 1665.11  175.70   1 0.00000 0.14667 0.86769 0.76882 0.49710 0.62240
   2  -1   0 1453.98  206.27   1-0.80247-0.65549-0.30800-0.40748 0.51104 0.63583
   2  -1   0 1460.25  172.64   1-0.22478-0.07723-0.79959-0.89838-0.55688-0.43235
  -2   1  -141246.94  896.00   1 0.00000-0.13305 0.51168 0.65355 0.85917 0.74509
   2  -1   142579.16  939.29   1 0.00000 0.13305 0.72934 0.58746 0.68414 0.79823
   2  -1   143205.64  933.89   1-0.78934-0.65605-0.07440-0.21693 0.60942 0.72286
   2  -1   142815.97  967.37   1-0.37967-0.24547-0.67988-0.82176-0.62737-0.51424
  -2   1  -140505.00 1033.68   1-0.20639-0.34059-0.81111-0.66924-0.54725-0.66038
  -2   1  -218866.17  719.49   1 0.00000-0.11867 0.35987 0.54505 0.93300 0.82995
   2  -1   219016.51  738.23   1 0.00000 0.11944 0.60333 0.41844 0.79749 0.90035
  -2   1  -219384.73  768.51   1-0.78887-0.90847-0.42212-0.23654 0.44663 0.34454
   2  -1   220247.17  738.96   1-0.77209-0.65249 0.01135-0.17422 0.63540 0.73749
   2  -1   220867.30  778.56   1-0.50986-0.38902-0.54106-0.72602-0.66879-0.56705
  -2   1  -220144.51  783.43   1-0.33790-0.45874-0.71643-0.53148-0.61035-0.71209
  -2   1  -3131618.7 1913.67   1 0.00000-0.10502 0.23432 0.46242 0.97215 0.88041
   2  -1   3125165.9 2017.51   1 0.00000 0.10582 0.50420 0.27631 0.86358 0.95522
  -2   1  -3122907.1 1889.00   1-0.80100-0.90692-0.32957-0.10094 0.49976 0.40902
   2  -1   3130217.3 1989.07   1-0.75866-0.65274 0.06276-0.16586 0.64845 0.73919
   2  -1   3121704.4 1857.31   1-0.60948-0.50212-0.40027-0.62844-0.68433-0.59407
  -2   1  -3129151.2 2094.15   1-0.43935-0.54684-0.62136-0.39332-0.64874-0.73908
  -2   1  -4  140.72   71.42   1 0.00000-0.09138 0.13138 0.40240 0.99133 0.91088
   2  -1   4  168.52   72.25   1 0.00000 0.09221 0.43095 0.16005 0.90237 0.98279
  -2   1  -4  165.44   88.93   1-0.80358-0.89580-0.28284-0.01116 0.52369 0.44430
   2  -1   4   25.48   72.59   1-0.74699-0.65477 0.10152-0.17016 0.65702 0.73642
   2  -1   4   92.87   81.44   1-0.68017-0.58615-0.27039-0.54162-0.68136-0.60254
  -2   1  -4   27.14   64.90   1-0.51341-0.60755-0.53665-0.26554-0.66962-0.74857
  -2   1  -528277.00  653.24   1 0.00000-0.07774 0.04579 0.35973 0.99895 0.92981
   2  -1   528508.91  712.15   1 0.00000 0.07774 0.37809 0.06415 0.92576 0.99490
  -2   1  -527028.08  661.45   1-0.80403-0.88257-0.25949 0.05523 0.53496 0.46692
   2  -1   526348.24  675.31   1-0.73609-0.65755 0.13427-0.18046 0.66342 0.73146
   2  -1   526225.04  605.35   1-0.72858-0.64791-0.15529-0.46959-0.66711-0.59973
  -2   1  -527783.90  772.32   1-0.56642-0.64709-0.46584-0.15154-0.67981-0.74719
  -2   1  -6  155.40   67.57   1 0.00000-0.06410-0.02684 0.33000 0.99963 0.94180
   2  -1   6  126.33   96.47   1 0.00000 0.06410 0.34122-0.01563 0.93998 0.99782
  -2   1  -6   92.94   92.83   1-0.80406-0.86891-0.24947 0.10830 0.53966 0.48297
   2  -1   6    9.06   55.08   1-0.72547-0.66062 0.16370-0.19408 0.66850 0.72519
   2  -1   6  109.63   70.33   1-0.76080-0.69348-0.05515-0.41251-0.64663-0.59069
  -2   1  -6   34.28   57.95   1-0.60335-0.67067-0.41012-0.05276-0.68392-0.73987
  -2   1  -741915.87  804.65   1 0.00000-0.05045-0.08983 0.30992 0.99595 0.94941
   2  -1   741006.45  812.33   1 0.00000 0.05045 0.31621-0.08355 0.94868 0.99522
  -2   1  -739556.02  818.90   1-0.80405-0.85521-0.24772 0.15311 0.54048 0.49513
   2  -1   740098.19  863.73   1-0.71486-0.66370 0.19110-0.20973 0.67264 0.71798
   2  -1   738277.33  659.26   1-0.78157-0.72759 0.03172-0.36869-0.62300-0.57850
  -2   1  -739625.14  744.54   1-0.62919-0.68316-0.36727 0.03315-0.68500-0.72950
  -2   1  -8 9337.56  331.82   1 0.00000-0.03681-0.14552 0.29715 0.98935 0.95411
   2  -1   8 8106.81  448.87   1 0.00000 0.03681 0.30019-0.14248 0.95387 0.98911
  -2   1  -8 7935.00  336.36   1-0.80406-0.84153-0.25143 0.19245 0.53875 0.50476
   2  -1   8 7891.48  348.97   1-0.70412-0.66666 0.21716-0.22672 0.67605 0.71004
   2  -1   8 7284.16  254.18   1-0.79426-0.75363 0.10748-0.33600-0.59798-0.56492
  -2   1  -8 7605.21  294.05   1-0.64718-0.68781-0.33518 0.10830-0.68469-0.71776
  -2   1  -9  389.79   90.46   1 0.00000-0.02317-0.19561 0.28999 0.98068 0.95674
   2  -1   9  520.24  115.39   1 0.00000 0.02317 0.29109-0.19450 0.95669 0.98062
  -2   1  -9  570.94  103.30   1-0.80403-0.82781-0.25894 0.22798 0.53522 0.51258
   2  -1   9  539.65  104.20   1-0.69316-0.66938 0.24229-0.24464 0.67883 0.70148
  -2   1  -9  527.23  104.49   1-0.65953-0.68681-0.31191 0.17464-0.68390-0.70553
  -2   1 -1027369.95  619.77   1 0.00000-0.00953-0.24130 0.28721 0.97044 0.95781
   2  -1  1030369.13  793.96   1 0.00000 0.00953 0.28738-0.24112 0.95781 0.97044
  -2   1 -1027121.55  702.75   1-0.80391-0.81400-0.26921 0.26077 0.53033 0.51903
   2  -1  1028065.51  733.69   1-0.68133-0.67087 0.26795-0.26259 0.68116 0.69352
  -2   1 -1026618.61  675.59   1-0.66774-0.68168-0.29581 0.23380-0.68308-0.69328
  -2   1 -11  562.91   94.32   1 0.00000 0.00410-0.28350 0.28793 0.95897 0.95764
   2  -1  11  614.27  127.59   1 0.00000-0.00410 0.28796-0.28347 0.95764 0.95897
  -2   1 -11  605.17  117.49   1-0.80362-0.80001-0.28153 0.29150 0.52433 0.52439
   2  -1  11  634.07  116.45   1-0.66970-0.67291 0.29190-0.28175 0.68285 0.68395
  -2   1 -11  508.01   97.05   1-0.67283-0.67342-0.28555 0.28712-0.68245-0.68121
  -2   1 -1216902.49  592.07   1 0.00000 0.01775-0.32287 0.29147 0.94644 0.95641
   2  -1  1215242.57  521.95   1 0.00000-0.01775 0.29198-0.32236 0.95642 0.94645
  -2   1 -1215731.95  533.46   1-0.80311-0.78581-0.29543 0.32065 0.51742 0.52883
   2  -1  1215487.79  515.80   1-0.65769-0.67458 0.31544-0.30132 0.68405 0.67389
  -2   1 -1214960.94  471.72   1-0.67550-0.66275-0.28009 0.33565-0.68208-0.66940
  -2   1 -13  572.31  118.12   1 0.00000 0.03139-0.35992 0.29734 0.93298 0.95425
   2  -1  13  414.08   99.42   1 0.00000-0.03139 0.29883-0.35842 0.95430 0.93303
  -2   1 -13  473.82  125.82   1-0.80232-0.77134-0.31057 0.34856 0.50971 0.53247
   2  -1  13  491.89  113.65   1-0.64528-0.67585 0.33866-0.32122 0.68477 0.66335
  -2   1 -13  374.32   97.49   1-0.67622-0.65012-0.27860 0.38020-0.68197-0.65785
  -2   1 -1418894.49  600.01   1 0.00000 0.03968-0.39458 0.30527 0.91885 0.95143
   2  -1  1418016.22  666.84   1 0.00000-0.04503 0.30803-0.39214 0.95137 0.91879
  -2   1 -1421960.90  693.03   1-0.80123-0.75655-0.32672 0.37547 0.50128 0.53538
   2  -1  1419262.44  698.59   1-0.63244-0.67669 0.36161-0.34139 0.68501 0.65233
  -2   1 -1418853.83  668.11   1-0.67534-0.63589-0.28043 0.42143-0.68210-0.64655
  -2   1 -15  118.18   74.47   1 0.00000 0.05297-0.42807 0.31480 0.90374 0.94767
   2  -1  15   47.56  103.97   1 0.00000-0.05867 0.31920-0.42389 0.94768 0.90380
  -2   1 -15   89.35  111.08   1-0.79977-0.74141-0.34368 0.40156 0.49217 0.53763
   2  -1  15    7.73   89.48   1-0.61915-0.67707 0.38434-0.36178 0.68478 0.64084
  -2   1 -15   -4.47   82.96   1-0.67307-0.62028-0.28507 0.45986-0.68242-0.63543
  -2   1 -16 1208.82  148.15   1 0.00000 0.06625-0.46013 0.32575 0.88784 0.94313
  -2   1 -16 1198.20  183.76   1-0.79793-0.72588-0.36131 0.42697 0.48243 0.53924
  -2   1 -16  839.71  134.31   1-0.66959-0.60345-0.29210 0.49589-0.68287-0.62444
  -2   1 -17 1376.20  134.10   1 0.00000 0.07954-0.49098 0.33792 0.87117 0.93780
  -2   1 -17  992.56  165.36   1-0.79567-0.70993-0.37952 0.45181 0.47208 0.54024
  -2   1 -18 3555.84  443.48   1 0.00000 0.09282-0.52074 0.35117 0.85371 0.93169
  -2   1 -18 3570.35  492.87   1-0.79295-0.69352-0.39822 0.47616 0.46113 0.54064
   2   0 -1920448.76  616.46   1 0.00000 0.31804-0.85320-0.13614 0.52156 0.93825
   2   0 -18 2737.47  381.10   1 0.00000 0.30475-0.84723-0.17317 0.53122 0.93655
   2   0 -18 2135.50  297.73   1-0.78741-0.47385-0.42980 0.24335 0.44186 0.84631
   2   0 -17 5405.87  307.01   1 0.00000 0.29146-0.84232-0.21127 0.53897 0.93295
  -2   0  17 4148.08  302.06   1 0.00000-0.29738-0.11362-0.74181 0.99352 0.60106
   2   0 -17 5871.75  337.86   1-0.79024-0.49037-0.41450 0.21561 0.45132 0.84442
   2   0 -16  921.25  133.97   1 0.00000 0.27818-0.83868-0.25065 0.54461 0.92724
  -2   0  16  408.73  144.89   1 0.00000-0.28374-0.15758-0.74285 0.98750 0.60635
   2   0 -16  990.65  138.35   1-0.79265-0.50647-0.40012 0.18694 0.46000 0.84174
  -2   0  16  936.59  136.49   1-0.63703-0.92315 0.35352-0.23486 0.68498 0.30433
   2   0 -15 1316.13  148.56   1 0.00000 0.26489-0.83656-0.29154 0.54786 0.91914
  -2   0  15 1825.78  173.80   1 0.00000-0.27009-0.20318-0.74553 0.97914 0.60928
   2   0 -15  965.19  147.31   1-0.79465-0.52216-0.38683 0.15717 0.46784 0.83823
  -2   0  15  961.59  175.71   1-0.65130-0.92374 0.32753-0.21773 0.68448 0.31510
   2   0 -14  -42.80   87.22   1 0.00000 0.25161-0.83624-0.33424 0.54835 0.90827
  -2   0  14  632.42   97.60   1 0.00000-0.25645-0.25071-0.75015 0.96806 0.60950
   2   0 -14  196.37  111.38   1-0.79628-0.53748-0.37488 0.12607 0.47475 0.83379
  -2   0  14  200.31  130.65   1-0.66519-0.92395 0.30086-0.20129 0.68336 0.32524
   2   0 -13 6098.02  316.39   1 0.00000 0.23832-0.83806-0.37907 0.54557 0.89415
  -2   0  13 4339.83  249.10   1 0.00000-0.24281-0.30057-0.75709 0.95375 0.60650
   2   0 -13 7148.54  351.52   1-0.79755-0.55244-0.36457 0.09334 0.48061 0.82830
  -2   0  13 7421.53  333.64   1-0.67875-0.92384 0.27336-0.18567 0.68159 0.33471
   2   0 -12341814.2 2417.32   1 0.00000 0.22504-0.84239-0.42641 0.53886 0.87608
   2   0 -12323686.0 2603.07   1-0.79849-0.56707-0.35629 0.05856 0.48523 0.82158
  -2   0  12328265.5 2673.62   1-0.69202-0.92344 0.24481-0.17111 0.67909 0.34347
   2   0 -11 2017.48  158.81   1 0.00000 0.21175-0.84967-0.47671 0.52730 0.85316
   2   0 -11 1221.39  133.11   1-0.79909-0.58135-0.35062 0.02118 0.48837 0.81337
  -2   0  11 1006.97  137.57   1-0.70539-0.92312 0.21416-0.15763 0.67568 0.35068
   2   0 -10 1520.03  145.91   1 0.00000 0.19847-0.86038-0.53043 0.50964 0.82416
  -2   0  10 1704.32  171.29   1 0.00000-0.19847-0.46788-0.79783 0.88378 0.56927
   2   0 -10 1151.90  148.85   1-0.79932-0.59528-0.34833-0.01957 0.48963 0.80327
  -2   0  10 1106.38  143.81   1-0.71824-0.92229 0.18255-0.14620 0.67141 0.35776
   2   0  -9 3828.41  226.24   1 0.00000 0.18518-0.87496-0.58802 0.48419 0.78735
  -2   0   9 3573.64  239.60   1 0.00000-0.18518-0.53155-0.81848 0.84702 0.54386
   2   0  -9 3523.74  220.67   1-0.79910-0.60874-0.35055-0.06484 0.48841 0.79070
  -2   0   9 3650.86  220.23   1-0.73102-0.92137 0.14859-0.13710 0.66597 0.36368
   2   0  -8 1050.56  115.32   1 0.00000 0.17190-0.89374-0.64982 0.44858 0.74039
  -2   0   8  953.22  124.12   1 0.00000-0.17190-0.59999-0.84391 0.80000 0.50819
   2   0  -8 1640.22  159.81   1-0.79820-0.62153-0.35895-0.11629 0.48375 0.77470
  -2   0   8 1316.87  131.75   1-0.74381-0.92047 0.11140-0.13125 0.65904 0.36809
  -2   0   7 5375.65  263.52   1 0.00000-0.15861-0.67330-0.87421 0.73936 0.45890
  -2   0   7 5184.75  263.74   1 0.00000-0.16170 0.91685 0.71665-0.39922-0.67841
   2   0  -7 5366.62  293.93   1-0.79612-0.63314-0.37613-0.17652 0.47403 0.75363
  -2   0   7 5770.52  285.58   1-0.75673-0.91970 0.06951-0.13009 0.65002 0.37042
  -2   0   611422.85  363.67   1 0.00000-0.14533-0.75074-0.90863 0.66059 0.39149
  -2   0   612450.73  427.76   1 0.00000-0.14814 0.94319 0.78604-0.33222-0.60014
   2   0  -614371.24  511.51   1-0.79166-0.64237-0.40624-0.24969 0.45632 0.72457
  -2   0   614057.37  520.13   1-0.76988-0.91916 0.02048-0.13607 0.63785 0.36961
  -2   0   5168417.1 2427.98   1 0.00000-0.13204-0.82976-0.94464 0.55811 0.30036
  -2   0   5155558.2 2403.65   1 0.00000-0.13454 0.97017 0.85605-0.24239-0.49906
  -2   0   5160521.1 2346.28   1-0.78322-0.91882-0.04011-0.15362 0.62044 0.36354
  -2   0   431285.91  782.77   1 0.00000-0.12093 0.99220 0.92110-0.12461-0.37004
  -2   0   430888.78  732.36   1-0.79600-0.91790-0.12105-0.19150 0.59306 0.34752
  -2   0   3   98.92  102.73   1 0.00000-0.10733 0.99972 0.97165 0.02354-0.21062
   2   0  -3  168.29  110.69   1 0.00000 0.10733 0.96584 0.99391-0.25912-0.02495
  -2   0   3  118.69   68.68   1-0.80401-0.91223-0.24129-0.26869 0.54345 0.30925
  -2   0   241568.26  895.96   1 0.00000-0.09372 0.98031 0.99527 0.19746-0.02546
   2   0  -242615.00 1001.96   1 0.00000 0.09372 0.99790 0.98294-0.06469 0.15823
  -2   0   1123102.9 1905.22   1 0.00000-0.08012 0.92411 0.98210 0.38210 0.17043
   2   0  -1120531.4 2005.00   1 0.00000 0.08012 0.98983 0.93184 0.14222 0.35389
  -2   0   0151653.9 2275.80   1 0.00000-0.06659 0.83145 0.93247 0.55559 0.35503
   2   0   0155938.6 2464.94   1 0.00000 0.06651 0.94125 0.84023 0.33769 0.53812
  -2   0   0144271.5 2500.60   1-0.34351-0.41081 0.71172 0.81319 0.61273 0.41223
   2   0   0151948.8 2284.78   1-0.14877-0.08106-0.84385-0.94547-0.51552-0.31543
  -2   0  -1324011.4 4185.70   1 0.00000-0.05298 0.71406 0.85810 0.70007 0.51074
   2   0   1329927.8 4399.81   1 0.00000 0.05298 0.86524 0.72121 0.50134 0.69068
  -2   0  -1330842.2 4279.42   1-0.56021-0.61384 0.47465 0.61924 0.67886 0.48962
   2   0   1320457.8 4370.23   1-0.16846-0.11493 0.83323 0.68864 0.52662 0.71592
   2   0   1325348.5 4285.04   1-0.33742-0.28306-0.71683-0.86153-0.61015-0.42146
  -2   0  -1318734.8 4285.85   1-0.09360-0.14796-0.87060-0.72590-0.48299-0.67168
  -2   0  -256822.24 1175.59   1 0.00000-0.03936 0.58787 0.77491 0.80895 0.63084
   2   0   254258.27 1151.71   1 0.00000 0.03936 0.77925 0.59221 0.62670 0.80481
  -2   0  -258407.44 1186.95   1-0.65105-0.69100 0.32799 0.51570 0.68450 0.50652
   2   0   256643.84 1137.53   1-0.36399-0.32404 0.69400 0.50629 0.62117 0.79915
   2   0   256657.76 1074.59   1-0.49808-0.45708-0.55543-0.74320-0.66588-0.48858
  -2   0  -257679.59 1106.17   1-0.25610-0.29711-0.77873-0.59095-0.57269-0.74999
  -2   0  -341576.38  988.07   1 0.00000-0.02574 0.46518 0.69523 0.88521 0.71832
   2   0   342071.77 1024.94   1 0.00000 0.02574 0.69712 0.46707 0.71695 0.88384
  -2   0  -344746.15  952.49   1-0.69769-0.72377 0.23207 0.46298 0.67776 0.51167
   2   0   343913.83 1020.24   1-0.46096-0.43469 0.59814 0.36731 0.65554 0.82226
   2   0   343544.82  861.11   1-0.61703-0.58956-0.38787-0.61895-0.68470-0.51895
  -2   0  -342963.23  881.10   1-0.38486-0.41252-0.67510-0.44424-0.62937-0.79528
  -2   0  -4  110.25   73.64   1 0.00000-0.01089 0.35111 0.62416 0.93633 0.78121
   2   0   4  140.30   98.28   1 0.00000 0.01213 0.62582 0.35276 0.77996 0.93563
  -2   0  -4  153.28   66.83   1-0.72541-0.73780 0.16385 0.43781 0.66852 0.51378
   2   0   4  133.92   72.17   1-0.51257-0.49997 0.53771 0.26377 0.66943 0.82489
   2   0   4  146.69   77.19   1-0.69562-0.68149-0.23677-0.51091-0.67826-0.52395
  -2   0  -4   91.84   64.79   1-0.47843-0.49273-0.57851-0.30457-0.66062-0.81513
  -2   0  -5 5163.05  276.91   1 0.00000 0.00274 0.24997 0.56595 0.96825 0.82443
   2   0   5 5758.70  304.23   1 0.00000-0.00148 0.56737 0.25130 0.82345 0.96790
  -2   0  -5 5889.61  289.46   1-0.74423-0.74292 0.11011 0.42712 0.65878 0.51538
   2   0   5 5834.67  317.74   1-0.54143-0.54251 0.50043 0.18337 0.67558 0.81978
   2   0   5 5988.89  250.27   1-0.74506-0.74428-0.10755-0.42475-0.65826-0.51538
  -2   0  -5 5845.48  270.33   1-0.54425-0.54503-0.49665-0.17945-0.67611-0.81898
  -2   0  -6 2037.11  199.82   1 0.00000 0.01638 0.16018 0.51907 0.98708 0.85457
   2   0   6 1484.29  140.75   1 0.00000-0.01510 0.52121 0.16213 0.85342 0.98665
  -2   0  -6 1979.02  148.32   1-0.75802-0.74303 0.06501 0.42506 0.64897 0.51693
   2   0   6 2310.93  202.42   1-0.55768-0.57244 0.47820 0.11802 0.67845 0.81140
   2   0   6 2046.58  132.42   1-0.77492-0.78749 0.00076-0.35950-0.63204-0.50061
  -2   0  -6 1792.29  159.01   1-0.58876-0.57620-0.43284-0.07257-0.68263-0.81407
  -2   0  -7136602.1 2129.44   1 0.00000 0.03003 0.08038 0.48219 0.99676 0.87554
   2   0   7133095.2 2157.24   1 0.00000-0.02871 0.48579 0.08370 0.87407 0.99607
  -2   0  -7138485.5 2121.41   1-0.76865-0.73997 0.02542 0.42852 0.63915 0.51846
   2   0   7137333.9 2176.16   1-0.56628-0.59471 0.46604 0.06275 0.67979 0.80148
   2   0   7134011.7 1870.14   1-0.79203-0.81794 0.09166-0.31167-0.60355-0.48355
  -2   0  -7140547.2 2152.71   1-0.61917-0.59326-0.38431 0.01902-0.68478-0.80478
  -2   0  -8 4468.84  230.69   1 0.00000 0.04367 0.00905 0.45377 0.99995 0.89004
   2   0   8 4948.97  266.69   1 0.00000-0.04233 0.45941 0.01432 0.88822 0.99900
  -2   0  -8 5527.04  259.96   1-0.77709-0.73472-0.01046 0.43569 0.62929 0.51994
   2   0   8 5430.06  302.53   1-0.56987-0.61198 0.46089 0.01448 0.68031 0.79074
  -2   0  -8 5074.72  261.27   1-0.63989-0.60063-0.34842 0.09796-0.68493-0.79349
  -2   0  -9 2326.16  222.88   1 0.00000 0.05731-0.05524 0.43239 0.99847 0.89986
   2   0   9 3693.24  315.92   1 0.00000-0.05594 0.44052-0.04757 0.89774 0.99729
  -2   0  -9 3889.09  266.60   1-0.78392-0.72785-0.04373 0.44546 0.61931 0.52132
   2   0   9 3917.44  307.71   1-0.56996-0.62574 0.46075-0.02876 0.68032 0.77949
  -2   0  -9 3971.25  264.49   1-0.65386-0.60126-0.32271 0.16674-0.68433-0.78145
  -2   0 -10  393.59   86.63   1 0.00000 0.07095-0.11371 0.41683 0.99351 0.90620
   2   0  10   58.13   76.83   1 0.00000-0.06956 0.42779-0.10331 0.90387 0.99221
  -2   0 -10  143.93   93.91   1-0.78946-0.71971-0.07512 0.45712 0.60918 0.52253
   2   0  10  269.94  109.11   1-0.56748-0.63694 0.46433-0.06830 0.67997 0.76787
  -2   0 -10  131.51   60.34   1-0.66302-0.59707-0.30512 0.22739-0.68358-0.76927
  -2   0 -11  191.16   71.48   1 0.00000 0.08460-0.16734 0.40612 0.98589 0.90989
   2   0  11  -13.92   98.79   1 0.00000-0.08318 0.42015-0.15397 0.90745 0.98456
  -2   0 -11   83.47  108.81   1-0.79394-0.71050-0.10510 0.47020 0.59883 0.52354
   2   0  11   73.22  105.68   1-0.56300-0.64614 0.47071-0.10504 0.67930 0.75594
  -2   0 -11  146.31   83.77   1-0.66863-0.58933-0.29403 0.28155-0.68298-0.75723
  -2   0 -1237653.16  644.86   1 0.00000 0.09824-0.21694 0.39944 0.97618 0.91148
   2   0  1239506.73  728.48   1 0.00000-0.09679 0.41673-0.20039 0.90902 0.97492
  -2   0 -1241004.75  742.79   1-0.79750-0.70037-0.13401 0.48434 0.58824 0.52429
   2   0  1242866.14  921.44   1-0.55693-0.65374 0.47926-0.13961 0.67833 0.74372
  -2   0 -1241236.51  707.99   1-0.67153-0.57889-0.28820 0.33045-0.68262-0.74544
  -2   0 -13 5760.77  287.18   1 0.00000 0.11188-0.26316 0.39613 0.96475 0.91134
   2   0  13 5413.80  278.13   1 0.00000-0.11041 0.41684-0.24329 0.90897 0.96364
  -2   0 -13 5822.81  296.13   1-0.80023-0.68941-0.16208 0.49932 0.57736 0.52476
   2   0  13 6407.51  384.13   1-0.54951-0.66000 0.48950-0.17248 0.67706 0.73119
  -2   0 -13 4635.73  253.33   1-0.67229-0.56631-0.28665 0.37506-0.68252-0.73390
  -2   0 -14  199.25  108.64   1 0.00000 0.12552-0.30652 0.39569 0.95186 0.90976
   2   0  14  295.36  125.39   1 0.00000-0.12403 0.41993-0.28321 0.90755 0.95100
  -2   0 -14  475.27  128.62   1-0.80221-0.67769-0.18950 0.51495 0.56616 0.52492
   2   0  14  327.56  147.06   1-0.54093-0.66509 0.50111-0.20399 0.67548 0.71835
  -2   0 -14  305.44   79.61   1-0.67131-0.55198-0.28864 0.41613-0.68265-0.72259
  -2   0 -15 1456.83  149.41   1 0.00000 0.13917-0.34744 0.39769 0.93770 0.90690
   2   0  15 1275.60  178.61   1 0.00000-0.13764 0.42555-0.32060 0.90493 0.93715
  -2   0 -15 1310.88  151.01   1-0.80346-0.66526-0.21640 0.53110 0.55462 0.52473
   2   0  15  984.49  158.58   1-0.53131-0.66915 0.51381-0.23440 0.67356 0.70518
  -2   0 -15 1287.24  146.65   1-0.66885-0.53617-0.29359 0.45424-0.68296-0.71146
  -2   0 -16  548.19  104.18   1 0.00000 0.14694-0.38548 0.40292 0.92271 0.90335
  -2   0 -16  713.26  116.70   1-0.80402-0.65213-0.24288 0.54768 0.54272 0.52417
  -2   0 -16  554.80  115.86   1-0.66509-0.51906-0.30106 0.48984-0.68338-0.70044
  -2   0 -17 1030.04  193.97   1 0.00000 0.16022-0.42246 0.40896 0.90637 0.89837
  -2   0 -17 1228.48  221.13   1-0.80391-0.63833-0.26902 0.56458 0.53042 0.52322
  -2   0 -18   -1.95   83.95   1 0.00000 0.17351-0.45784 0.41659 0.88903 0.89238
  -2   0 -18   93.53  109.86   1-0.80313-0.62386-0.29489 0.58177 0.51770 0.52185
   2   1 -1912625.54  425.61   1 0.00000 0.23735-0.88532-0.17077 0.46496 0.95629
   2   1 -1810377.85  493.49   1 0.00000 0.22407-0.88178-0.21025 0.47165 0.95162
   2   1 -17 2703.58  211.30   1 0.00000 0.21078-0.87934-0.25082 0.47618 0.94480
   2   1 -16  426.01   93.78   1 0.00000 0.19749-0.87818-0.29267 0.47832 0.93559
  -2  -1  16  109.96   80.06   1 0.00000-0.20324-0.25131-0.83454 0.96790 0.51207
  -2  -1  16  604.93  110.64   1-0.70057-0.90692 0.22545-0.35933 0.67702 0.21992
   2   1 -15 7176.11  307.23   1 0.00000 0.18421-0.87849-0.33599 0.47775 0.92367
  -2  -1  15 6955.41  329.24   1 0.00000-0.18960-0.29883-0.83915 0.95430 0.50977
  -2  -1  15 6486.74  351.93   1-0.71544-0.90809 0.18965-0.35209 0.67243 0.22668
   2   1 -1446213.07  868.16   1 0.00000 0.17092-0.88048-0.38100 0.47407 0.90863
  -2  -1  1442916.99  805.68   1 0.00000-0.17596-0.34804-0.84543 0.93747 0.50425
  -2  -1  1443434.54  966.44   1-0.72981-0.90877 0.15194-0.34674 0.66655 0.23215
   2   1 -13 4083.27  240.77   1 0.00000 0.15764-0.88438-0.42792 0.46675 0.88996
  -2  -1  13 5514.39  261.31   1 0.00000-0.15764-0.39864-0.85511 0.91710 0.49389
  -2  -1  13 3631.99  256.30   1-0.74363-0.90891 0.11193-0.34370 0.65914 0.23610
   2   1 -12195614.0 1592.53   1 0.00000 0.14435-0.89042-0.47697 0.45512 0.86698
   2   1 -11243724.7 2686.78   1 0.00000 0.13107-0.89881-0.52837 0.43832 0.83882
  -2  -1  11240041.0 2623.87   1 0.00000-0.13107-0.50699-0.87743 0.86194 0.46144
  -2  -1  11253678.9 2933.29   1-0.76932-0.90721 0.02275-0.34678 0.63845 0.23811
  -2  -1  1030992.99  717.73   1 0.00000-0.11778-0.56471-0.89214 0.82528 0.43613
  -2  -1  1033341.41  810.40   1 0.00000-0.12250 0.90969 0.58257-0.41528-0.80349
  -2  -1  1033390.98  864.10   1-0.78081-0.90501-0.02798-0.35447 0.62413 0.23514
  -2  -1   9   41.32   61.99   1 0.00000-0.10450-0.62481-0.90922 0.78077 0.40297
  -2  -1   9   87.68   73.00   1 0.00000-0.10889 0.92314 0.63905-0.38445-0.76141
  -2  -1   9  135.08   67.48   1-0.79091-0.90143-0.08429-0.36773 0.60608 0.22844
  -2  -1   8 5577.01  264.94   1 0.00000-0.09121-0.68700-0.92840 0.72665 0.36020
  -2  -1   8 4710.28  266.28   1 0.00000-0.09534 0.93890 0.69784-0.34417-0.70986
  -2  -1   8 4956.87  251.12   1-0.79893-0.89575-0.14776-0.38815 0.58298 0.21669
  -2  -1   7 4615.20  239.95   1 0.00000-0.07793-0.75054-0.94892 0.66082 0.30572
  -2  -1   7 4617.23  268.34   1 0.00000-0.08174 0.95631 0.75829-0.29232-0.64677
  -2  -1   7 5020.92  268.77   1-0.80359-0.88673-0.22044-0.41778 0.55284 0.19790
  -2  -1   654915.63  932.56   1 0.00000-0.06464-0.81393-0.96930 0.58095 0.23721
  -2  -1   648632.39  983.03   1 0.00000-0.06813 0.97400 0.81900-0.22653-0.56972
  -2  -1   651901.62  972.81   1-0.80264-0.87209-0.30493-0.45922 0.51261 0.16901
  -2  -1   5176678.0 2229.10   1 0.00000-0.05136-0.87462-0.98698 0.48479 0.15240
  -2  -1   5180670.5 2490.48   1 0.00000-0.05453 0.98951 0.87754-0.14444-0.47638
  -2  -1   5184102.6 2399.34   1-0.79201-0.84777-0.40409-0.51532 0.45762 0.12538
  -2  -1   4559938.7 5772.07   1 0.00000-0.04092 0.99901 0.93007-0.04439-0.36509
   2   1  -4553830.5 6994.14   1 0.00000 0.04092 0.92899 0.99794-0.37008-0.04938
  -2  -1   327384.48  754.58   1 0.00000-0.02732 0.99729 0.97138 0.07349-0.23595
   2   1  -327715.26  818.62   1 0.00000 0.02732 0.97118 0.99709-0.23834 0.07110
  -2  -1   2 3625.67  257.39   1 0.00000-0.01371 0.97853 0.99565 0.20606-0.09213
   2   1  -2 4119.01  280.58   1 0.00000 0.01371 0.99568 0.97857-0.09276 0.20543
  -2  -1   140139.91  991.63   1 0.00000-0.00011 0.93809 0.99823 0.34639 0.05943
   2   1  -138493.75  939.22   1 0.00000 0.00011 0.99823 0.93809 0.05943 0.34639
  -2  -1   0 6917.21  380.83   1 0.00000 0.01348 0.87465 0.97783 0.48475 0.20894
   2   1   0 6016.22  365.97   1 0.00000-0.01349 0.97802 0.87485 0.20849 0.48420
  -2  -1   0 7104.35  454.33   1-0.08999-0.07724 0.87220 0.97577 0.48078 0.20468
   2   1   0 7013.94  380.05   1-0.10573-0.11785-0.86510-0.96955-0.49032-0.21466
  -2  -1  -116097.92  667.97   1 0.00000 0.02709 0.79137 0.93756 0.61132 0.34674
   2   1   115446.48  662.57   1 0.00000-0.02710 0.93864 0.79244 0.34488 0.60933
  -2  -1  -115557.77  658.35   1-0.26390-0.23760 0.77329 0.91998 0.57652 0.31172
   2   1   115885.50  645.16   1-0.33376-0.35924-0.71987-0.86740-0.60858-0.34432
  -2  -1  -2 5155.52  318.28   1 0.00000 0.04071 0.69466 0.88386 0.71933 0.46597
   2   1   2 4929.38  305.40   1 0.00000-0.04071 0.88699 0.69779 0.46177 0.71513
  -2  -1  -2 5003.23  314.88   1-0.39804-0.35807 0.66270 0.85250 0.63434 0.38080
   2   1   2 5526.71  347.52   1-0.05035-0.09046 0.88852 0.69871 0.45606 0.70965
   2   1   2 5479.86  306.07   1-0.52967-0.56873-0.51595-0.70687-0.67322-0.42054
  -2  -1  -3147303.4 2206.57   1 0.00000 0.05432 0.59183 0.82404 0.80606 0.56391
   2   1   3149234.7 2299.98   1 0.00000-0.05432 0.83013 0.59792 0.55756 0.79971
  -2  -1  -3142336.8 2145.79   1-0.49616-0.44251 0.55774 0.79066 0.66539 0.42311
   2   1   3144624.0 2363.37   1-0.16676-0.22056 0.83417 0.60125 0.52568 0.76801
   2   1   3145284.8 2053.72   1-0.66061-0.71302-0.30982-0.54381-0.68381-0.44256
  -2  -1  -3144486.5 2160.68   1-0.25274-0.20057-0.78104-0.54735-0.57103-0.81250
  -2  -1  -472349.79 1180.80   1 0.00000 0.06794 0.48900 0.76422 0.87227 0.64135
   2   1   471911.32 1259.22   1 0.00000-0.06794 0.77407 0.49885 0.63309 0.86401
  -2  -1  -469416.32 1197.31   1-0.56735-0.50002 0.46452 0.74056 0.67995 0.44893
   2   1   475827.55 1503.23   1-0.25171-0.31904 0.78175 0.50571 0.57052 0.80154
   2   1   472775.98 1087.63   1-0.73624-0.80200-0.13384-0.41089-0.66334-0.43353
  -2  -1  -473855.64 1238.11   1-0.38610-0.32057-0.67395-0.39717-0.62985-0.85992
  -2  -1  -5   32.68   99.02   1 0.00000 0.08323 0.38822 0.70623 0.92156 0.70307
   2   1   5   46.54   92.55   1 0.00000-0.08156 0.72262 0.40439 0.69124 0.91093
  -2  -1  -5  121.96   68.46   1-0.61977-0.53877 0.38330 0.70246 0.68480 0.46504
   2   1   5   -4.91   97.78   1-0.31220-0.39321 0.73727 0.41811 0.59912 0.81887
   2   1   5   98.01   56.36   1-0.77609-0.85520 0.00593-0.31417-0.63058-0.41221
  -2  -1  -5   48.88   49.65   1-0.47881-0.39993-0.57806-0.25821-0.66073-0.87941
  -2  -1  -6 1865.12  189.18   1 0.00000 0.09688 0.29549 0.65641 0.95534 0.74815
   2   1   6 1921.01  174.30   1 0.00000-0.09517 0.67769 0.31646 0.73534 0.94381
  -2  -1  -6 2070.07  172.39   1-0.65927-0.56459 0.31240 0.67467 0.68392 0.47543
   2   1   6 1951.32  204.79   1-0.35515-0.44983 0.70175 0.33947 0.61758 0.82607
   2   1   6 2082.55  127.35   1-0.79534-0.88779 0.11574-0.24742-0.59500-0.38807
  -2  -1  -6 2248.17  182.71   1-0.54229-0.44983-0.49929-0.13611-0.67574-0.88267
  -2  -1  -7  112.10  104.34   1 0.00000 0.11052 0.20972 0.61356 0.97776 0.78187
   2   1   7   38.66   93.61   1 0.00000-0.10879 0.63987 0.23562 0.76847 0.96573
  -2  -1  -7  117.83   89.77   1-0.68975-0.58139 0.24983 0.65522 0.67957 0.48234
   2   1   7   47.55   77.87   1-0.38548-0.49384 0.67452 0.26913 0.62961 0.82685
  -2  -1  -7   72.96   51.61   1-0.58397-0.47817-0.44010-0.03386-0.68211-0.87761
  -2  -1  -830094.63  722.46   1 0.00000 0.12416 0.13085 0.57761 0.99140 0.80681
   2   1   827338.98  743.49   1 0.00000-0.12241 0.60898 0.16173 0.79317 0.97921
  -2  -1  -828924.17  726.81   1-0.71415-0.59194 0.19287 0.64129 0.67289 0.48819
   2   1   827915.32  783.71   1-0.40665-0.52868 0.65439 0.20589 0.63749 0.82346
  -2  -1  -828020.10  677.39   1-0.61194-0.49279-0.39627 0.05303-0.68446-0.86852
  -2  -1  -9 2532.33  175.40   1 0.00000 0.13780 0.05839 0.54806 0.99829 0.82500
   2   1   9 2243.87  207.76   1 0.00000-0.13602 0.58448 0.09422 0.81140 0.98621
  -2  -1  -9 2065.14  180.04   1-0.73332-0.59742 0.14217 0.63364 0.66485 0.49150
   2   1   9 2381.57  224.80   1-0.42103-0.55673 0.64017 0.14855 0.64257 0.81729
  -2  -1  -9 2149.63  155.77   1-0.63065-0.49816-0.36472 0.12763-0.68501-0.85763
  -2  -1 -1091904.56 1320.59   1 0.00000 0.15144-0.00832 0.52426 0.99996 0.83798
   2   1  1081347.48 1291.90   1 0.00000-0.14964 0.56568 0.03241 0.82462 0.98820
  -2  -1 -1082099.49 1236.77   1-0.74887-0.59928 0.09557 0.63010 0.65578 0.49379
   2   1  1083744.42 1455.29   1-0.43025-0.57963 0.63080 0.09605 0.64573 0.80919
  -2  -1 -1086783.75 1345.73   1-0.64297-0.49713-0.34287 0.19255-0.68485-0.84603
  -2  -1 -1144652.34  804.59   1 0.00000 0.16509-0.06997 0.50553 0.99754 0.84686
   2   1  1141491.58  841.38   1 0.00000-0.16325 0.55189-0.02438 0.83391 0.98628
  -2  -1 -1140099.97  755.12   1-0.76159-0.59831 0.05226 0.62983 0.64593 0.49529
   2   1  1143968.53  988.37   1-0.43548-0.59854 0.62540 0.04754 0.64747 0.79967
  -2  -1 -1141661.57  868.21   1-0.65069-0.49151-0.32867 0.24982-0.68452-0.83427
  -2  -1 -12   88.42   72.27   1 0.00000 0.17873-0.12719 0.49122 0.99187 0.85249
   2   1  12   27.15  143.52   1 0.00000-0.17687 0.54245-0.07683 0.84008 0.98123
  -2  -1 -12   84.04   91.94   1-0.77204-0.59507 0.01159 0.63221 0.63546 0.49617
   2   1  12   25.57  145.48   1-0.43753-0.61426 0.62326 0.00229 0.64815 0.78909
  -2  -1 -12  105.48   65.25   1-0.65500-0.48247-0.32056 0.30099-0.68425-0.82256
  -2  -1 -1314031.89  471.73   1 0.00000 0.19237-0.18056 0.48076 0.98356 0.85548
   2   1  1312967.53  483.43   1 0.00000-0.19049 0.53679-0.12550 0.84371 0.97363
  -2  -1 -1313647.48  439.84   1-0.78059-0.58993-0.02692 0.63674 0.62445 0.49651
   2   1  1313592.63  577.16   1-0.43699-0.62740 0.62383-0.04025 0.64797 0.77765
  -2  -1 -1312459.51  450.14   1-0.65669-0.47082-0.31735 0.34727-0.68413-0.81100
  -2  -1 -1410249.88  370.52   1 0.00000 0.20601-0.23059 0.47365 0.97305 0.85627
   2   1  14 9812.80  418.97   1 0.00000-0.20410 0.53442-0.17088 0.84521 0.96391
  -2  -1 -1411552.09  420.98   1-0.78754-0.58319-0.06368 0.64304 0.61295 0.49636
   2   1  14 9918.30  478.27   1-0.43428-0.63837 0.62664-0.08056 0.64707 0.76550
  -2  -1 -14 9990.86  371.75   1-0.65627-0.45705-0.31815 0.38953-0.68416-0.79960
  -2  -1 -15 6812.70  355.11   1 0.00000 0.21966-0.27770 0.46946 0.96066 0.85519
  -2  -1 -15 7560.31  379.41   1-0.79309-0.57505-0.09898 0.65079 0.60100 0.49575
  -2  -1 -15 6499.96  347.46   1-0.65410-0.44154-0.32226 0.42848-0.68431-0.78831
  -2  -1 -16   62.16  104.46   1 0.00000 0.23330-0.32226 0.46781 0.94665 0.85247
  -2  -1 -16   38.28   85.17   1-0.79740-0.56566-0.13307 0.65976 0.58859 0.49470
  -2  -1 -16    0.86   93.91   1-0.65043-0.42451-0.32916 0.46465-0.68453-0.77709
  -2  -1 -17 6867.31  327.79   1 0.00000 0.24694-0.36458 0.46841 0.93116 0.84829
  -2  -1 -17 7058.50  354.89   1-0.80057-0.55515-0.16613 0.66974 0.57574 0.49320
  -2  -1 -17 4616.56  355.13   1-0.64541-0.40615-0.33843 0.49844-0.68476-0.76589
  -2  -1 -18   -9.77   84.68   1 0.00000 0.25419-0.40385 0.47310 0.91482 0.84353
  -2  -1 -18  -60.28  105.05   1-0.80269-0.54358-0.19835 0.68058 0.56243 0.49124
  -2  -2  1912096.62  485.34   1 0.00000-0.16491 0.91641 0.20419-0.40022-0.96493
  -2  -2  1811349.79  543.43   1 0.00000-0.15131 0.91474 0.24555-0.40403-0.95750
  -2  -2  17 2263.62  237.00   1 0.00000-0.13770 0.91410 0.28794-0.40547-0.94769
  -2  -2  1610575.12  568.52   1 0.00000-0.12410 0.91463 0.33149-0.40428-0.93525
  -2  -2  15 1821.99  171.10   1 0.00000-0.10352-0.36623-0.90620 0.93052 0.40996
  -2  -2  15 2952.83  215.89   1 0.00000-0.11050 0.91645 0.37634-0.40014-0.91986
  -2  -2  15 2634.60  200.69   1-0.75805-0.87087 0.06489-0.47458 0.64894 0.12785
  -2  -2  14 4772.61  282.94   1 0.00000-0.09024-0.41478-0.91174 0.90991 0.40071
  -2  -2  14 3838.38  304.25   1 0.00000-0.09689 0.91969 0.42261-0.39263-0.90111
  -2  -2  14 3531.32  279.92   1-0.77023-0.86936 0.01904-0.47738 0.63747 0.12772
  -2  -2  1346957.57  797.82   1 0.00000-0.07695-0.46464-0.91858 0.88549 0.38764
  -2  -2  1353642.10  863.57   1 0.00000-0.08336 0.92445 0.47041-0.38128-0.87849
  -2  -2  1352100.04  997.18   1-0.78115-0.86659-0.02967-0.48304 0.62362 0.12523
  -2  -2  12191727.0 1631.66   1 0.00000-0.06975 0.93082 0.51980-0.36546-0.85143
  -2  -2  12194950.5 1688.01   1-0.79052-0.86226-0.08173-0.49205 0.60695 0.11991
  -2  -2  1131099.51  711.04   1 0.00000-0.05615 0.93880 0.57082-0.34443-0.81915
  -2  -2  1130280.91  743.15   1-0.79790-0.85595-0.13768-0.50495 0.58685 0.11115
  -2  -2  10 8598.53  329.25   1 0.00000-0.03710-0.62206-0.94696 0.78296 0.31917
  -2  -2  10 6911.32  318.92   1 0.00000-0.04254 0.94832 0.62336-0.31730-0.78077
  -2  -2  10 7664.25  333.63   1-0.80268-0.84705-0.19813-0.52235 0.56252 0.09817
  -2  -2   9 3976.27  216.53   1 0.00000-0.02381-0.67668-0.95857 0.73626 0.28382
  -2  -2   9 3749.78  220.84   1 0.00000-0.02894 0.95911 0.67717-0.28303-0.73524
  -2  -2   9 3805.80  237.24   1-0.80399-0.83467-0.26374-0.54491 0.53294 0.07995
  -2  -2   8  882.43  131.81   1 0.00000-0.01053-0.73170-0.97058 0.68161 0.24052
  -2  -2   8  838.17  138.63   1 0.00000-0.01533 0.97066 0.73176-0.24041-0.68138
  -2  -2   8 1136.59  141.80   1-0.80055-0.81753-0.33510-0.57322 0.49681 0.05516
  -2  -2   7   36.04   81.38   1 0.00000 0.00275-0.78627-0.98213 0.61787 0.18813
  -2  -2   7   87.98   95.29   1 0.00000-0.00173 0.98213 0.78626-0.18817-0.61789
  -2  -2   7   97.41   63.49   1-0.79058-0.79387-0.41260-0.60767 0.45248 0.02218
  -2  -2   620755.07  631.35   1 0.00000 0.01603-0.83910-0.99195 0.54396 0.12558
  -2  -2   621178.52  648.06   1 0.00000 0.01187 0.99214 0.83930-0.12506-0.54353
  -2  -2   557919.57 1058.61   1 0.00000 0.02932-0.88837-0.99821 0.45911 0.05208
  -2  -2   557993.59 1155.72   1 0.00000 0.02547 0.99874 0.88892-0.05012-0.45734
  -2  -2   4  118.13  114.13   1 0.00000 0.03908 0.99931 0.93252 0.03698-0.35898
   2   2  -4   35.43  100.10   1 0.00000-0.03908 0.93189 0.99868-0.36273 0.03323
  -2  -2   3   -1.61   99.44   1 0.00000 0.05268 0.99077 0.96701 0.13550-0.24921
   2   2  -3   23.76  101.48   1 0.00000-0.05268 0.96656 0.99033-0.25640 0.12831
  -2  -2   215986.06  584.69   1 0.00000 0.06629 0.96998 0.98925 0.24315-0.13032
   2   2  -215906.63  558.85   1 0.00000-0.06629 0.98985 0.97059-0.14205 0.23141
  -2  -2   1 2739.22  227.00   1 0.00000 0.07990 0.93449 0.99678 0.35598-0.00623
   2   2  -1 2302.29  196.02   1 0.00000-0.07990 0.99972 0.93743-0.02335 0.33887
  -2  -2   045291.54  970.71   1 0.00000 0.09355 0.88327 0.98862 0.46884 0.11778
   2   2   042581.34  880.34   1 0.00000-0.09350 0.99547 0.89015 0.09498 0.44595
  -2  -2   044524.80 1106.43   1-0.05189 0.04079 0.88792 0.99359 0.45704 0.10538
   2   2   045067.15  999.21   1-0.11749-0.20944-0.85956-0.96684-0.49733-0.14610
  -2  -2  -1140573.9 1944.18   1 0.00000 0.10717 0.81742 0.96577 0.57603 0.23619
   2   2   1141019.2 2084.03   1 0.00000-0.10711 0.97813 0.82978 0.20798 0.54771
  -2  -2  -1150303.8 2142.00   1-0.17228-0.06591 0.83110 0.97988 0.52875 0.18835
   2   2   1141278.7 1884.49   1-0.40157-0.50687-0.65931-0.80966-0.63564-0.29581
  -2  -2  -2 1524.15  152.70   1 0.00000 0.12079 0.73968 0.93104 0.67295 0.34433
   2   2   2 1506.98  181.09   1 0.00000-0.12071 0.95025 0.75887 0.31146 0.63994
  -2  -2  -2 1364.68  150.72   1-0.28022-0.16032 0.76157 0.95348 0.58436 0.25527
   2   2   2 1414.83  132.36   1-0.63347-0.75243-0.35981-0.55364-0.68501-0.35683
  -2  -2  -360528.58 1090.69   1 0.00000 0.13440 0.65392 0.88829 0.75655 0.43916
   2   2   358835.01 1153.71   1 0.00000-0.13440 0.91549 0.68112 0.40232 0.71972
  -2  -2  -357014.07 1066.55   1-0.37273-0.23916 0.68620 0.92122 0.62466 0.30683
   2   2   357322.50  932.57   1-0.75124-0.88354-0.08793-0.32483-0.65414-0.33740
  -2  -2  -429844.10  728.81   1 0.00000 0.14802 0.56419 0.84156 0.82564 0.51947
   2   2   427437.72  704.55   1 0.00000-0.14802 0.87717 0.59979 0.48016 0.78634
  -2  -2  -428569.85  806.18   1-0.45001-0.30276 0.61005 0.88819 0.65216 0.34559
   2   2   428253.30  837.85   1-0.05771-0.20513 0.88566 0.60753 0.46073 0.76734
   2   2   428409.95  621.61   1-0.79374-0.93939 0.10367-0.17628-0.59934-0.29404
  -2  -2  -428057.44  759.39   1-0.16922-0.02386-0.83281-0.55321-0.52705-0.83269
  -2  -2  -520840.66  617.43   1 0.00000 0.16164 0.47392 0.79430 0.88056 0.58561
   2   2   518843.53  619.95   1 0.00000-0.16164 0.83844 0.51806 0.54497 0.83993
  -2  -2  -519424.86  587.89   1-0.51372-0.35280 0.53627 0.85753 0.66970 0.37439
   2   2   520250.44  642.06   1-0.12180-0.28291 0.85748 0.53624 0.49987 0.79523
  -2  -2  -520636.06  640.74   1-0.32622-0.16750-0.72606-0.40338-0.60531-0.89956
  -2  -2  -633468.38  961.14   1 0.00000 0.17737 0.38307 0.74603 0.92371 0.64184
   2   2   636176.12  940.40   1 0.00000-0.17525 0.80155 0.43816 0.59791 0.88164
  -2  -2  -633067.46  838.50   1-0.56603-0.39143 0.46640 0.83077 0.67975 0.39570
   2   2   638549.90 1007.10   1-0.17317-0.34797 0.83060 0.46624 0.52924 0.81334
  -2  -2  -634247.73  916.19   1-0.43162-0.25956-0.62939-0.26363-0.64619-0.92904
  -2  -2  -751880.11 1049.96   1 0.00000 0.19101 0.29822 0.70409 0.95449 0.68392
   2   2   751368.69 1094.14   1 0.00000-0.18887 0.76794 0.36153 0.64051 0.91302
  -2  -2  -750248.47  955.76   1-0.60906-0.42078 0.40095 0.80844 0.68430 0.41151
   2   2   754698.08 1092.32   1-0.21397-0.40224 0.80643 0.39894 0.55125 0.82404
  -2  -2  -745635.28  964.84   1-0.50091-0.31550-0.55201-0.14317-0.66660-0.93806
  -2  -2  -829631.89  720.42   1 0.00000 0.20465 0.21787 0.66666 0.97597 0.71671
   2   2   830227.11  728.08   1 0.00000-0.20248 0.73836 0.28895 0.67439 0.93568
  -2  -2  -829225.25  718.51   1-0.64460-0.44265 0.33989 0.79050 0.68479 0.42326
   2   2   830211.86  883.05   1-0.24561-0.44756 0.78589 0.33529 0.56748 0.82901
  -2  -2  -831775.25  818.85   1-0.54791-0.34888-0.49169-0.03947-0.67677-0.93633
  -2  -2  -9  911.36  134.42   1 0.00000 0.21829 0.14232 0.63402 0.98982 0.74185
   2   2   9  669.76  116.77   1 0.00000-0.21610 0.71312 0.22070 0.70103 0.95109
  -2  -2  -9  588.80  137.44   1-0.67414-0.45851 0.28289 0.77661 0.68227 0.43200
   2   2   9  844.52  151.22   1-0.26995-0.48557 0.76900 0.27527 0.57945 0.82972
  -2  -2  -9  810.07  151.09   1-0.57816-0.36578-0.44877 0.04650-0.68142-0.92953
  -2  -2 -10  482.95  114.83   1 0.00000 0.23194 0.07153 0.60615 0.99743 0.76077
   2   2  10  935.46  146.98   1 0.00000-0.22972 0.69219 0.15676 0.72170 0.96054
  -2  -2 -10 1129.98  134.10   1-0.69927-0.46983 0.22846 0.76526 0.67736 0.44002
   2   2  10  910.85  189.95   1-0.28830-0.51760 0.75560 0.21876 0.58816 0.82718
  -2  -2 -10 1019.35  158.37   1-0.59824-0.37252-0.41819 0.12014-0.68353-0.92021
   2   2  1120572.77  616.50   1 0.00000-0.24333 0.67538 0.09694 0.73746 0.96508
  -2  -2 -1120654.00  532.61   1-0.71989-0.47677 0.17834 0.75818 0.67078 0.44479
   2   2  1122125.55  751.73   1-0.30173-0.54471 0.74542 0.16547 0.59438 0.82213
  -2  -2 -1119312.36  511.55   1-0.61133-0.37226-0.39726 0.18413-0.68443-0.90967
  -2  -2 -1225393.88  740.13   1 0.00000 0.25922-0.05686 0.56359 0.99838 0.78432
   2   2  1224803.82  799.58   1 0.00000-0.25695 0.66238 0.04093 0.74915 0.96555
  -2  -2 -1223994.41  695.47   1-0.73723-0.48042 0.13097 0.75387 0.66281 0.44817
   2   2  1223856.94  776.40   1-0.31109-0.56775 0.73815 0.11507 0.59862 0.81511
  -2  -2 -1222792.95  775.42   1-0.61939-0.36697-0.38394 0.24052-0.68479-0.89859
  -2  -2 -13  106.43   75.82   1 0.00000 0.27286-0.11518 0.54819 0.99334 0.79058
   2   2  13   39.85  123.00   1 0.00000-0.27057 0.65288-0.01157 0.75745 0.96263
  -2  -2 -13   20.86   92.74   1-0.75183-0.48133 0.08600 0.75195 0.65372 0.45043
   2   2  13   -3.79  128.20   1-0.31704-0.58737 0.73344 0.06725 0.60128 0.80651
  -2  -2 -13   33.35   67.00   1-0.62370-0.35794-0.37666 0.29086-0.68491-0.88728
  -2  -2 -14  103.79  107.77   1 0.00000 0.28650-0.17008 0.53620 0.98543 0.79397
   2   2  14  -14.95   79.25   1 0.00000-0.28418 0.64654-0.06092 0.76288 0.95683
  -2  -2 -14   51.00   93.79   1-0.76408-0.47989 0.04308 0.75208 0.64367 0.45173
  -2  -2 -14  -18.65   97.67   1-0.62511-0.34601-0.37426 0.33632-0.68494-0.87587
  -2  -2 -15 1463.21  153.90   1 0.00000 0.30015-0.22192 0.52727 0.97506 0.79491
  -2  -2 -15  826.32  119.76   1-0.77430-0.47642 0.00195 0.75400 0.63280 0.45221
  -2  -2 -15  659.67  113.90   1-0.62418-0.33173-0.37585 0.37780-0.68492-0.86442
  -2  -2 -16  352.59  106.72   1 0.00000 0.31379-0.27102 0.52109 0.96257 0.79372
  -2  -2 -16  223.00  121.80   1-0.78274-0.47117-0.03765 0.75744 0.62120 0.45195
  -2  -2 -16  154.36   66.93   1-0.62128-0.31548-0.38076 0.41595-0.68485-0.85290
  -2  -2 -17 1995.71  179.01   1 0.00000 0.32743-0.31767 0.51735 0.94819 0.79065
  -2  -2 -17 3257.33  255.18   1-0.78959-0.46433-0.07593 0.76221 0.60891 0.45102
  -2  -2 -17 1497.73  250.33   1-0.61667-0.29752-0.38848 0.45130-0.68468-0.84130
  -2  -3  18 7377.70  437.39   1 0.00000-0.07137 0.94417 0.27714-0.32944-0.95817
  -2  -3  1712082.18  601.20   1 0.00000-0.05777 0.94470 0.32069-0.32793-0.94541
  -2  -3  16 -109.08  150.28   1 0.00000-0.04416 0.94617 0.36520-0.32364-0.92988
  -2  -3  15 3683.00  278.92   1 0.00000-0.03056 0.94867 0.41072-0.31626-0.91124
  -2  -3  1417509.05  618.44   1 0.00000-0.00955-0.45779-0.95223 0.88905 0.30521
  -2  -3  1424286.94  658.93   1 0.00000-0.01695 0.95221 0.45729-0.30541-0.88915
  -2  -3  1421681.49  705.61   1-0.79184-0.81113-0.09040-0.58455 0.60399 0.01889
   2   3 -1420581.06  470.80   1-0.79710-0.78241 0.13046 0.62275-0.58957-0.00290
  -2  -3  13  -42.88   88.40   1 0.00000 0.00372-0.50549-0.95691 0.86283 0.29034
  -2  -3  13   77.34  123.94   1 0.00000-0.00335 0.95682 0.50493-0.29066-0.86315
  -2  -3  13   -9.89  115.56   1-0.79848-0.80408-0.14330-0.59441 0.58470 0.01095
   2   3 -13   94.46   80.85   1-0.79945-0.79810 0.15326 0.60249-0.58084-0.00560
  -2  -3  1220927.27  518.83   1 0.00000 0.01701-0.55389-0.96230 0.83258 0.27145
  -2  -3  1224005.65  729.86   1 0.00000 0.01025 0.96243 0.55357-0.27149-0.83273
  -2  -3  1223477.48  591.73   1-0.80273-0.79464-0.19902-0.60707 0.56214-0.00025
  -2  -3  11155019.2 1987.49   1 0.00000 0.03029-0.60287-0.96827 0.79783 0.24805
  -2  -3  11165484.6 1668.35   1 0.00000 0.02385 0.96893 0.60309-0.24732-0.79731
  -2  -3  11157397.8 1910.39   1-0.80404-0.78226-0.25775-0.62275 0.53578-0.01525
  -2  -3  1083007.31 1000.20   1 0.00000 0.04358-0.65223-0.97461 0.75801 0.21958
  -2  -3  1096052.21 1248.83   1 0.00000 0.03746 0.97606 0.65325-0.21746-0.75620
  -2  -3  1091277.93 1134.24   1-0.80174-0.76627-0.31962-0.64157 0.50501-0.03467
  -2  -3   9 3518.46  206.62   1 0.00000 0.05686-0.70163-0.98100 0.71253 0.18545
  -2  -3   9 4402.52  255.30   1 0.00000 0.05106 0.98344 0.70366-0.18120-0.70869
  -2  -3   9 4529.37  253.77   1-0.79497-0.74580-0.38462-0.66352 0.46913-0.05921
  -2  -3   8  900.41  109.39   1 0.00000 0.07015-0.75057-0.98693 0.66078 0.14505
  -2  -3   8 1057.22  141.47   1 0.00000 0.06467 0.99046 0.75371-0.13777-0.65401
  -2  -3   7  169.73  101.86   1 0.00000 0.08343-0.79836-0.99170 0.60217 0.09780
  -2  -3   7  289.98  107.71   1 0.00000 0.07827 0.99625 0.80253-0.08645-0.59145
  -2  -3   6 5738.12  350.45   1 0.00000 0.09672-0.84404-0.99437 0.53627 0.04325
  -2  -3   6 4872.13  334.70   1 0.00000 0.09188 0.99964 0.84894-0.02668-0.52042
  -2  -3   524969.82  661.50   1 0.00000 0.11000-0.88643-0.99375 0.46284-0.01882
  -2  -3   525047.89  689.97   1 0.00000 0.10549 0.99912 0.89145 0.04184-0.44065
  -2  -3   4229799.6 3600.29   1 0.00000 0.11909 0.99290 0.92826 0.11891-0.35233
   2   3  -4236872.6 3628.73   1 0.00000-0.11909 0.92421 0.98885-0.38187 0.08936
  -2  -3   3170513.7 2823.21   1 0.00000 0.13270 0.97904 0.95743 0.20365-0.25634
   2   3  -3166749.8 2719.61   1 0.00000-0.13270 0.95563 0.97724-0.29454 0.16545
  -2  -3   2  775.48  161.28   1 0.00000 0.14630 0.95569 0.97711 0.29434-0.15440
   2   3  -2  939.30  132.95   1 0.00000-0.14630 0.97938 0.95797-0.20199 0.24675
  -2  -3   1 1170.99  154.28   1 0.00000 0.16001 0.92140 0.98589 0.38860-0.04893
   2   3  -1 1396.23  170.23   1 0.00000-0.15991 0.99433 0.92989-0.10625 0.33124
  -2  -3   0 5353.67  312.41   1 0.00000 0.17363 0.87568 0.98318 0.48289 0.05657
   2   3   0 4961.02  281.09   1 0.00000-0.17351 0.99995 0.89247-0.00986 0.41638
  -2  -3   0 5452.53  331.44   1-0.05896 0.11367 0.88516 0.99292 0.46152 0.03432
   2   3   0 5260.48  282.62   1-0.23213-0.40391-0.79484-0.90494-0.56065-0.13386
  -2  -3  -1 5975.52  385.53   1 0.00000 0.18725 0.81886 0.96937 0.57398 0.15889
   2   3   1 5882.55  406.11   1 0.00000-0.18712 0.99643 0.84593 0.08438 0.49938
  -2  -3  -1 5246.76  391.87   1-0.14959 0.03672 0.84342 0.99430 0.51599 0.10005
   2   3   1 5136.51  579.54   1-0.68101-0.86651-0.26862-0.42230-0.68122-0.26608
  -2  -3  -2  433.30  134.71   1 0.00000 0.20086 0.75235 0.94587 0.65875 0.25488
   2   3   2  409.86  115.87   1 0.00000-0.20072 0.98476 0.79123 0.17387 0.57762
  -2  -3  -2  520.26  150.81   1-0.23514-0.03533 0.79286 0.98687 0.56219 0.15755
  -2  -3  -339162.74  896.53   1 0.00000 0.21448 0.67832 0.91485 0.73476 0.34211
   2   3   338300.05 1016.00   1 0.00000-0.21433 0.96654 0.72999 0.25647 0.64897
  -2  -3  -338995.15 1007.14   1-0.31353-0.10004 0.73622 0.97335 0.59971 0.20634
  -2  -3  -462812.74 1086.35   1 0.00000 0.22810 0.59927 0.87881 0.80054 0.41911
   2   3   462471.10 1178.72   1 0.00000-0.22793 0.94370 0.66412 0.33077 0.71202
  -2  -3  -459980.25 1115.59   1-0.38382-0.15666 0.67606 0.95630 0.62897 0.24686
  -2  -3  -517038.65  541.04   1 0.00000 0.24171 0.51768 0.84023 0.85557 0.48536
   2   3   516044.51  600.89   1 0.00000-0.24171 0.91840 0.59585 0.39564 0.76585
  -2  -3  -516426.44  533.34   1-0.44585-0.20501 0.61449 0.93785 0.65084 0.27998
  -2  -3  -6 4456.81  263.32   1 0.00000 0.25533 0.43569 0.80124 0.90009 0.54111
   2   3   6 4556.74  304.28   1 0.00000-0.25533 0.89204 0.52648 0.45195 0.81093
  -2  -3  -6 4275.25  271.85   1-0.50002-0.24550 0.55309 0.91957 0.66637 0.30677
   2   3   6 4086.63  295.55   1-0.02537-0.28011 0.89766 0.53120 0.43994 0.79959
  -2  -3  -6 4474.54  317.78   1-0.14775 0.10413-0.84439-0.47580-0.51494-0.87336
  -2  -3  -7 9796.79  547.19   1 0.00000 0.27150 0.35184 0.75975 0.93605 0.59081
   2   3   712845.83  485.13   1 0.00000-0.26894 0.86617 0.45760 0.49974 0.84750
  -2  -3  -712277.09  513.26   1-0.54702-0.27883 0.49289 0.90248 0.67661 0.32827
   2   3   712790.78  514.99   1-0.06715-0.33557 0.88187 0.47230 0.46666 0.81505
  -2  -3  -712167.45  538.09   1-0.30416-0.03891-0.74355-0.33188-0.59549-0.94251
  -2  -3  -812069.48  551.90   1 0.00000 0.28514 0.27326 0.72409 0.96193 0.62799
   2   3   810532.92  409.76   1 0.00000-0.28256 0.84183 0.39026 0.53973 0.87627
  -2  -3  -810763.87  452.41   1-0.58767-0.30580 0.43450 0.88721 0.68252 0.34544
   2   3   811521.01  538.58   1-0.10199-0.38410 0.86682 0.41413 0.48807 0.82520
  -2  -3  -811469.33  546.11   1-0.40096-0.12237-0.65989-0.20514-0.63541-0.97105
  -2  -3  -9  -29.72   64.87   1 0.00000 0.29878 0.19784 0.69159 0.98023 0.65759
   2   3   9    3.68  118.08   1 0.00000-0.29618 0.81971 0.32512 0.57277 0.89809
  -2  -3  -9   10.79  105.92   1-0.62278-0.32723 0.37823 0.87406 0.68489 0.35907
   2   3   9   -0.33  119.08   1-0.13066-0.42645 0.85313 0.35732 0.50506 0.83093
  -2  -3  -9   40.20   84.83   1-0.46294-0.17099-0.59595-0.09812-0.65613-0.98037
  -2  -3 -1058860.11  982.03   1 0.00000 0.31242 0.12593 0.66259 0.99203 0.68070
   2   3  1051214.87  977.41   1 0.00000-0.30979 0.80020 0.26261 0.59972 0.91381
  -2  -3 -1051741.26  858.93   1-0.65308-0.34386 0.32418 0.86312 0.68438 0.36981
   2   3  1056614.99 1265.97   1-0.15388-0.46335 0.84116 0.30224 0.51842 0.83303
  -2  -3 -1055705.23 1124.49   1-0.50359-0.19829-0.54876-0.00785-0.66726-0.98011
  -2  -3 -1192005.16 1280.93   1 0.00000 0.32607 0.05764 0.63722 0.99833 0.69830
   2   3  1183090.46 1175.19   1 0.00000-0.32341 0.78351 0.20291 0.62137 0.92424
  -2  -3 -1188654.04 1139.24   1-0.67924-0.35635 0.27232 0.85438 0.68151 0.37820
   2   3  1188310.26 1387.73   1-0.17234-0.49551 0.83107 0.24903 0.52878 0.83213
  -2  -3 -1182223.93 1291.87   1-0.53196-0.21300-0.51296 0.07134-0.67370-0.97444
  -2  -3 -1248557.87 3331.46   1 0.00000 0.33971-0.00707 0.61541 0.99997 0.71124
   2   3  1242901.59  923.86   1 0.00000-0.33703 0.76966 0.14605 0.63844 0.93009
  -2  -3 -1249537.10 3412.04   1-0.70226-0.36562 0.22152 0.84668 0.67656 0.38657
   2   3  1244835.42  999.48   1-0.18667-0.52352 0.82288 0.19773 0.53666 0.82874
  -2  -3 -1245137.48 3192.09   1-0.54946-0.21716-0.48957 0.13780-0.67705-0.96635
  -2  -3 -13 6298.22  403.39   1 0.00000 0.35335-0.06840 0.59700 0.99765 0.72022
   2   3  13 5346.08  373.18   1 0.00000-0.35064 0.75860 0.09198 0.65155 0.93197
  -2  -3 -13 5712.36  360.75   1-0.72166-0.37132 0.17373 0.84195 0.67008 0.39144
  -2  -3 -13 5125.48  441.16   1-0.56044-0.21479-0.47433 0.19611-0.67890-0.95676
  -2  -3 -14  373.77   92.31   1 0.00000 0.36699-0.12653 0.58178 0.99196 0.72583
  -2  -3 -14  192.42  101.38   1-0.73835-0.37432 0.12773 0.83899 0.66221 0.39491
  -2  -3 -14  100.04   77.95   1-0.56661-0.20761-0.46557 0.24792-0.67984-0.94627
  -2  -3 -15 3059.03  405.31   1 0.00000 0.38064-0.18170 0.56953 0.98335 0.72852
  -2  -3 -15 3776.40  241.17   1-0.75263-0.37492 0.08333 0.83765 0.65313 0.39719
  -2  -3 -15 2902.75  447.33   1-0.56905-0.19671-0.46207 0.29449-0.68019-0.93518
  -2  -3 -16 2024.98  181.43   1 0.00000 0.39428-0.23417 0.55998 0.97219 0.72866
  -2  -3 -16 3232.32  269.88   1-0.76479-0.37338 0.04039 0.83776 0.64300 0.39841
  -2  -4  16 3594.73  292.98   1 0.00000 0.03584 0.97138 0.39255-0.23751-0.91902
  -2  -4  15 7143.14  411.67   1 0.00000 0.04944 0.97381 0.43801-0.22734-0.89760
  -2  -4  1430810.38  732.10   1 0.00000 0.06305 0.97689 0.48412-0.21371-0.87272
  -2  -4  1348939.79 1562.83   1 0.00000 0.07665 0.98055 0.53081-0.19625-0.84401
  -2  -4  1340606.24 1302.06   1-0.80379-0.72954-0.22781-0.67664 0.54956-0.09953
   2   4 -1342357.78 1297.40   1-0.78601-0.86454 0.05501 0.50133-0.61575 0.03497
  -2  -4  1237724.24  959.88   1 0.00000 0.09769-0.57209-0.97798 0.82018 0.18441
  -2  -4  1235895.07  996.00   1 0.00000 0.09026 0.98464 0.57793-0.17456-0.81107
  -2  -4  1232776.30  909.56   1-0.80356-0.71563-0.28327-0.68906 0.52347-0.11426
   2   4 -1233172.27  707.40   1-0.78860-0.88049 0.06995 0.47320-0.61090 0.02839
  -2  -4  1132608.40  776.90   1 0.00000 0.11098-0.61765-0.98052 0.78645 0.16203
  -2  -4  1128015.16  652.37   1 0.00000 0.10386 0.98895 0.62527-0.14820-0.77346
  -2  -4  1127218.63  665.49   1-0.80006-0.69844-0.34055-0.70328 0.49387-0.13252
   2   4 -1128462.21  562.51   1-0.79077-0.89600 0.08334 0.44353-0.60641 0.02144
  -2  -4  1023127.12  669.14   1 0.00000 0.12426-0.66309-0.98295 0.74853 0.13546
  -2  -4  1021652.24  679.84   1 0.00000 0.11747 0.99316 0.67251-0.11669-0.73070
  -2  -4  1021649.95  670.17   1-0.79276-0.67744-0.39944-0.71912 0.46040-0.15464
   2   4 -1020938.48  606.52   1-0.79250-0.91107 0.09486 0.41199-0.60244 0.01397
  -2  -4   9  206.36  107.29   1 0.00000 0.13755-0.70813-0.98498 0.70607 0.10435
  -2  -4   9  296.90  108.36   1 0.00000 0.13108 0.99682 0.71920-0.07956-0.68232
   2   4  -9  255.70   70.83   1-0.79380-0.92572 0.10408 0.37814-0.59919 0.00578
  -2  -4   8 3883.18  260.06   1 0.00000 0.15083-0.75235-0.98619 0.65875 0.06838
  -2  -4   8 4195.09  280.70   1 0.00000 0.14468 0.99933 0.76473-0.03637-0.62788
   2   4  -8 4302.87  222.68   1-0.79465-0.93991 0.11038 0.34138-0.59694-0.00340
  -2  -4   7 1164.01  132.11   1 0.00000 0.16412-0.79524-0.98606 0.60628 0.02727
  -2  -4   7 1663.64  168.25   1 0.00000 0.15829 0.99991 0.80834 0.01323-0.56703
   2   4  -7 1558.04  141.42   1-0.79497-0.95358 0.11286 0.30079-0.59605-0.01394
  -2  -4   615016.16  507.54   1 0.00000 0.17740-0.83614-0.98395 0.54850-0.01915
  -2  -4   615145.78  563.57   1 0.00000 0.17189 0.99758 0.84904 0.06943-0.49957
   2   4  -616104.91  497.48   1-0.79461-0.96657 0.11014 0.25501-0.59703-0.02636
  -2  -4   5 3164.43  213.50   1 0.00000 0.19069-0.87429-0.97908 0.48539-0.07091
  -2  -4   5 2307.83  197.03   1 0.00000 0.18550 0.99122 0.88570 0.13219-0.42557
   2   4  -5 2993.75  167.47   1-0.79324-0.97854 0.10001 0.20182-0.60063-0.04140
  -2  -4   4 4105.44  252.72   1 0.00000 0.19910 0.97957 0.91708 0.20110-0.34541
   2   4  -4 4013.07  250.59   1 0.00000-0.19916 0.90890 0.97136-0.41700 0.12954
   2   4  -4 4522.97  214.02   1-0.79003-0.98868 0.07865 0.13739-0.60799-0.06020
  -2  -4   314395.13  536.21   1 0.00000 0.21271 0.96135 0.94189 0.27530-0.25996
   2   4  -313977.03  533.46   1 0.00000-0.21271 0.93882 0.95828-0.34438 0.19088
   2   4  -314451.66  415.60   1-0.78293-0.99493 0.03864 0.05432-0.62089-0.08453
  -2  -4   222489.51  663.40   1 0.00000 0.22631 0.93544 0.95900 0.35348-0.17053
   2   4  -222305.22  621.10   1 0.00000-0.22631 0.96339 0.93982-0.26808 0.25593
   2   4  -222463.70  537.61   1-0.76565-0.99100-0.03710-0.06449-0.64217-0.11725
  -2  -4   121815.73  661.81   1 0.00000 0.24009 0.90089 0.96754 0.43403-0.07875
   2   4  -120921.93  691.83   1 0.00000-0.23992 0.98191 0.91531-0.18931 0.32346
   2   4  -122196.63  550.44   1-0.70846-0.94716-0.20681-0.27726-0.67475-0.16127
  -2  -4   0  563.47  135.14   1 0.00000 0.25371 0.85753 0.96719 0.51443 0.01286
   2   4   0  694.05  122.16   1 0.00000-0.25352 0.99398 0.88435-0.10955 0.39196
  -2  -4   0  625.24  152.43   1-0.08289 0.16969 0.87529 0.98514 0.47643-0.02630
  -2  -4  -111748.90  425.28   1 0.00000 0.26733 0.80549 0.95816 0.59260 0.10226
   2   4   111027.83  465.30   1 0.00000-0.26713 0.99953 0.84688-0.03045 0.45981
  -2  -4  -111860.52  536.88   1-0.15519 0.11107 0.84045 0.99342 0.51917 0.02769
  -2  -4  -2 6109.00  324.99   1 0.00000 0.28094 0.74559 0.94127 0.66640 0.18727
   2   4   2 6245.62  338.47   1 0.00000-0.28073 0.99892 0.80324 0.04631 0.52534
  -2  -4  -2 6281.00  364.38   1-0.22503 0.05469 0.79943 0.99554 0.55701 0.07682
  -2  -4  -3 6336.95  321.21   1 0.00000 0.29456 0.67914 0.91783 0.73400 0.26610
   2   4   3 5650.85  352.36   1 0.00000-0.29434 0.99286 0.75415 0.11926 0.58704
  -2  -4  -3 6301.82  344.90   1-0.29114 0.00226 0.75347 0.99270 0.58949 0.12056
  -2  -4  -413724.47  458.91   1 0.00000 0.30817 0.60777 0.88947 0.79410 0.33742
   2   4   413243.91  528.47   1 0.00000-0.30794 0.98232 0.70058 0.18716 0.64369
  -2  -4  -412853.29  523.07   1-0.35267-0.04558 0.70390 0.98624 0.61655 0.15888
  -2  -4  -553187.95  951.55   1 0.00000 0.32179 0.53321 0.85792 0.84598 0.40052
   2   4   552861.96  959.84   1 0.00000-0.32155 0.96845 0.64369 0.24917 0.69445
  -2  -4  -549415.32  905.29   1-0.40915-0.08839 0.65195 0.97740 0.63839 0.19198
  -2  -4  -617508.47  563.66   1 0.00000 0.33541 0.45708 0.82480 0.88942 0.45518
   2   4   617000.80  613.84   1 0.00000-0.33515 0.95241 0.58461 0.30481 0.73884
  -2  -4  -617151.42  604.65   1-0.46046-0.12602 0.59869 0.96727 0.65538 0.22023
  -2  -4  -7  440.43  145.67   1 0.00000 0.35199 0.37741 0.78736 0.92604 0.50612
   2   4   7  740.42  161.03   1 0.00000-0.34876 0.93525 0.52443 0.35396 0.77674
  -2  -4  -7  703.54  151.51   1-0.50667-0.15855 0.54500 0.95669 0.66802 0.24413
  -2  -4  -8 7685.51  449.08   1 0.00000 0.36563 0.30183 0.75469 0.95336 0.54474
   2   4   8 9670.39  448.75   1 0.00000-0.36264 0.91818 0.46445 0.39615 0.80794
  -2  -4  -8 9000.38  461.12   1-0.54804-0.18625 0.49151 0.94632 0.67680 0.26416
  -2  -4  -9 6222.40  448.77   1 0.00000 0.37927 0.22810 0.72387 0.97363 0.57632
   2   4   9 5648.93  338.37   1 0.00000-0.37626 0.90144 0.40470 0.43288 0.83345
  -2  -4  -9 5809.53  306.19   1-0.58490-0.20944 0.43869 0.93662 0.68222 0.28084
  -2  -4  -9 6313.73  442.98   1-0.12522 0.24656-0.85581-0.35513-0.50189-0.90171
  -2  -4 -10 2250.64  248.00   1 0.00000 0.39292 0.15676 0.69546 0.98763 0.60162
   2   4  10 1838.25  219.97   1 0.00000-0.38987 0.88582 0.34607 0.46401 0.85336
  -2  -4 -10 2024.25  200.87   1-0.61764-0.22850 0.38685 0.92789 0.68472 0.29461
   2   4  10 1543.94  232.91   1-0.03236-0.42179 0.89519 0.35417 0.44450 0.83465
  -2  -4 -10 2010.88  240.32   1-0.26792 0.11721-0.77044-0.22669-0.57847-0.96688
  -2  -4 -1122613.61  951.99   1 0.00000 0.40656 0.08814 0.66975 0.99610 0.62139
   2   4  1123390.88  939.09   1 0.00000-0.40349 0.87169 0.28894 0.49004 0.86816
  -2  -4 -1127174.41 1016.40   1-0.64664-0.24382 0.33616 0.92032 0.68471 0.30586
  -2  -4 -1127673.77 1261.93   1-0.34694 0.05154-0.70881-0.12198-0.61417-0.99119
  -2  -4 -12 1487.65  181.47   1 0.00000 0.42020 0.02239 0.64691 0.99974 0.63633
   2   4  12  464.03  161.53   1 0.00000-0.41711 0.85932 0.23355 0.51143 0.87833
  -2  -4 -12  292.16  134.29   1-0.67226-0.25576 0.28672 0.91400 0.68253 0.31493
  -2  -4 -12  212.45   92.51   1-0.39620 0.01563-0.66445-0.03454-0.63365-0.99928
  -2  -4 -13  -26.46   80.02   1 0.00000 0.43384-0.04048 0.62695 0.99918 0.64707
  -2  -4 -13 -107.33  122.29   1-0.69528-0.26510 0.23753 0.90802 0.67834 0.32435
  -2  -4 -14  240.55  107.11   1 0.00000 0.44749-0.10054 0.60981 0.99493 0.65412
  -2  -4 -14  192.51  116.90   1-0.71503-0.27116 0.19067 0.90421 0.67258 0.32994
  -2  -5  1410398.89  454.24   1 0.00000 0.14306 0.99295 0.50234-0.11846-0.85275
  -2  -5  13 1367.66  226.62   1 0.00000 0.15666 0.99509 0.54750-0.09897-0.82200
   2   5 -13  717.10  166.00   1-0.76037-0.91879-0.05670 0.38670-0.64701 0.07921
  -2  -5  12  254.72  131.49   1 0.00000 0.17027 0.99714 0.59258-0.07552-0.78730
   2   5 -12  236.89   72.86   1-0.76224-0.93401-0.04991 0.35043-0.64536 0.06942
  -2  -5  1120347.76  852.27   1 0.00000 0.18388 0.99885 0.63732-0.04779-0.74833
   2   5 -1117565.02  689.94   1-0.76333-0.94844-0.04588 0.31139-0.64437 0.05897
  -2  -5  1044203.50 1456.83   1 0.00000 0.20495-0.65932-0.97666 0.75185 0.06414
  -2  -5  1053920.16 1698.69   1 0.00000 0.19748 0.99988 0.68137-0.01550-0.70478
   2   5 -1051126.13 1491.09   1-0.76350-0.96196-0.04524 0.26897-0.64421 0.04769
  -2  -5   911857.00  466.72   1 0.00000 0.21823-0.70087-0.97519 0.71328 0.03693
  -2  -5   916203.67  591.74   1 0.00000 0.21109 0.99976 0.72428 0.02164-0.65638
   2   5  -915189.75  437.94   1-0.76252-0.97433-0.04885 0.22229-0.64510 0.03537
  -2  -5   8  418.89  107.50   1 0.00000 0.23152-0.74150-0.97281 0.67095 0.00594
  -2  -5   8  574.30  127.21   1 0.00000 0.22469 0.99795 0.76551 0.06387-0.60291
   2   5  -8  591.45   97.15   1-0.76002-0.98517-0.05794 0.17014-0.64730 0.02173
  -2  -5   7  285.40   96.46   1 0.00000 0.24481-0.78084-0.96913 0.62472-0.02892
  -2  -5   7  211.50   90.88   1 0.00000 0.23830 0.99378 0.80436 0.11129-0.54424
   2   5  -7  231.30   71.30   1-0.75533-0.99383-0.07431 0.11071-0.65111 0.00648
  -2  -5   6 3801.18  244.86   1 0.00000 0.25809-0.81845-0.96374 0.57456-0.06773
  -2  -5   6 3393.41  239.83   1 0.00000 0.25190 0.98648 0.84008 0.16388-0.48041
   2   5  -6 4171.47  251.99   1-0.74724-0.99909-0.10074 0.04121-0.65686-0.01070
  -2  -5   5  925.88  126.28   1 0.00000 0.27138-0.85384-0.95611 0.52052-0.11042
  -2  -5   5  757.20  146.11   1 0.00000 0.26551 0.97517 0.87181 0.22141-0.41162
   2   5  -5  795.47  103.14   1-0.73343-0.99862-0.14186-0.04296-0.66479-0.03006
  -2  -5   418431.66  495.39   1 0.00000 0.28466-0.88646-0.94571 0.46280-0.15679
  -2  -5   418477.28  554.77   1 0.00000 0.27911 0.95899 0.89866 0.28341-0.33837
   2   5  -419807.20  502.83   1-0.70877-0.98731-0.20608-0.15024-0.67466-0.05137
  -2  -5   3112776.3 1371.01   1 0.00000 0.29272 0.93707 0.91976 0.34912-0.26141
   2   5  -3106170.2 1477.06   1 0.00000-0.29278 0.91580 0.93307-0.40163 0.20893
   2   5  -3110759.5 1277.79   1-0.65970-0.95158-0.31158-0.29881-0.68389-0.07203
  -2  -5   2 6104.49  346.71   1 0.00000 0.30656 0.90857 0.93437 0.41772-0.18154
   2   5  -2 5316.03  331.93   1 0.00000-0.30632 0.94111 0.91539-0.33809 0.26119
   2   5  -2 5920.94  362.28   1-0.53264-0.83740-0.51207-0.54167-0.67384-0.07311
  -2  -5   1  -23.35  104.10   1 0.00000 0.32017 0.87318 0.94199 0.48739-0.10064
   2   5  -1  169.05  132.27   1 0.00000-0.31993 0.96213 0.89338-0.27258 0.31545
  -2  -5   1 -145.21  134.45   1-0.05482 0.26403 0.88679 0.95562 0.45890-0.13064
  -2  -5   0 1128.84  172.85   1 0.00000 0.33379 0.83061 0.94243 0.55685-0.01996
   2   5   0  933.83  162.53   1 0.00000-0.33353 0.97854 0.86676-0.20603 0.37076
  -2  -5   0  877.88  190.79   1-0.11518 0.21734 0.86066 0.97261 0.49596-0.08232
  -2  -5  -1  251.93  108.81   1 0.00000 0.34740 0.78103 0.93586 0.62449 0.05889
   2   5   1  220.70  130.08   1 0.00000-0.34714 0.99022 0.83542-0.13944 0.42609
  -2  -5  -1  263.41  116.62   1-0.17512 0.17109 0.82950 0.98457 0.53032-0.03670
  -2  -5  -2   75.35   96.03   1 0.00000 0.36102 0.72498 0.92282 0.68876 0.13439
   2   5   2   51.45  118.08   1 0.00000-0.36074 0.99726 0.79943-0.07391 0.48038
  -2  -5  -2  -64.03  153.36   1-0.23370 0.12594 0.79381 0.99202 0.56146 0.00572
  -2  -5  -3 6911.11  351.82   1 0.00000 0.37464 0.66333 0.90418 0.74832 0.20516
   2   5   3 5880.02  357.65   1 0.00000-0.37435 0.99994 0.75908-0.01045 0.53258
  -2  -5  -3 5925.89  385.32   1-0.29015 0.08317 0.75421 0.99553 0.58903 0.04455
  -2  -5  -422888.37  687.96   1 0.00000 0.38825 0.59720 0.88106 0.80208 0.27015
   2   5   424090.07  815.23   1 0.00000-0.38795 0.99874 0.71486 0.04997 0.58177
  -2  -5  -422851.75  751.13   1-0.34384 0.04316 0.71144 0.99588 0.61287 0.07965
  -2  -5  -510544.81  457.64   1 0.00000 0.40187 0.52781 0.85468 0.84935 0.32864
   2   5   5 9211.34  505.46   1 0.00000-0.40156 0.99429 0.66737 0.10662 0.62717
  -2  -5  -5 9366.36  402.20   1-0.39431 0.00636 0.66624 0.99380 0.63295 0.11099
  -2  -5  -619110.44  712.51   1 0.00000 0.41549 0.45641 0.82628 0.88976 0.38028
   2   5   618347.13  701.57   1 0.00000-0.41517 0.98729 0.61734 0.15892 0.66822
  -2  -5  -619407.05  671.54   1-0.44132-0.02696 0.61929 0.98996 0.64938 0.13868
  -2  -5  -7 3280.08  499.61   1 0.00000 0.43248 0.38039 0.79237 0.92482 0.43022
   2   5   7 5550.23  383.26   1 0.00000-0.42877 0.97844 0.56547 0.20649 0.70455
  -2  -5  -7 5963.54  399.22   1-0.48474-0.05670 0.57121 0.98500 0.66237 0.16292
  -2  -5  -8  771.20  238.95   1 0.00000 0.44612 0.30787 0.76277 0.95142 0.46813
   2   5   8  773.10  140.86   1 0.00000-0.44238 0.96845 0.51244 0.24919 0.73599
  -2  -5  -8  773.92  168.98   1-0.52458-0.08287 0.52252 0.97943 0.67214 0.18395
  -2  -5  -9  491.96  116.63   1 0.00000 0.45976 0.23630 0.73411 0.97167 0.49968
   2   5   9  844.08  156.05   1 0.00000-0.45598 0.95793 0.45889 0.28700 0.76255
  -2  -5  -9  645.36  144.35   1-0.56093-0.10554 0.47364 0.97367 0.67897 0.20205
  -2  -5 -1012917.94  556.73   1 0.00000 0.47341 0.16627 0.70699 0.98607 0.52538
   2   5  1010918.38  496.18   1 0.00000-0.46959 0.94740 0.40534 0.32002 0.78433
  -2  -5 -1013048.54  502.80   1-0.59393-0.12487 0.42490 0.96804 0.68314 0.21748
  -2  -5 -1146389.55  921.99   1 0.00000 0.48705 0.09819 0.68183 0.99516 0.54577
  -2  -5 -1139738.71  986.93   1-0.62378-0.14104 0.37653 0.96279 0.68491 0.23050
  -2  -5 -1275735.27 1302.53   1 0.00000 0.50069 0.03233 0.65889 0.99947 0.56138
  -2  -5 -1274150.85 1516.10   1-0.65066-0.15425 0.32872 0.95809 0.68452 0.24137
  -2  -6  12 2153.27  218.35   1 0.00000 0.25028 0.99968 0.59727 0.02507-0.76198
  -2  -6  11 5673.85  428.31   1 0.00000 0.26389 0.99857 0.63918 0.05345-0.72235
   2   6 -11 4890.43  315.05   1-0.71553-0.98053-0.18942 0.16495-0.67240 0.10644
  -2  -6  1013589.74  627.65   1 0.00000 0.27749 0.99630 0.67995 0.08584-0.67871
   2   6 -1012629.90  596.63   1-0.71108-0.98943-0.20046 0.11084-0.67392 0.09348
  -2  -6   9 1097.63  217.08   1 0.00000 0.29110 0.99248 0.71915 0.12238-0.63092
   2   6  -9  856.29  170.65   1-0.70383-0.99553-0.21785 0.05039-0.67613 0.07984
  -2  -6   8 1057.65  162.21   1 0.00000 0.30470 0.98660 0.75630 0.16313-0.57892
   2   6  -8  899.12  144.83   1-0.69263-0.99768-0.24346-0.01827-0.67895 0.06558
  -2  -6   7 5162.17  403.89   1 0.00000 0.31831 0.97811 0.79084 0.20808-0.52272
   2   6  -7 4158.38  306.50   1-0.67548-0.99387-0.28013-0.09801-0.68208 0.05101
  -2  -6   6 1132.77  142.51   1 0.00000 0.33877-0.79205-0.93481 0.61044-0.10649
  -2  -6   6 1032.02  199.41   1 0.00000 0.33191 0.96639 0.82215 0.25707-0.46248
   2   6  -6 1054.11  154.48   1-0.64870-0.98043-0.33237-0.19332-0.68462 0.03703
  -2  -6   5  449.64  112.94   1 0.00000 0.35206-0.82551-0.92526 0.56438-0.14120
  -2  -6   5  800.28  183.38   1 0.00000 0.34552 0.95080 0.84958 0.30980-0.39851
   2   6  -5  591.26  117.93   1-0.60457-0.94966-0.40817-0.31218-0.68401 0.02620
  -2  -6   4    2.79  131.93   1 0.00000 0.36535-0.85683-0.91356 0.51559-0.17864
  -2  -6   4  -91.42  130.65   1 0.00000 0.35912 0.93069 0.87251 0.36578-0.33127
   2   6  -4   39.68   76.97   1-0.52597-0.88385-0.52073-0.46700-0.67244 0.02662
  -2  -6   327363.77  971.37   1 0.00000 0.37863-0.88565-0.89937 0.46434-0.21853
  -2  -6   332830.98 1162.09   1 0.00000 0.37302 0.90536 0.89032 0.42462-0.26111
  -2  -6   211869.05  498.35   1 0.00000 0.38663 0.87456 0.90253 0.48490-0.18960
   2   6  -2 9914.05  461.47   1 0.00000-0.38640 0.91172 0.88380-0.41080 0.26379
  -2  -6   211900.77  523.50   1-0.05051 0.33460 0.88846 0.91627 0.45616-0.22019
  -2  -6   112742.51  527.48   1 0.00000 0.40025 0.83787 0.90884 0.54586-0.11743
   2   6  -111539.83  513.11   1 0.00000-0.39994 0.93443 0.86353-0.35613 0.30717
  -2  -6   112729.03  544.36   1-0.10127 0.29752 0.86715 0.93807 0.48763-0.17745
  -2  -6   0  344.93  117.65   1 0.00000 0.41387 0.79520 0.90918 0.60634-0.04573
   2   6   0  204.66  107.53   1 0.00000-0.41354 0.95378 0.83985-0.30048 0.35158
  -2  -6   0   91.20  197.29   1-0.15247 0.26001 0.84190 0.95595 0.51763-0.13620
  -2  -6  -1   13.44   99.89   1 0.00000 0.42748 0.74670 0.90369 0.66515 0.02430
   2   6   1  -59.97  101.81   1 0.00000-0.42715 0.96964 0.81269-0.24449 0.39632
  -2  -6  -1  -48.82  129.18   1-0.20343 0.22246 0.81292 0.97011 0.54568-0.09687
  -2  -6  -2  123.64  102.15   1 0.00000 0.44110 0.69277 0.89277 0.72115 0.09152
   2   6   2   57.31  135.16   1 0.00000-0.44076 0.98199 0.78201-0.18890 0.44067
  -2  -6  -2  -74.65  127.81   1-0.25364 0.18593 0.78043 0.98074 0.57147-0.05981
  -2  -6  -3  450.48  144.18   1 0.00000 0.45471 0.63405 0.87706 0.77328 0.15488
   2   6   3  478.96  129.70   1 0.00000-0.45436 0.99092 0.74791-0.13440 0.48392
  -2  -6  -3  548.53  165.58   1-0.30251 0.15073 0.74482 0.98825 0.59473-0.02529
  -2  -6  -4   58.67   98.58   1 0.00000 0.46833 0.57134 0.85736 0.82071 0.21352
   2   6   4  147.06  137.57   1 0.00000-0.46797 0.99665 0.71061-0.08168 0.52538
  -2  -6  -4  122.03  141.13   1-0.34961 0.11731 0.70653 0.99307 0.61528 0.00651
   2   6   523632.87  774.25   1 0.00000-0.48157 0.99950 0.67043-0.03137 0.56444
  -2  -6  -525696.46  758.69   1-0.39457 0.08603 0.66600 0.99565 0.63305 0.03553
   2   6   6  407.06  172.22   1 0.00000-0.49518 0.99987 0.62777 0.01600 0.60057
  -2  -6  -6  616.58  196.24   1-0.43713 0.05714 0.62368 0.99645 0.64802 0.06176
  -2  -6  -7  198.82  153.21   1 0.00000 0.51297 0.36432 0.77833 0.93127 0.36199
   2   6   7  228.54  115.92   1 0.00000-0.50878 0.99819 0.58306 0.06005 0.63337
  -2  -6  -7  532.47  149.42   1-0.47714 0.03081 0.57999 0.99588 0.66026 0.08526
  -2  -6  -8   59.81  109.67   1 0.00000 0.52661 0.29440 0.75133 0.95568 0.39771
  -2  -6  -8 -107.90  124.76   1-0.51448 0.00714 0.53531 0.99432 0.66987 0.10614
  -2  -6  -9  764.57  240.10   1 0.00000 0.54026 0.22483 0.72468 0.97439 0.42772
  -2  -6  -9  993.35  245.84   1-0.54915-0.01384 0.48999 0.99212 0.67700 0.12452
  -2  -7   7  654.97  153.56   1 0.00000 0.39832 0.95269 0.76757 0.30393-0.50215
  -2  -7   5 1089.94  161.27   1 0.00000 0.42586 0.91743 0.81853 0.39789-0.38554
  -2  -7   4   -9.01  130.47   1 0.00000 0.43948 0.89378 0.83789 0.44849-0.32371
  -2  -7   4   13.83  126.86   1-0.01982 0.41787 0.89957 0.84324 0.43631-0.33810
  -2  -7   319038.83  807.22   1 0.00000 0.45310 0.86554 0.85265 0.50084-0.26015
  -2  -7   2 5456.30  375.85   1 0.00000 0.46671 0.83238 0.86251 0.55419-0.19557
  -2  -7   2 4642.87  387.50   1-0.10497 0.36009 0.86545 0.89535 0.48986-0.26203
  -2  -7   1   40.78  136.47   1-0.14890 0.32985 0.84379 0.91681 0.51559-0.22504
  -2  -7   0 2033.24  318.57   1 0.00000 0.49394 0.75078 0.86692 0.66055-0.06677
  -2  -7   0 1993.63  344.66   1-0.19316 0.29927 0.81908 0.93522 0.54017-0.18920
  -2  -7  -1   -9.45  107.26   1 0.00000 0.50756 0.70245 0.86160 0.71173-0.00437
  -2  -7  -1  218.55  160.15   1-0.23728 0.26853 0.79145 0.95074 0.56328-0.15482
  -2  -7  -2  213.61  142.35   1-0.28097 0.23852 0.76102 0.96342 0.58472-0.12212
  -2  -7  -3   70.97  150.59   1-0.32378 0.20938 0.72803 0.97355 0.60425-0.09133
  -2  -7  -4 6352.28  504.91   1-0.36539 0.18145 0.69276 0.98140 0.62173-0.06258
   3  -9  -2 1825.22  264.97   1-0.22190 0.62567 0.80143 0.75435 0.55539 0.19869
   3  -9  -1    1.50  133.64   1-0.17872 0.65531 0.82747 0.73722 0.53230 0.16449
   3  -9   0 1395.50  219.78   1-0.13559 0.68475 0.85065 0.71728 0.50794 0.12887
   3  -9   0 1677.27  154.88   1-0.78522 0.03502 0.05071-0.07595-0.61712-0.99649
   3  -9   1    0.56   54.27   1-0.79116 0.01574 0.08587-0.08385-0.60554-0.99635
   3  -9   2  165.41  130.34   1-0.05135 0.74162 0.88813 0.66854 0.45670 0.05511
   3  -9   2   26.69   65.43   1-0.79587-0.00231 0.12003-0.09276-0.59344-0.99568
   3  -9   3 2839.07  204.95   1-0.79945-0.01923 0.15323-0.10262-0.58085-0.99453
   3  -8  -9   81.63   94.78   1-0.49862 0.36477 0.55478 0.80742 0.66602 0.46369
   3  -8  -8 1364.11  221.32   1-0.46042 0.38929 0.59873 0.80825 0.65537 0.44178
   3  -8  -7  898.94  195.35   1-0.41978 0.41626 0.64143 0.80782 0.64214 0.41729
   3  -8  -7 1007.65  176.08   1-0.54351 0.29028-0.49765-0.32577-0.67597-0.89978
   3  -8  -6  276.60  155.73   1-0.37682 0.44554 0.68248 0.80577 0.62626 0.39015
   3  -8  -6  258.84   91.06   1-0.57928 0.24115-0.44710-0.31828-0.68155-0.91680
   3  -8  -5 3376.93  288.80   1-0.33177 0.47691 0.72151 0.80168 0.60773 0.36036
   3  -8  -5 2822.82  379.71   1-0.61313 0.19396-0.39432-0.30857-0.68452-0.93121
   3  -8  -4 6656.87  455.26   1-0.28494 0.51007 0.75809 0.79514 0.58659 0.32796
   3  -8  -4 6507.56  320.55   1-0.64438 0.14936-0.34030-0.29761-0.68480-0.94292
   3  -8  -3 2930.29  307.74   1-0.23669 0.54464 0.79184 0.78578 0.56298 0.29309
   3  -8  -3 2792.27  190.36   1-0.67263 0.10777-0.28597-0.28635-0.68248-0.95204
   3  -8  -2 3367.96  318.41   1-0.18756 0.58020 0.82237 0.77314 0.53714 0.25613
   3  -8  -2 3166.50  232.99   1-0.69766 0.06939-0.23214-0.27558-0.67777-0.95876
   3  -8  -1 6872.22  509.26   1-0.13792 0.61616 0.84947 0.75713 0.50929 0.21702
   3  -8  -1 5973.62  326.74   1-0.71946 0.03424-0.17943-0.26594-0.67094-0.96338
   3  -8   0   -3.20  118.45   1-0.08840 0.65199 0.87290 0.73744 0.47982 0.17629
   3  -8   0  -11.96   66.45   1-0.73816 0.00220-0.12827-0.25784-0.66231-0.96618
   3  -8   1  139.34   82.36   1 0.00000 0.72849 0.12983-0.04889 0.99153 0.68330
   3  -8   1  330.14  113.28   1 0.00000 0.72691 0.80226 0.62499 0.59696 0.28455
   3  -8   1  255.96  152.19   1-0.03958 0.68713 0.89257 0.71399 0.44916 0.13438
   3  -8   1  400.72   76.94   1-0.75396-0.02694-0.07892-0.25156-0.65215-0.96746
   3  -8   2  219.55   80.63   1 0.00000 0.71484 0.05439-0.16725 0.99852 0.67898
   3  -8   2  262.09  132.76   1 0.00000 0.71329 0.91712 0.69684 0.39860 0.07497
   3  -8   2  443.64   76.55   1-0.76710-0.05343-0.03150-0.24720-0.64074-0.96748
   3  -8   3   31.71   84.57   1 0.00000 0.70119 0.01807-0.24648 0.99983 0.66900
   3  -8   3  153.52  104.22   1 0.00000 0.69905 0.97162 0.70822 0.23654-0.09874
   3  -8   3  105.69   62.78   1-0.77785-0.07753 0.01395-0.24481-0.62828-0.96646
   3  -8   4   85.47   94.75   1 0.00000 0.68755 0.00009-0.30737 1.00000 0.65786
   3  -8   4   64.36  111.09   1 0.00000 0.68544 0.99420 0.68777 0.10752-0.23901
   3  -8   4   59.28   74.78   1-0.78645-0.09947 0.05750-0.24431-0.61495-0.96457
  -3   8  -4   24.12  106.24   1-0.13386-0.82068-0.85152-0.54940-0.50693-0.15696
   3  -8   5 1402.82  192.00   1 0.00000 0.67391-0.00714-0.35753 0.99997 0.64653
   3  -8   5 1622.69  215.71   1 0.00000 0.67183 0.99999 0.65053 0.00362-0.35416
   3  -8   5 1726.45  128.16   1-0.79313-0.11949 0.09924-0.24564-0.60090-0.96196
  -3   8  -5 1504.04  189.12   1-0.18759-0.86106-0.82235-0.47714-0.53715-0.17578
   3  -8   6  160.31  102.20   1 0.00000 0.66026-0.00734-0.40064 0.99997 0.63523
   3  -8   6  188.31   99.55   1 0.00000 0.65823 0.99680 0.60432-0.07987-0.44891
   3  -8   6  280.65   82.17   1-0.79807-0.13778 0.13928-0.24867-0.58624-0.95873
  -3   8  -6  128.06  123.06   1-0.23440-0.89452-0.79335-0.40506-0.56181-0.18905
   3  -8   7   55.03   99.69   1 0.00000 0.64662-0.00258-0.43880 0.99999 0.62395
   3  -8   7  266.13  110.94   1 0.00000 0.64462 0.98914 0.55364-0.14691-0.52719
  -3   8  -7  261.75  130.32   1-0.27480-0.92157-0.76551-0.33414-0.58178-0.19762
   3  -8   8  932.38  175.26   1 0.00000 0.63298 0.00585-0.47328 0.99998 0.61264
   3  -8   8  960.33  184.19   1 0.00000 0.63102 0.97966 0.50112-0.20065-0.59218
   3  -8   9   18.40  104.41   1 0.00000 0.61934 0.01711-0.50493 0.99985 0.60121
   3  -8   9  298.84  142.37   1 0.00000 0.61741 0.96987 0.44830-0.24360-0.64638
   3  -7 -12 1270.95  164.79   1-0.61105 0.21344 0.39771 0.77760 0.68442 0.59141
   3  -7 -12 1303.96  185.82   1-0.17715 0.64346-0.82836-0.44401-0.53144-0.62354
   3  -7 -11 1693.41  307.06   1-0.57979 0.23103 0.44635 0.78311 0.68162 0.57736
   3  -7 -11 1866.40  296.33   1-0.21126 0.59600-0.80812-0.46685-0.54982-0.65331
   3  -7 -10 3343.98  320.82   1-0.54540 0.25174 0.49509 0.78874 0.67632 0.56080
   3  -7 -10 3507.06  317.39   1-0.24947 0.54443-0.78328-0.48510-0.56941-0.68429
   3  -7  -9 1099.03  176.99   1-0.50776 0.27571 0.54366 0.79419 0.66828 0.54150
   3  -7  -9 1687.78  185.70   1-0.29137 0.48918-0.75330-0.49820-0.58960-0.71588
   3  -7  -817421.18  801.62   1-0.46678 0.30301 0.59169 0.79910 0.65727 0.51923
   3  -7  -818183.01  796.16   1-0.33630 0.43090-0.71777-0.50575-0.60967-0.74734
   3  -7  -713153.35  624.00   1-0.42246 0.33365 0.63872 0.80302 0.64307 0.49377
   3  -7  -711954.92  524.02   1-0.38332 0.37053-0.67652-0.50758-0.62878-0.77785
   3  -7  -6 4981.23  367.84   1-0.37489 0.36755 0.68424 0.80543 0.62550 0.46495
   3  -7  -6 4456.76  256.90   1-0.43130 0.30919-0.62971-0.50386-0.64608-0.80654
   3  -7  -5 8320.80  482.46   1-0.32425 0.40451 0.72765 0.80572 0.60446 0.43264
   3  -7  -5 8183.99  350.10   1-0.47898 0.24817-0.57787-0.49510-0.66078-0.83263
   3  -7  -4 2448.95  216.63   1-0.27091 0.44417 0.76830 0.80325 0.57991 0.39684
   3  -7  -4 1911.23  175.19   1-0.52418 0.18967-0.52303-0.48326-0.67205-0.85468
   3  -7  -3  -61.67   88.87   1-0.21536 0.48605 0.80556 0.79739 0.55198 0.35764
   3  -7  -3   12.75   71.52   1-0.56770 0.13281-0.46401-0.46729-0.68000-0.87406
   3  -7  -2 2981.16  246.65   1-0.15831 0.52950 0.83878 0.78746 0.52094 0.31547
   3  -7  -2 3212.74  205.75   1-0.60768 0.07947-0.40317-0.44952-0.68422-0.88972
   3  -7  -1  691.44  152.02   1-0.10039 0.57374 0.86755 0.77311 0.48710 0.27038
   3  -7  -1  641.16   92.23   1-0.64359 0.03022-0.34174-0.43115-0.68483-0.90177
   3  -7   010063.27  606.12   1 0.00000 0.66047 0.73983 0.60340 0.67278 0.44685
   3  -7   010718.07  584.01   1-0.04253 0.61792 0.89147 0.75392 0.45106 0.22308
   3  -7   010234.02  391.52   1-0.67518-0.01470-0.28075-0.41323-0.68212-0.91050
   3  -7   1 2747.33  239.30   1 0.00000 0.64799 0.12002-0.06073 0.99277 0.75921
   3  -7   1 2975.61  289.26   1 0.00000 0.64625 0.93255 0.75306 0.36102 0.12350
   3  -7   1 2877.10  195.73   1-0.70247-0.05534-0.22104-0.39658-0.67651-0.91632
   3  -7   210927.92  525.14   1 0.00000 0.63435 0.05218-0.17149 0.99863 0.75378
   3  -7   2 8696.91  541.62   1 0.00000 0.63264 0.98971 0.76719 0.14305-0.10571
   3  -7   2 9248.51  341.60   1-0.72566-0.09187-0.16319-0.38179-0.66841-0.91966
   3  -7   3 8395.65  429.67   1 0.00000 0.62070 0.01826-0.24832 0.99983 0.74367
   3  -7   310933.06  604.46   1 0.00000 0.61903 0.99982 0.73427-0.01860-0.27861
   3  -7   310532.39  397.33   1-0.74506-0.12462-0.10754-0.36921-0.65826-0.92095
  -3   7  -3 9410.94  525.66   1-0.15369-0.77403-0.84126-0.57938-0.51832-0.25530
   3  -7   4  155.92   77.87   1 0.00000 0.60706 0.00152-0.30798 0.99999 0.73254
   3  -7   4   15.17   90.68   1 0.00000 0.60543 0.99020 0.68162-0.13963-0.41089
   3  -7   4  -12.14   79.98   1-0.76104-0.15395-0.05427-0.35900-0.64642-0.92054
  -3   7  -4  -49.52  104.20   1-0.21236-0.81935-0.80743-0.50248-0.55040-0.27599
   3  -7   5 2731.87  237.96   1 0.00000 0.59342-0.00489-0.35732 0.99998 0.72123
   3  -7   5 3224.71  289.22   1 0.00000 0.59182 0.97296 0.62135-0.23095-0.51347
   3  -7   5 3275.36  196.05   1-0.77396-0.18021-0.00342-0.35122-0.63322-0.91878
  -3   7  -5 2937.56  311.20   1-0.26337-0.85701-0.77366-0.42562-0.57626-0.29046
   3  -7   6  159.32   83.51   1 0.00000 0.57977-0.00448-0.39981 0.99998 0.70993
   3  -7   6   91.97   73.32   1 0.00000 0.57822 0.95383 0.55919-0.30033-0.59410
   3  -7   6   88.40   82.60   1-0.78416-0.20376 0.04504-0.34581-0.61891-0.91590
  -3   7  -6   41.79   93.05   1-0.30720-0.88749-0.74119-0.35008-0.59686-0.29967
   3  -7   7 7935.61  408.02   1 0.00000 0.56613 0.00076-0.43748 1.00000 0.69863
   3  -7   710882.08  497.54   1 0.00000 0.56461 0.93551 0.49785-0.35327-0.65829
   3  -7   710221.10  357.06   1-0.79197-0.22491 0.09125-0.34267-0.60369-0.91213
  -3   7  -7 8924.99  483.05   1-0.34448-0.91141-0.71090-0.27670-0.61314-0.30455
   3  -7   8   20.77   75.61   1 0.00000 0.55249 0.00959-0.47157 0.99995 0.68729
   3  -7   8  156.27  101.49   1 0.00000 0.55102 0.91924 0.43861-0.39369-0.70992
   3  -7   8   84.70   73.37   1-0.79764-0.24394 0.13533-0.34165-0.58774-0.90761
  -3   7  -8   28.08  103.86   1-0.37591-0.92949-0.68332-0.20604-0.62590-0.30592
   3  -7   926765.60 1043.57   1 0.00000 0.53885 0.02117-0.50291 0.99977 0.67581
  -3   7  -928245.52 1255.85   1-0.40218-0.94241-0.65873-0.13837-0.63586-0.30448
  -3   7 -10 6124.31  395.09   1 0.00000-0.53037-0.89539-0.33261 0.44527 0.77978
   3  -7  10 4550.42  344.94   1 0.00000 0.52520 0.03493-0.53206 0.99939 0.66412
  -3   7 -11   40.43   83.43   1 0.00000-0.51709-0.88650-0.28071 0.46272 0.80858
   3  -7  11    2.93  122.34   1 0.00000 0.51156 0.05046-0.55945 0.99872 0.65215
  -3   7 -12 5953.10  452.39   1 0.00000-0.50380-0.87992-0.23112 0.47510 0.83232
   3  -6 -1430520.86  786.32   1-0.68556 0.08637 0.25893 0.72295 0.68040 0.68547
   3  -6 -1319628.66  584.54   1-0.66145 0.09680 0.30818 0.72908 0.68373 0.67754
  -3   6  12  926.47  162.60   1 0.00000-0.74312 0.93519 0.55745 0.35414 0.37015
   3  -6 -12 1245.65  175.80   1-0.63419 0.11038 0.35854 0.73632 0.68501 0.66756
  -3   6  11 6474.54  484.42   1 0.00000-0.72953 0.97979 0.64508 0.20000 0.22725
  -3   6  11 6363.35  468.27   1 0.00000-0.72953 0.93452 0.59981-0.35589-0.32863
   3  -6 -11 6838.60  415.78   1-0.60347 0.12743 0.40993 0.74460 0.68393 0.65522
   3  -6 -10 2099.88  259.24   1-0.56896 0.14826 0.46219 0.75375 0.68018 0.64021
   3  -6  -9  670.39  142.55   1-0.53035 0.17320 0.51507 0.76350 0.67336 0.62214
   3  -6  -9  498.36  133.24   1-0.12599 0.57473-0.85544-0.60316-0.50234-0.55305
   3  -6  -8  990.67  138.62   1-0.48735 0.20252 0.56816 0.77348 0.66307 0.60058
   3  -6  -8 1130.01  140.72   1-0.17341 0.51395-0.83047-0.62127-0.52938-0.59148
   3  -6  -7 2045.06  245.42   1-0.43975 0.23644 0.62094 0.78314 0.64887 0.57513
   3  -6  -7 2331.95  205.82   1-0.22526 0.44876-0.79929-0.63318-0.55712-0.63063
   3  -6  -6 5572.18  372.47   1-0.38745 0.27507 0.67269 0.79177 0.63036 0.54536
   3  -6  -6 5495.64  288.82   1-0.28059 0.38008-0.76130-0.63827-0.58454-0.66943
   3  -6  -5  441.10  148.60   1-0.33052 0.31832 0.72254 0.79851 0.60719 0.51092
   3  -6  -5  710.88  135.91   1-0.33810 0.30922-0.71627-0.63632-0.61044-0.70673
   3  -6  -4 6100.34  339.33   1-0.26929 0.36587 0.76946 0.80231 0.57913 0.47161
   3  -6  -4 5745.95  282.42   1-0.39619 0.23777-0.66446-0.62759-0.63365-0.74134
   3  -6  -319498.85  701.49   1-0.20437 0.41712 0.81234 0.80208 0.54618 0.42740
   3  -6  -318408.21  519.45   1-0.45316 0.16745-0.60666-0.61287-0.65315-0.77223
   3  -6  -2  993.80  177.61   1-0.13677 0.47110 0.85005 0.79664 0.50862 0.37870
   3  -6  -2 1084.70  127.44   1-0.50738 0.09988-0.54412-0.59342-0.66819-0.79866
   3  -6  -112121.70  546.13   1-0.06753 0.52665 0.88172 0.78519 0.46690 0.32573
   3  -6  -111688.23  451.68   1-0.55700 0.03692-0.47915-0.57147-0.67834-0.81978
   3  -6   0   63.81   75.92   1 0.00000 0.58037 0.90578 0.76720 0.42372 0.27304
   3  -6   0    2.28   85.79   1-0.60230-0.02171-0.41179-0.54718-0.68385-0.83673
   3  -6   115422.18  608.25   1 0.00000 0.56750 0.18767 0.00487 0.98223 0.82335
   3  -6   120914.80  659.72   1 0.00000 0.56623 0.99860 0.81695 0.05289-0.10935
   3  -6   120186.49  499.92   1-0.64219-0.07494-0.34428-0.52273-0.68487-0.84919
   3  -6   2 2835.88  251.09   1 0.00000 0.55385 0.10691-0.11879 0.99426 0.82409
   3  -6   2 1368.83  187.38   1 0.00000 0.55263 0.98631 0.76164-0.16488-0.33838
   3  -6   2 1530.84  133.29   1-0.67660-0.12271-0.27782-0.49933-0.68192-0.85767
  -3   6  -2 1420.15  173.04   1-0.15217-0.70603-0.84206-0.62044-0.51746-0.34140
   3  -6   3 1001.20  150.87   1 0.00000 0.54021 0.06464-0.20398 0.99790 0.81643
   3  -6   3 1098.28  150.38   1 0.00000 0.53902 0.95184 0.68414-0.30657-0.49132
   3  -6   3  930.54   99.32   1-0.70577-0.16522-0.21326-0.47784-0.67557-0.86276
  -3   6  -3 1052.10  136.50   1-0.21802-0.75853-0.80389-0.53919-0.55337-0.36592
   3  -6   4 2687.29  197.17   1 0.00000 0.52657 0.04218-0.26935 0.99910 0.80633
   3  -6   4 3300.53  252.81   1 0.00000 0.52541 0.91538 0.60471-0.40258-0.59854
   3  -6   4 3326.36  180.55   1-0.73008-0.20287-0.15119-0.45883-0.66642-0.86505
  -3   6  -4 3651.41  267.49   1-0.27533-0.80249-0.76512-0.45734-0.58203-0.38319
  -3   6  -5 2177.89  230.44   1 0.00000-0.51611-0.88467-0.53444 0.46621 0.66932
   3  -6   5 1808.60  183.76   1 0.00000 0.51292 0.03163-0.32281 0.99949 0.79541
   3  -6   5 2203.44  153.12   1-0.75002-0.23616-0.09189-0.44259-0.65499-0.86506
  -3   6  -5 2322.48  215.57   1-0.32444-0.83824-0.72750-0.37664-0.60454-0.39430
  -3   6  -6  429.73  121.70   1 0.00000-0.50283-0.85732-0.46408 0.51477 0.72923
   3  -6   6  442.05  118.06   1 0.00000 0.49928 0.02893-0.36843 0.99958 0.78419
   3  -6   6  292.26   65.12   1-0.76608-0.26557-0.03547-0.42924-0.64175-0.86326
  -3   6  -7  659.53  122.39   1 0.00000-0.48954-0.83559-0.39934 0.54934 0.77515
   3  -6   7  334.07  113.35   1 0.00000 0.48564 0.03174-0.40854 0.99949 0.77281
   3  -6   7  580.46   85.02   1-0.77874-0.29157 0.01808-0.41874-0.62707-0.86001
  -3   6  -7  446.51  151.36   1-0.40080-0.88791-0.66005-0.22302-0.63536-0.40233
  -3   6  -8  -68.40  100.72   1 0.00000-0.47626-0.81893-0.33966 0.57388 0.81104
   3  -6   8    1.58   99.89   1 0.00000 0.47200 0.03859-0.44461 0.99925 0.76126
   3  -6   8  150.18   58.59   1-0.78843-0.31461 0.06889-0.41099-0.61124-0.85562
  -3   6  -8   52.04  108.63   1-0.42969-0.90344-0.63137-0.15126-0.64554-0.40112
  -3   6  -9 8153.65  437.13   1 0.00000-0.46297-0.80667-0.28439 0.59099 0.83950
   3  -6   9 8758.42  418.58   1 0.00000 0.45835 0.04851-0.47760 0.99882 0.74953
   3  -6   9 7181.18  445.42   1-0.79408-0.33753-0.39077-0.91724 0.46553 0.21150
   3  -6   9 7492.17  254.31   1-0.79551-0.33504 0.11712-0.40583-0.59450-0.85032
  -3   6  -9 6466.99  413.52   1-0.45345-0.91385-0.60634-0.08315-0.65324-0.39742
  -3   6 -1066533.61 4599.15   1 0.00000-0.44969-0.79817-0.23288 0.60241 0.86229
   3  -6  1060025.16 4117.30   1 0.00000 0.44471 0.06086-0.50816 0.99814 0.73755
   3  -6  1057455.39 3954.42   1-0.80054-0.35768-0.33520-0.90472 0.49675 0.23137
   3  -6  1065454.80 4416.52   1-0.80031-0.35318 0.16294-0.40307-0.57701-0.84427
  -3   6 -1054492.05 3813.91   1-0.47280-0.91985-0.58492-0.01865-0.65902-0.39182
  -3   6 -11 4065.10  287.80   1 0.00000-0.43640-0.79286-0.18455 0.60939 0.88061
   3  -6  11 3186.29  254.84   1 0.00000 0.43107 0.07516-0.53678 0.99717 0.72527
   3  -6  11 3558.29  287.07   1-0.80364-0.37447-0.28091-0.89348 0.52464 0.24790
  -3   6 -12  164.36   90.76   1 0.00000-0.42312-0.79024-0.13892 0.61278 0.89535
   3  -6  12   -3.24   96.44   1 0.00000 0.41743 0.09106-0.56380 0.99584 0.71265
  -3   6 -13  136.38  100.60   1 0.00000-0.40983-0.78991-0.09558 0.61321 0.90713
  -3   6 -14 1356.84  162.10   1 0.00000-0.39655-0.79152-0.05417 0.61113 0.91641
   3  -5 -1615939.74  527.31   1 0.00000 0.71442-0.85375-0.30321 0.52067 0.63060
   3  -5 -1615561.99  504.16   1-0.74756-0.02861 0.09973 0.64726 0.65665 0.76172
   3  -5 -15 5136.22  310.49   1 0.00000 0.70113-0.84996-0.34243 0.52683 0.62541
   3  -5 -15 4529.49  299.38   1-0.73202-0.02676 0.14580 0.65029 0.66549 0.75921
   3  -5 -1471564.78 1078.60   1 0.00000 0.68785-0.84896-0.38444 0.52845 0.61567
  -3   5  1464765.99 1534.33   1 0.00000-0.69091 0.61573 0.15434 0.78795 0.70626
   3  -5 -1476920.46 1135.91   1-0.71390-0.02232 0.19350 0.65494 0.67297 0.75534
   3  -5 -1346991.26 1556.29   1 0.00000 0.67456-0.85169-0.43019 0.52403 0.59990
  -3   5  1346353.83 1655.52   1 0.00000-0.67729 0.63296 0.21458 0.77418 0.70371
   3  -5 -1348708.38 1649.31   1-0.69285-0.01497 0.24296 0.66135 0.67890 0.74992
  -3   5  1342690.91 1762.29   1-0.11098-0.78943 0.86265 0.44388 0.49346 0.42398
   3  -5 -1214821.79  465.23   1 0.00000 0.66128-0.85955-0.48106 0.51105 0.57557
  -3   5  1212926.91  555.69   1 0.00000-0.66368 0.66059 0.28522 0.75073 0.69149
   3  -5 -1213617.32  506.90   1-0.66784-0.00318 0.29561 0.67129 0.68307 0.74118
  -3   5  1212910.37  564.10   1-0.09327-0.75803 0.87075 0.49509 0.48279 0.42456
   3  -5 -11 2603.07  208.32   1 0.00000 0.64799-0.87462-0.53914 0.48480 0.53797
  -3   5  11 1902.24  218.41   1 0.00000-0.65006 0.70257 0.37021 0.71161 0.66359
   3  -5 -11 2210.41  187.91   1-0.63964 0.01134 0.34887 0.68144 0.68493 0.73178
  -3   5  11 1600.35  239.25   1-0.07125-0.72233 0.88019 0.54765 0.46923 0.42226
   3  -5 -10 6163.26  335.71   1 0.00000 0.63471-0.90022-0.60776 0.43542 0.47724
  -3   5  10 6985.07  399.84   1 0.00000-0.63645 0.76509 0.47573 0.64392 0.60712
   3  -5 -10 6593.55  380.03   1-0.60711 0.03019 0.40410 0.69355 0.68418 0.71977
  -3   5  10 6620.10  505.69   1-0.04440-0.68179 0.89077 0.60135 0.45226 0.41655
  -3   5   9 3202.66  283.23   1 0.00000-0.62284 0.85866 0.61232 0.51253 0.48695
  -3   5   9 3214.73  261.05   1 0.00000-0.62228 0.94418 0.69769-0.32942-0.35494
   3  -5  -9 3596.17  263.68   1-0.56965 0.05398 0.46120 0.70754 0.68028 0.70460
   3  -5  -813766.02  514.27   1-0.52660 0.08335 0.51993 0.72315 0.67257 0.68564
   3  -5  -762384.41 1062.27   1-0.47731 0.11897 0.57979 0.73989 0.66031 0.66211
   3  -5  -641475.21  870.73   1-0.42120 0.16140 0.63999 0.75698 0.64264 0.63318
   3  -5  -645148.07  904.98   1-0.13498 0.44585-0.85096-0.73075-0.50758-0.51691
   3  -5  -543057.59  914.12   1-0.35791 0.21101 0.69935 0.77322 0.61870 0.59799
   3  -5  -542799.44  925.02   1-0.19829 0.36919-0.81602-0.73890-0.54293-0.56366
   3  -5  -4  497.40  145.01   1-0.28743 0.26781 0.75624 0.78699 0.58776 0.55579
   3  -5  -4  428.05  117.34   1-0.26504 0.28909-0.77248-0.73844-0.57707-0.60919
   3  -5  -3  609.29  152.00   1-0.21034 0.33123 0.80869 0.79632 0.54934 0.50611
   3  -5  -3  690.26  107.14   1-0.33321 0.20757-0.72033-0.72937-0.60834-0.65186
   3  -5  -2 7353.07  380.36   1-0.12798 0.39993 0.85445 0.79895 0.50350 0.44913
   3  -5  -2 6925.44  334.91   1-0.40053 0.12689-0.66031-0.71243-0.63526-0.69016
   3  -5  -1 3486.24  271.54   1-0.04223 0.47200 0.89159 0.79296 0.45086 0.38523
   3  -5  -1 3447.90  217.20   1-0.46481 0.04926-0.59388-0.68909-0.65669-0.72299
   3  -5   027392.03  917.91   1 0.00000 0.50029 0.52299 0.38225 0.85233 0.77690
   3  -5   028592.67  814.25   1 0.00000 0.49983 0.99923 0.85846-0.03919-0.11492
   3  -5   028253.96  635.48   1-0.52386-0.02315-0.52345-0.66174-0.67198-0.74936
   3  -5   1 2353.71  340.56   1 0.00000 0.48700 0.32191 0.13708 0.94676 0.86257
   3  -5   1 3967.39  301.27   1 0.00000 0.48622 0.92979 0.74599-0.36807-0.45504
   3  -5   1 3799.12  218.21   1-0.57720-0.08984-0.45018-0.63153-0.68129-0.77012
  -3   5  -1 3964.06  276.71   1-0.12468-0.61205-0.85608-0.67471-0.50156-0.41247
  -3   5  -2104935.6 1721.74   1 0.00000-0.47528-0.85532-0.63161 0.51809 0.61250
   3  -5   299925.46 1793.55   1 0.00000 0.47336 0.21645-0.01128 0.97629 0.88079
   3  -5   2106288.0 1421.40   1-0.62383-0.14982-0.37645-0.60087-0.68491-0.78517
  -3   5  -2110902.6 1657.09   1-0.20032-0.67435-0.81480-0.59035-0.54402-0.44353
  -3   5  -3  250.16   73.95   1 0.00000-0.46200-0.79500-0.52828 0.60660 0.71237
   3  -5   3   50.50   70.27   1 0.00000 0.45972 0.15713-0.11352 0.98757 0.88077
   3  -5   3  447.94   77.26   1-0.66368-0.20302-0.30383-0.57132-0.68352-0.79522
  -3   5  -3  483.16  105.12   1-0.26667-0.72735-0.77133-0.50380-0.57786-0.46598
  -3   5  -4 1856.53  181.96   1 0.00000-0.44871-0.75149-0.44176 0.65973 0.77685
   3  -5   4 1921.61  187.76   1 0.00000 0.44608 0.12252-0.19104 0.99246 0.87436
   3  -5   4 1982.05  150.26   1-0.69708-0.24977-0.23345-0.54400-0.67791-0.80104
  -3   5  -4 1566.09  160.75   1-0.32363-0.77095-0.72816-0.41755-0.60418-0.48091
  -3   5  -5  974.77  135.97   1 0.00000-0.43543-0.72091-0.36816 0.69302 0.82149
   3  -5   5 1063.80  135.57   1 0.00000 0.43243 0.10295-0.25354 0.99468 0.86528
   3  -5   5 1068.58  100.81   1-0.72460-0.29063-0.16601-0.51962-0.66887-0.80344
  -3   5  -5 1115.96  134.15   1-0.37171-0.80568-0.68711-0.33342-0.62425-0.48958
  -3   5  -6 4134.88  219.82   1 0.00000-0.42214-0.70002-0.30425 0.71412 0.85394
   3  -5   6 4337.43  232.63   1 0.00000 0.41879 0.09330-0.30610 0.99563 0.85493
   3  -5   6 3766.54  201.98   1-0.74688-0.32625-0.10188-0.49856-0.65710-0.80311
  -3   5  -6 3816.66  270.73   1-0.41177-0.83239-0.64938-0.25261-0.63932-0.49326
  -3   5  -718384.64  496.34   1 0.00000-0.40886-0.68645-0.24768 0.72716 0.87834
   3  -5   720167.70  576.46   1 0.00000 0.40515 0.09059-0.35173 0.99588 0.84388
   3  -5   725118.26  683.88   1-0.78578-0.38169-0.43799-0.88062 0.43670 0.28072
   3  -5   722798.02  528.35   1-0.76458-0.35730-0.04118-0.48093-0.64320-0.80064
  -3   5  -724623.38  630.96   1-0.44479-0.85206-0.61563-0.17577-0.65050-0.49304
  -3   5  -8 4228.71  268.49   1 0.00000-0.39557-0.67850-0.19671 0.73459 0.89711
   3  -5   8 4041.46  249.75   1 0.00000 0.39151 0.09294-0.39229 0.99567 0.83236
   3  -5   8 3921.51  298.68   1-0.79626-0.40587-0.37501-0.86070 0.47467 0.30734
   3  -5   8 3733.78  185.90   1-0.77833-0.38439 0.01613-0.46666-0.62764-0.79653
  -3   5  -8 3871.54  294.21   1-0.47174-0.86566-0.58611-0.10318-0.65872-0.48987
  -3   5  -9135597.9 1586.33   1 0.00000-0.38229-0.67492-0.15011 0.73788 0.91176
   3  -5   9134360.0 1467.25   1 0.00000 0.37786 0.09913-0.42901 0.99507 0.82046
   3  -5   9133652.7 1981.68   1-0.80209-0.42539-0.31431-0.84305 0.50778 0.32909
   3  -5   9141405.7 1569.24   1-0.78865-0.40807 0.07024-0.45562-0.61080-0.79112
  -3   5  -9132054.4 1750.87   1-0.49354-0.87411-0.56085-0.03484-0.66471-0.48446
   3  -5  10 2372.18  204.90   1 0.00000 0.36422 0.10831-0.46275 0.99411 0.80820
   3  -5  10  590.10  137.82   1-0.80405-0.44103-0.25610-0.82788 0.53656 0.34653
   3  -5  10  821.35  110.16   1-0.79603-0.42879 0.12133-0.44760-0.59296-0.78472
  -3   5 -10  802.14  128.05   1-0.51097-0.87818-0.53969 0.02939-0.66905-0.47741
  -3   5 -11 4756.95  255.36   1 0.00000-0.35572-0.67737-0.06654 0.73563 0.93221
   3  -5  11 4521.85  293.10   1 0.00000 0.35058 0.11987-0.49411 0.99278 0.79557
   3  -5  11 2898.26  243.64   1-0.80280-0.45347-0.20041-0.81525 0.56155 0.36016
  -3   5 -11 3124.26  289.62   1-0.52474-0.87864-0.52231 0.08967-0.67217-0.46898
  -3   5 -12 7272.44  374.59   1 0.00000-0.34243-0.68218-0.02834 0.73117 0.93911
   3  -5  12 5764.61  339.81   1 0.00000 0.33694 0.13337-0.52353 0.99106 0.78254
   3  -5  12 7118.04  344.78   1-0.79887-0.46324-0.14719-0.80508 0.58320 0.37046
  -3   5 -12 6291.43  341.95   1-0.53532-0.87587-0.50855 0.14650-0.67438-0.45975
  -3   5 -13 7040.91  369.46   1 0.00000-0.32914-0.68879 0.00806 0.72495 0.94424
   3  -5  13 5102.28  340.42   1 0.00000 0.32330 0.14848-0.55133 0.98891 0.76909
  -3   5 -14  377.64  123.89   1 0.00000-0.31586-0.69687 0.04299 0.71719 0.94783
  -3   5 -15 3914.53  308.72   1 0.00000-0.30257-0.70617 0.07671 0.70804 0.95003
  -3   5 -16 2647.93  267.23   1 0.00000-0.28929-0.71646 0.10943 0.69762 0.95096
   3  -4 -17 7647.31  393.36   1 0.00000 0.64702-0.85439-0.26336 0.51962 0.71554
  -3   4  17 5171.76  348.66   1 0.00000-0.65207 0.38193-0.20369 0.92418 0.73027
   3  -4 -17 7227.27  430.10   1-0.78029-0.12749-0.02546 0.56285 0.62489 0.81666
   3  -4 -16   96.36  110.88   1 0.00000 0.63373-0.84931-0.30129 0.52789 0.71246
  -3   4  16   14.48   82.70   1 0.00000-0.63843 0.36423-0.17847 0.93130 0.74869
   3  -4 -16  185.06   82.99   1-0.77098-0.13187 0.01598 0.56124 0.63665 0.81707
   3  -4 -15 3515.34  273.73   1 0.00000 0.62045-0.84615-0.34114 0.53294 0.70615
  -3   4  15 3330.42  322.84   1 0.00000-0.62479 0.34851-0.15128 0.93730 0.76599
   3  -4 -15 3540.57  317.32   1-0.75970-0.13428 0.05908 0.56129 0.64757 0.81664
   3  -4 -1425667.94  906.33   1 0.00000 0.60716-0.84544-0.38345 0.53406 0.69592
  -3   4  1418838.51  806.88   1 0.00000-0.61115 0.33526-0.12161 0.94212 0.78211
   3  -4 -1422493.00  869.10   1-0.74618-0.13444 0.10408 0.56324 0.65755 0.81527
  -3   4  1421826.45  986.70   1-0.23897-0.85106 0.79034 0.33052 0.56413 0.40796
   3  -4 -1385890.40 1239.80   1 0.00000 0.59388-0.84788-0.42890 0.53018 0.68069
  -3   4  1379683.82 1333.78   1 0.00000-0.59750 0.32521-0.08875 0.94564 0.79693
   3  -4 -1375210.68 1092.37   1-0.73005-0.13201 0.15126 0.56738 0.66643 0.81280
  -3   4  1374817.46 1349.52   1-0.22857-0.82699 0.79715 0.38045 0.55883 0.41392
   3  -4 -1218495.37  589.89   1 0.00000 0.58059-0.85438-0.47841 0.51964 0.65880
  -3   4  1217447.52  690.90   1 0.00000-0.58386 0.31942-0.05162 0.94761 0.81020
   3  -4 -1214452.92  578.24   1-0.71088-0.12652 0.20095 0.57401 0.67399 0.80901
  -3   4  1213933.86  595.42   1-0.21417-0.79891 0.80630 0.43272 0.55135 0.41770
   3  -4 -11 1677.59  169.28   1 0.00000 0.56731-0.86616-0.53321 0.49976 0.62756
  -3   4  11 1787.64  218.09   1 0.00000-0.57022 0.31961-0.00851 0.94754 0.82144
   3  -4 -11 2357.93  202.73   1-0.68747-0.11640 0.25480 0.58527 0.68004 0.80243
  -3   4  11 2264.07  260.98   1-0.19504-0.76617 0.81796 0.48752 0.54119 0.41868
   3  -4 -10 9816.82  370.77   1 0.00000 0.55402-0.88482-0.59488 0.46592 0.58237
  -3   4  10 9951.62  437.89   1 0.00000-0.55658 0.32863 0.04341 0.94445 0.82965
   3  -4 -10 8611.76  358.16   1-0.66026-0.10287 0.31049 0.59785 0.68384 0.79497
  -3   4  10 8187.92  477.17   1-0.17037-0.72781 0.83217 0.54484 0.52769 0.41644
  -3   4   9 2552.67  254.08   1 0.00000-0.54294 0.35169 0.10939 0.93611 0.83261
  -3   4   9 2523.52  203.90   1 0.00000-0.54222 0.91289 0.66850-0.40820-0.50901
   3  -4  -9 2514.22  183.59   1-0.62778-0.08406 0.36970 0.61393 0.68498 0.78486
  -3   4   9 2511.16  269.26   1-0.13910-0.68286 0.84886 0.60465 0.50997 0.40997
  -3   4   8   84.11   67.97   1 0.00000-0.52929 0.39970 0.20031 0.91664 0.82444
  -3   4   8  110.24   72.52   1 0.00000-0.52866 0.95153 0.75022-0.30753-0.39707
   3  -4  -8   83.42   92.36   1-0.58888-0.05884 0.43266 0.63378 0.68265 0.77126
  -3   4   8   -2.34  124.54   1-0.10007-0.63015 0.86769 0.66660 0.48691 0.39818
  -3   4   7  605.90  109.34   1 0.00000-0.51552 0.51336 0.35520 0.85816 0.77978
  -3   4   7  580.19  271.82   1 0.00000-0.51506 0.99337 0.83509-0.11490-0.19320
   3  -4  -7  701.74  117.14   1-0.54219-0.02583 0.49941 0.65741 0.67572 0.75308
  -3   4   7  652.99  134.85   1-0.05203-0.56842 0.88787 0.72989 0.45713 0.37965
   3  -4  -622144.99  688.25   1-0.48613 0.01654 0.56959 0.68447 0.66274 0.72884
   3  -4  -5  433.01   98.32   1-0.41907 0.06993 0.64213 0.71390 0.64189 0.69673
   3  -4  -4 1844.74  208.16   1-0.33965 0.13568 0.71497 0.74362 0.61110 0.65468
   3  -4  -4 1581.64  221.99   1-0.13762 0.33667-0.84962-0.81841-0.50911-0.46567
   3  -4  -3 3679.54  301.58   1-0.24739 0.21426 0.78469 0.77023 0.56837 0.60069
   3  -4  -3 3509.98  235.66   1-0.21416 0.24678-0.80631-0.81818-0.55135-0.51930
   3  -4  -2 2685.76  229.04   1-0.14356 0.30441 0.84657 0.78897 0.51254 0.53371
   3  -4  -2 2538.09  190.57   1-0.29276 0.15483-0.75225-0.80721-0.59025-0.56959
   3  -4  -127208.64  811.33   1-0.03138 0.40290 0.89554 0.79482 0.44386 0.45378
   3  -4  -127955.51  676.23   1-0.37037 0.06387-0.68832-0.78635-0.62372-0.61446
  -3   4   013086.44  530.73   1 0.00000-0.42117-0.68756-0.54736 0.72612 0.72319
   3  -4   011483.03  510.29   1 0.00000 0.42020 0.68841 0.54551 0.72531 0.72514
   3  -4   011331.01  389.21   1-0.44406-0.02316-0.61640-0.75751-0.65027-0.65240
   3  -4   184451.68 1449.75   1 0.00000 0.40659 0.48430 0.29839 0.87489 0.86350
   3  -4   182912.66 1352.94   1-0.51147-0.10392-0.53907-0.72327-0.66917-0.68269
   3  -4   2123125.1 1849.69   1-0.57102-0.17690-0.45921-0.68654-0.68047-0.70523
  -3   4  -2114673.8 1872.75   1-0.23077-0.62497-0.79572-0.56844-0.55996-0.53504
  -3   4  -3   53.19   45.65   1 0.00000-0.38131-0.50614-0.23690 0.86244 0.89357
   3  -4   3  163.10   78.23   1 0.00000 0.37923 0.28916 0.01647 0.95727 0.92515
   3  -4   3  160.39   63.98   1-0.62234-0.24156-0.37898-0.64937-0.68488-0.72108
  -3   4  -3  333.96  101.87   1-0.29907-0.67991-0.74747-0.47711-0.59316-0.55684
  -3   4  -4  100.16   50.09   1 0.00000-0.36803-0.49416-0.18190 0.86936 0.91184
   3  -4   4   66.58   74.36   1 0.00000 0.36559 0.23892-0.07668 0.97103 0.92761
   3  -4   4   86.69   75.58   1-0.66541-0.29798-0.30044-0.61389-0.68334-0.73098
  -3   4  -4  101.19   77.42   1-0.35696-0.72445-0.70018-0.38674-0.61831-0.57060
  -3   4  -5 2953.88  212.05   1 0.00000-0.35474-0.49083-0.13556 0.87125 0.92508
   3  -4   5 3549.75  278.29   1 0.00000 0.35194 0.20684-0.15168 0.97837 0.92364
   3  -4   5 4500.14  278.53   1-0.70082-0.34674-0.22487-0.58139-0.67695-0.73603
  -3   4  -5 4732.84  358.33   1-0.40512-0.75926-0.65588-0.29936-0.63693-0.57783
  -3   4  -621238.48  514.30   1 0.00000-0.34146-0.49321-0.09493 0.86990 0.93508
   3  -4   621185.35  617.28   1 0.00000 0.33830 0.18712-0.21431 0.98233 0.91630
   3  -4   624032.62  663.04   1-0.79306-0.45512-0.39751-0.79936 0.46155 0.39227
   3  -4   620880.30  515.30   1-0.72940-0.38867-0.15304-0.55262-0.66673-0.73724
  -3   4  -620562.78  584.36   1-0.44464-0.78543-0.61578-0.21618-0.65046-0.57996
  -3   4  -7  475.27   96.84   1 0.00000-0.32817-0.49955-0.05825 0.86628 0.94281
   3  -4   7  725.07  112.08   1 0.00000 0.32466 0.17620-0.26815 0.98435 0.90702
   3  -4   7  339.40  101.25   1-0.80122-0.47697-0.32685-0.77175 0.50120 0.42057
   3  -4   7  342.33   78.06   1-0.75205-0.42466-0.08525-0.52790-0.65356-0.73550
  -3   4  -7  435.17  105.97   1-0.47670-0.80413-0.58049-0.13781-0.66013-0.57824
  -3   4  -8   97.59   60.64   1 0.00000-0.31489-0.50872-0.02441 0.86092 0.94881
   3  -4   8  219.02  107.65   1 0.00000 0.31102 0.17176-0.31550 0.98513 0.89650
   3  -4   8  686.02  105.81   1-0.80402-0.49346-0.26096-0.74891 0.53427 0.44228
   3  -4   8  748.27  103.31   1-0.76961-0.45557-0.02155-0.50726-0.63814-0.73152
  -3   4  -8  681.94  110.96   1-0.50244-0.81653-0.55016-0.06440-0.66698-0.57369
  -3   4  -9101654.6 1067.92   1 0.00000-0.30160-0.52000 0.00732 0.85416 0.95340
   3  -4   9104953.0 1367.91   1 0.00000 0.29737 0.17224-0.35794 0.98505 0.88512
   3  -4   9106398.7 1280.78   1-0.80276-0.50589-0.19960-0.73060 0.56189 0.45856
   3  -4   9106190.3 1088.85   1-0.78285-0.48215 0.03820-0.49057-0.62103-0.72585
  -3   4  -9106098.6 1349.52   1-0.52302-0.82372-0.52452 0.00424-0.67180-0.56697
  -3   4 -1055634.30  815.20   1 0.00000-0.28832-0.53285 0.03748 0.84620 0.95679
   3  -4  1054353.80  900.51   1 0.00000 0.28373 0.17654-0.39656 0.98429 0.87305
   3  -4  1058817.26 1075.90   1-0.79839-0.51521-0.14239-0.71645 0.58505 0.47036
   3  -4  1058330.37  734.95   1-0.79241-0.50506 0.09426-0.47757-0.60265-0.71891
  -3   4 -1056467.65 1140.08   1-0.53908-0.82644-0.50357 0.06826-0.67512-0.55886
  -3   4 -11  943.40  123.30   1 0.00000-0.27503-0.54690 0.06644 0.83719 0.95913
   3  -4  11 1024.28  138.08   1 0.00000 0.27009 0.18388-0.43213 0.98294 0.86040
   3  -4  11  835.75  154.37   1-0.79162-0.52213-0.08889-0.70600 0.60451 0.47847
   3  -4  11 1119.32  102.29   1-0.79885-0.52484 0.14692-0.46798-0.58331-0.71100
  -3   4 -11  826.01  141.80   1-0.55146-0.82547-0.48682 0.12807-0.67740-0.54970
  -3   4 -12  940.33  113.67   1 0.00000-0.26175-0.56189 0.09446 0.82720 0.96050
   3  -4  12  892.52  139.55   1 0.00000 0.25645 0.19370-0.46524 0.98106 0.84722
   3  -4  12  487.46  115.82   1-0.78294-0.52714-0.03865-0.69881 0.62089 0.48350
  -3   4 -12  350.08  134.87   1-0.56075-0.82141-0.47390 0.18406-0.67895-0.53981
  -3   4 -13  647.81   98.84   1 0.00000-0.24846-0.57761 0.12176 0.81630 0.96095
   3  -4  13  577.49  147.10   1 0.00000 0.24281 0.20555-0.49630 0.97864 0.83350
   3  -4  13  250.05  136.24   1-0.77272-0.53061 0.00872-0.69448 0.63468 0.48594
  -3   4 -13  230.11  108.23   1-0.56740-0.81472-0.46443 0.23659-0.67996-0.52938
  -3   4 -14 1982.64  164.43   1 0.00000-0.23517-0.59389 0.14849 0.80454 0.96054
   3  -4  14 1561.16  220.25   1-0.76122-0.53280 0.05362-0.69263 0.64626 0.48618
  -3   4 -15 3000.18  203.31   1 0.00000-0.22189-0.61061 0.17478 0.79192 0.95927
  -3   4 -16 5973.07  356.56   1 0.00000-0.20860-0.62768 0.20074 0.77847 0.95717
  -3   4 -17 6014.60  299.16   1 0.00000-0.19532-0.64499 0.22643 0.76418 0.95424
   3  -3 -18  149.99   96.74   1 0.00000 0.57962-0.86706-0.23554 0.49818 0.78010
  -3   3  18   45.95  101.93   1 0.00000-0.58522 0.21257-0.41393 0.97714 0.69725
   3  -3 -18  -61.78  109.00   1-0.80002-0.21337-0.15966 0.46943 0.57832 0.85679
   3  -3 -17 4448.46  289.34   1 0.00000 0.56633-0.86199-0.27348 0.50691 0.77747
  -3   3  17 4095.46  308.72   1 0.00000-0.57158 0.18087-0.40272 0.98350 0.71491
   3  -3 -17 3686.71  283.54   1-0.79646-0.22350-0.12496 0.46108 0.59162 0.85874
   3  -3 -1614184.85  633.43   1 0.00000 0.55305-0.85842-0.31292 0.51293 0.77214
  -3   3  1611126.50  565.89   1 0.00000-0.55794 0.14887-0.39179 0.98885 0.73156
   3  -3 -1614044.25  689.68   1-0.79165-0.23237-0.08908 0.45390 0.60444 0.86021
   3  -3 -15  402.04  108.36   1 0.00000 0.53976-0.85670-0.35422 0.51580 0.76366
  -3   3  15  548.60  133.96   1 0.00000-0.54430 0.11643-0.38132 0.99319 0.74721
   3  -3 -15  455.40  108.90   1-0.78543-0.23984-0.05182 0.44812 0.61677 0.86119
  -3   3  15  253.02  130.78   1-0.35940-0.90525 0.69805 0.19722 0.61931 0.37633
   3  -3 -1435452.53  839.44   1 0.00000 0.52648-0.85725-0.39779 0.51488 0.75138
  -3   3  1431788.72  837.12   1 0.00000-0.53065 0.08335-0.37149 0.99651 0.76183
   3  -3 -1434615.34  712.91   1-0.77762-0.24573-0.01287 0.44401 0.62859 0.86166
  -3   3  1434006.75  880.89   1-0.35767-0.88984 0.69956 0.24184 0.61861 0.38688
   3  -3 -1362510.18  882.52   1 0.00000 0.51319-0.86061-0.44415 0.50925 0.73440
   3  -3 -1362831.98  992.43   1-0.76798-0.24977 0.02808 0.44192 0.63985 0.86157
  -3   3  1365100.03 1473.03   1-0.35297-0.87147 0.70364 0.28904 0.61668 0.39621
   3  -3 -1278765.05 1138.95   1 0.00000 0.49991-0.86740-0.49396 0.49760 0.71140
  -3   3  1279253.22 1349.15   1 0.00000-0.50337 0.01411-0.35490 0.99989 0.78781
   3  -3 -1278622.36 1261.95   1-0.75615-0.25163 0.07149 0.44229 0.65047 0.86084
  -3   3  1279156.53 1419.30   1-0.34469-0.84951 0.71072 0.33924 0.61323 0.40402
   3  -3 -1110235.93  361.40   1 0.00000 0.48662-0.87838-0.54795 0.47795 0.68039
  -3   3  1112745.25  451.24   1 0.00000-0.48973-0.02294-0.34903 0.99973 0.79895
   3  -3 -11 9532.31  375.46   1-0.74166-0.25083 0.11790 0.44565 0.66032 0.85934
  -3   3  11 9957.00  457.26   1-0.33200-0.82315 0.72132 0.39296 0.60782 0.40988
   3  -3 -1015155.18  443.93   1 0.00000 0.47334-0.89438-0.60697 0.44728 0.63838
  -3   3  1013618.17  510.93   1 0.00000-0.47609-0.06260-0.34578 0.99803 0.80856
   3  -3 -1015699.18  513.53   1-0.72385-0.24671 0.16799 0.45268 0.66918 0.85685
  -3   3  1016863.34  706.04   1-0.31380-0.79127 0.73601 0.45076 0.59983 0.41314
  -3   3   9  571.86  118.82   1 0.00000-0.46244-0.10614-0.34641 0.99435 0.81617
  -3   3   9  185.29   65.68   1 0.00000-0.46221 0.91665 0.67442-0.39968-0.57577
   3  -3  -9  186.58   87.93   1-0.70179-0.23834 0.22263 0.46427 0.67669 0.85301
  -3   3   9   50.71  135.63   1-0.28860-0.75240 0.75537 0.51324 0.58831 0.41288
  -3   3   8 3215.93  264.67   1 0.00000-0.44880-0.15570-0.35305 0.98780 0.82093
  -3   3   8 3615.99  285.68   1 0.00000-0.44865 0.94464 0.74549-0.32808-0.49290
   3  -3  -8 3593.78  293.20   1-0.67351-0.22339 0.28417 0.48319 0.68236 0.84653
  -3   3   8 3462.67  293.62   1-0.25440-0.70452 0.77990 0.58088 0.57186 0.40769
  -3   3   774348.11 1470.31   1 0.00000-0.43504 0.97561 0.81948-0.21949-0.37306
   3  -3  -772415.06 1353.73   1-0.63830-0.20186 0.35126 0.50716 0.68496 0.83787
  -3   3   776000.01 1626.73   1-0.20854-0.64499 0.80979 0.65389 0.54839 0.39548
  -3   3   6109515.2 1762.43   1 0.00000-0.42152-0.29171-0.40322 0.95650 0.81223
  -3   3   6115298.1 1921.56   1 0.00000-0.42144 0.99857 0.88547-0.05345-0.19577
   3  -3  -6112836.0 1810.73   1-0.59282-0.17006 0.42662 0.53940 0.68304 0.82469
  -3   3   6109561.6 1888.89   1-0.14771-0.57047 0.84441 0.73164 0.51492 0.37315
  -3   3   5283434.8 3887.62   1 0.00000-0.40783 0.98092 0.91085 0.19436 0.06329
   3  -3  -5297109.1 3965.33   1-0.53316-0.12407 0.51140 0.58107 0.67394 0.80433
  -3   3   5295824.1 4140.05   1-0.06783-0.47690 0.88160 0.81195 0.46709 0.33659
  -3   3   4  106.50   47.22   1 0.00000-0.39362-0.55997-0.58931 0.82850 0.70552
  -3   3   4  753.70  125.10   1 0.00000-0.39459 0.85424 0.82727 0.51986 0.39989
   3  -3  -4  761.79  107.05   1-0.45408-0.05867 0.60566 0.63221 0.65343 0.77256
  -3   3   3 1972.08  202.37   1 0.00000-0.38034-0.79451-0.78083 0.60723 0.49561
  -3   3   3 1930.75  193.11   1 0.00000-0.38098 0.58716 0.60319 0.80946 0.70071
   3  -3  -3 2005.45  208.78   1-0.34969 0.03204 0.70646 0.68989 0.61532 0.72319
   3  -3  -3 2022.76  183.69   1-0.10170 0.27941-0.86695-0.88165-0.48789-0.38027
  -3   3   2  499.76  107.74   1 0.00000-0.36695 0.32598 0.38613 0.94537 0.84631
   3  -3  -2  665.68  119.77   1 0.00000 0.36701 0.98711 0.92809-0.16003-0.06270
   3  -3  -2  694.78  117.39   1-0.21596 0.15210 0.80519 0.74550 0.55229 0.64890
   3  -3  -2  748.88  112.19   1-0.18927 0.17849-0.82137-0.87915-0.53807-0.44184
  -3   3   1 3226.16  235.01   1 0.00000-0.35330 0.14769 0.25075 0.98903 0.90127
   3  -3  -1 3046.49  255.50   1 0.00000 0.35341 0.95351 0.85147 0.30135 0.38742
   3  -3  -1 3100.66  267.64   1-0.05611 0.29822 0.88628 0.78347 0.45972 0.54518
   3  -3  -1 2710.74  201.31   1-0.27897 0.07544-0.76248-0.86334-0.58377-0.49894
  -3   3   084891.43 1254.10   1 0.00000-0.33966 0.03525 0.18123 0.99937 0.92291
   3  -3   086786.39 1476.67   1 0.00000 0.34013 0.80075 0.65569 0.59899 0.67407
   3  -3   083021.82 1328.99   1-0.36671-0.02564-0.69159-0.83553-0.62226-0.54883
  -3   3  -1 7009.35  299.51   1 0.00000-0.32602-0.04241 0.14648 0.99910 0.93394
   3  -3   1 6546.67  314.48   1 0.00000 0.32651 0.64717 0.45910 0.76234 0.82620
   3  -3   1 6097.66  290.66   1-0.44868-0.12096-0.61148-0.79850-0.65174-0.58970
  -3   3  -1 6826.45  369.19   1-0.15736-0.48507-0.83929-0.65227-0.52040-0.58244
  -3   3  -2309259.0 3522.85   1 0.00000-0.31238-0.10152 0.13029 0.99483 0.94097
   3  -3   2290842.0 3404.64   1 0.00000 0.31289 0.52697 0.29589 0.84988 0.90251
   3  -3   2306089.8 3404.11   1-0.52220-0.20796-0.52557-0.75580-0.67162-0.62089
  -3   3  -2300315.6 3438.44   1-0.24099-0.55535-0.78899-0.55889-0.56516-0.61580
   3  -3   350675.41  973.57   1 0.00000 0.29928 0.43930 0.16522 0.89833 0.93975
   3  -3   352569.51  916.95   1-0.58557-0.28468-0.43768-0.71098-0.68229-0.64300
  -3   3  -349850.30 1030.29   1-0.31320-0.61421-0.73649-0.46331-0.59956-0.63881
  -3   3  -4 1067.66  118.54   1 0.00000-0.28509-0.19174 0.12590 0.98144 0.95019
   3  -3   4  724.53  103.04   1 0.00000 0.28509 0.37933 0.06168 0.92525 0.95651
   3  -3   4  741.29  103.89   1-0.79521-0.50973-0.38287-0.70089 0.47014 0.49891
   3  -3   4  673.47   95.84   1-0.63863-0.35108-0.35068-0.66705-0.68495-0.65710
  -3   3  -4  524.89   99.65   1-0.37380-0.66146-0.68523-0.36896-0.62508-0.65293
  -3   3  -5  175.59   73.63   1 0.00000-0.27145-0.22916 0.13140 0.97338 0.95343
   3  -3   5  139.77   75.78   1 0.00000 0.27145 0.33514-0.02541 0.94216 0.96211
   3  -3   5  221.21   98.35   1-0.80307-0.53128-0.29631-0.65738 0.51698 0.53440
   3  -3   5  217.13   86.15   1-0.68193-0.40774-0.26667-0.62609-0.68106-0.66464
  -3   3  -5  349.90  108.16   1-0.42360-0.69791-0.63758-0.27823-0.64346-0.65992
  -3   3  -6 3127.37  230.66   1 0.00000-0.25781-0.26352 0.13995 0.96465 0.95600
   3  -3   6 2983.91  260.81   1 0.00000 0.25781 0.30461-0.09886 0.95247 0.96112
   3  -3   6 3013.02  253.63   1-0.80359-0.54549-0.22040-0.62452 0.55286 0.55892
   3  -3   6 2829.76  205.46   1-0.71653-0.45568-0.18690-0.58938-0.67204-0.66706
  -3   3  -6 2441.88  223.19   1-0.46387-0.72483-0.59492-0.19249-0.65641-0.66148
  -3   3  -715584.45  490.23   1 0.00000-0.24417-0.29566 0.15073 0.95529 0.95794
   3  -3   719488.16  575.54   1 0.00000 0.24417 0.28428-0.16210 0.95874 0.95608
   3  -3   720698.41  640.68   1-0.79947-0.55506-0.15341-0.60058 0.58078 0.57550
   3  -3   720034.27  524.02   1-0.74362-0.49612-0.11196-0.55752-0.65915-0.66560
  -3   3  -720232.58  762.07   1-0.49606-0.74366-0.55785-0.11234-0.66536-0.65904
  -3   3  -8 5329.62  249.36   1 0.00000-0.23052-0.32612 0.16319 0.94532 0.95928
   3  -3   8 5504.26  316.75   1 0.00000 0.23052 0.27171-0.21759 0.96237 0.94842
   3  -3   8 5293.55  309.66   1-0.79232-0.56161-0.09367-0.58389 0.60285 0.58622
   3  -3   8 3980.03  205.52   1-0.76437-0.53021-0.04200-0.53062-0.64340-0.66129
  -3   3  -8 4873.58  293.99   1-0.52151-0.75576-0.52645-0.03786-0.67146-0.65374
  -3   3  -9290054.8 3103.97   1 0.00000-0.21688-0.35526 0.17696 0.93476 0.96002
   3  -3   9296316.7 3228.00   1 0.00000 0.21688 0.26514-0.26707 0.96420 0.93895
   3  -3   9304614.5 3359.37   1-0.78315-0.56612-0.03975-0.57302 0.62055 0.59256
   3  -3   9292373.6 3032.06   1-0.77981-0.55900 0.02314-0.50853-0.62558-0.65491
  -3   3  -9283164.6 3228.92   1-0.54163-0.76244-0.50017 0.03150-0.67561-0.64628
   3  -3  10124885.3 1398.86   1 0.00000 0.20324 0.26332-0.31182 0.96470 0.92814
   3  -3  10107741.1 1376.05   1-0.77254-0.56920 0.00947-0.56685 0.63488 0.59555
   3  -3  10109024.0 1019.39   1-0.79084-0.58337 0.08379-0.49095-0.60625-0.64702
  -3   3 -10107353.2 1556.21   1-0.55697-0.76444-0.47920 0.09554-0.67834-0.63757
  -3   3 -11  -16.15   80.62   1 0.00000-0.19434-0.41045 0.20541 0.91187 0.95918
   3  -3  11   72.41   79.77   1 0.00000 0.18960 0.26530-0.35275 0.96416 0.91630
   3  -3  11   18.53  104.04   1-0.76086-0.57121 0.05491-0.56446 0.64657 0.59589
   3  -3  11   12.45   84.90   1-0.79817-0.60405 0.14031-0.47749-0.58585-0.63805
  -3   3 -11   -7.56  112.52   1-0.56855-0.76267-0.46278 0.15502-0.68012-0.62792
  -3   3 -12   53.18   91.27   1 0.00000-0.18106-0.43700 0.22188 0.89945 0.95811
   3  -3  12  -70.80  104.06   1 0.00000 0.17596 0.27038-0.39059 0.96275 0.90359
   3  -3  12   40.26   81.16   1-0.74834-0.57238 0.09725-0.56516 0.65613 0.59410
  -3   3 -12   32.08   99.80   1-0.57701-0.75779-0.45045 0.21041-0.68127-0.61763
  -3   3 -13 8592.34  317.06   1 0.00000-0.16777-0.46290 0.23899 0.88640 0.95641
   3  -3  13 8789.13  412.81   1 0.00000 0.16231 0.27802-0.42586 0.96057 0.89010
   3  -3  1310309.75  508.02   1-0.73512-0.57285 0.13706-0.56841 0.66393 0.59055
  -3   3 -13 9891.17  419.77   1-0.58285-0.75028-0.44177 0.26216-0.68198-0.60690
  -3   3 -14 7648.22  333.71   1 0.00000-0.15449-0.48824 0.25667 0.87270 0.95406
   3  -3  14 7274.95  391.89   1 0.00000 0.14867 0.28782-0.45898 0.95768 0.87591
   3  -3  14 7148.01  400.98   1-0.72127-0.57269 0.17476-0.57376 0.67023 0.58550
  -3   3 -14 6352.30  348.76   1-0.58646-0.74055-0.43634 0.31066-0.68239-0.59587
  -3   3 -15 2099.29  187.73   1 0.00000-0.14120-0.51307 0.27485 0.85834 0.95105
  -3   3 -1611638.85  409.26   1 0.00000-0.12792-0.53744 0.29349 0.84329 0.94736
  -3   3 -1711692.04  451.31   1 0.00000-0.11463-0.56140 0.31255 0.82753 0.94295
   3  -2 -19 1211.14  146.71   1 0.00000 0.51222-0.88589-0.21387 0.46389 0.83179
   3  -2 -18 1291.02  217.28   1 0.00000 0.49893-0.88130-0.25229 0.47255 0.82910
  -3   2  18  187.49  109.33   1 0.00000-0.50473 0.04979-0.57467 0.99875 0.64419
   3  -2 -18  755.72  174.12   1-0.80393-0.29711-0.26786 0.35896 0.53097 0.88479
   3  -2 -1720954.14  541.94   1 0.00000 0.48565-0.87794-0.29195 0.47875 0.82395
   3  -2 -1720884.60  590.48   1-0.80400-0.31088-0.24049 0.34328 0.54381 0.88628
   3  -2 -1610549.64  479.75   1 0.00000 0.47236-0.87606-0.33308 0.48219 0.81604
  -3   2  1611578.87  630.84   1 0.00000-0.47745-0.03274-0.57138 0.99946 0.66749
   3  -2 -16 9831.33  449.20   1-0.80333-0.32389-0.21265 0.32807 0.55626 0.88738
  -3   2  16 9023.23  568.18   1-0.46405-0.94365 0.59473 0.05288 0.65646 0.32667
   3  -2 -15 6718.07  300.54   1 0.00000 0.45908-0.87594-0.37597 0.48242 0.80491
  -3   2  15 4890.69  305.40   1 0.00000-0.46381-0.07641-0.57213 0.99707 0.67641
   3  -2 -15 6714.12  351.70   1-0.80188-0.33614-0.18424 0.31343 0.56835 0.88812
  -3   2  15 6435.44  392.87   1-0.47035-0.93628 0.58768 0.08895 0.65832 0.33978
   3  -2 -14  590.83   96.36   1 0.00000 0.44579-0.87790-0.42095 0.47883 0.78997
  -3   2  14  113.66  110.08   1 0.00000-0.45016-0.12222-0.57503 0.99250 0.68314
   3  -2 -14  540.04  125.09   1-0.79962-0.34757-0.15512 0.29950 0.58011 0.88853
  -3   2  14  656.54  188.54   1-0.47496-0.92722 0.58246 0.12685 0.65964 0.35237
   3  -2 -13104305.5 1506.71   1 0.00000 0.43250-0.88233-0.46839 0.47062 0.77041
  -3   2  13100137.3 1491.92   1 0.00000-0.43652-0.17072-0.58061 0.98531 0.68725
   3  -2 -1395314.55 1383.09   1-0.79648-0.35811-0.12510 0.28647 0.59157 0.88864
  -3   2  1396761.47 1570.86   1-0.47758-0.91616 0.57948 0.16698 0.66038 0.36436
   3  -2 -1252049.96  905.09   1 0.00000 0.41922-0.88963-0.51871 0.45667 0.74510
   3  -2 -1248718.57  836.10   1-0.79236-0.36769-0.09394 0.27458 0.60276 0.88848
  -3   2  1248489.78  994.02   1-0.47776-0.90266 0.57927 0.20989 0.66043 0.37568
   3  -2 -11 1445.27  142.72   1 0.00000 0.40593-0.90022-0.57231 0.43542 0.71250
   3  -2 -11 1029.44  132.15   1-0.78712-0.37614-0.06129 0.26417 0.61373 0.88810
  -3   2  11 1148.70  196.47   1-0.47490-0.88612 0.58254 0.25627 0.65962 0.38613
  -3   2  1030026.18  748.32   1 0.00000-0.39559-0.34044-0.62159 0.94026 0.67610
  -3   2  1024553.61  634.05   1 0.00000-0.39579 0.91477 0.63167-0.40397-0.66658
   3  -2 -1024176.81  627.55   1-0.78055-0.38325-0.02670 0.25571 0.62452 0.88753
  -3   2  1026738.51  717.88   1-0.46809-0.86564 0.59022 0.30707 0.65766 0.39542
  -3   2   9  388.50  102.28   1 0.00000-0.37936-0.40797-0.64985 0.91299 0.65861
  -3   2   9  805.32  131.55   1 0.00000-0.38224 0.93294 0.69291-0.36002-0.61135
   3  -2  -9  739.74  128.16   1-0.77230-0.38869 0.01050 0.24987 0.63516 0.88683
  -3   2   9  719.08  118.76   1-0.45599-0.83987 0.60358 0.36355 0.65402 0.40304
  -3   2   8 5486.44  340.15   1 0.00000-0.36608-0.48430-0.68316 0.87490 0.63187
  -3   2   8 6287.76  387.95   1 0.00000-0.36863 0.95422 0.75721-0.29909-0.53918
   3  -2  -8 5520.48  330.25   1-0.76185-0.39193 0.05133 0.24766 0.64571 0.88603
  -3   2   8 6544.65  441.84   1-0.43650-0.80670 0.62433 0.42742 0.64781 0.40809
  -3   2   7 9818.33  393.82   1 0.00000-0.35279-0.57095-0.72681 0.82097 0.58930
  -3   2   711375.80  420.97   1 0.00000-0.35503 0.97652 0.82254-0.21541-0.44426
   3  -2  -710942.42  388.97   1-0.74831-0.39208 0.09736 0.25063 0.65615 0.88512
  -3   2   711916.76  472.08   1-0.40625-0.76277 0.65478 0.50098 0.63734 0.40888
  -3   2   645903.45  954.06   1 0.00000-0.33951-0.66899-0.78182 0.74327 0.52294
  -3   2   641588.48  935.64   1 0.00000-0.34142 0.99475 0.88381-0.10225-0.31985
   3  -2  -641019.18  913.71   1-0.73012-0.38758 0.15109 0.26131 0.66640 0.88402
  -3   2   641056.87  962.45   1-0.35961-0.70246 0.69786 0.58717 0.61940 0.40220
  -3   2   526675.87  688.61   1 0.00000-0.32782 0.99894 0.93102 0.04595-0.16038
   3  -2  -526524.01  671.00   1-0.70427-0.37543 0.21680 0.28397 0.67600 0.88227
  -3   2   526768.95  807.23   1-0.28695-0.61612 0.75660 0.68903 0.58754 0.38159
  -3   2   4 5909.57  309.47   1 0.00000-0.31294-0.88357-0.91038 0.46828 0.27066
  -3   2   4 5748.39  315.50   1 0.00000-0.31421 0.97367 0.94878 0.22795 0.03285
   3  -2  -4 4668.74  251.23   1-0.66402-0.34853 0.30316 0.32762 0.68348 0.87817
  -3   2   4 5349.02  359.90   1-0.17201-0.48745 0.83126 0.80681 0.52860 0.33381
  -3   2   3 1549.49  170.76   1 0.00000-0.30090 0.90364 0.92184 0.42827 0.24427
   3  -2  -3 1693.20  166.29   1 0.00000 0.30061 0.97005 0.95191-0.24288-0.05903
   3  -2  -3 1503.94  150.60   1-0.59650-0.29468 0.42091 0.40225 0.68338 0.86680
  -3   2   214229.32  624.74   1 0.00000-0.28728 0.78829 0.84949 0.61529 0.44251
   3  -2  -215479.16  666.27   1 0.00000 0.28700 0.99982 0.93866 0.01856 0.19115
   3  -2  -214606.96  628.77   1-0.46884-0.18070 0.58939 0.52761 0.65788 0.83004
   3  -2  -215145.62  639.72   1-0.09571 0.19221-0.86966-0.93027-0.48427-0.31248
  -3   2   1  665.71  118.97   1 0.00000-0.27366 0.64631 0.75052 0.76307 0.60151
   3  -2  -1  663.40  126.98   1 0.00000 0.27340 0.96146 0.85726 0.27493 0.43628
   3  -2  -1  732.01  127.60   1-0.22597 0.04849 0.79883 0.69393 0.55749 0.71840
   3  -2  -1  735.34  135.00   1-0.19597 0.07861-0.81741-0.92110-0.54168-0.38129
  -3   2   046551.93  998.64   1 0.00000-0.26005 0.50270 0.64992 0.86445 0.71412
   3  -2   045828.37 1015.12   1 0.00000 0.26005 0.87479 0.72757 0.48449 0.63482
   3  -2   043881.83  952.13   1-0.29723-0.03600-0.74887-0.89564-0.59232-0.44331
  -3   2  -114248.41  591.63   1 0.00000-0.24553 0.37452 0.56545 0.92721 0.78738
   3  -2   115296.70  608.87   1 0.00000 0.24643 0.77116 0.58094 0.63663 0.77574
   3  -2   115534.14  627.47   1-0.79540-0.54869-0.38151-0.57264 0.47093 0.60910
   3  -2   112204.70  510.18   1-0.39401-0.14613-0.66652-0.85637-0.63284-0.49523
  -3   2  -115660.13  668.82   1-0.13507-0.38295-0.85091-0.66106-0.50763-0.64524
  -3   2  -2437493.7 4642.51   1 0.00000-0.23189 0.26305 0.49690 0.96478 0.83624
   3  -2   2443311.9 4768.63   1 0.00000 0.23281 0.67329 0.44006 0.73937 0.86725
   3  -2   2466765.2 4996.67   1-0.80396-0.57094-0.23732-0.47151 0.54526 0.67208
   3  -2   2420794.5 4643.30   1-0.48171-0.24718-0.57473-0.80766-0.66153-0.53532
  -3   2  -2456263.8 5207.95   1-0.22623-0.46076-0.79866-0.56573-0.55763-0.68384
  -3   2  -389640.20 1318.53   1 0.00000-0.21825 0.16826 0.44503 0.98574 0.86851
   3  -2   385654.46 1398.74   1 0.00000 0.21920 0.59054 0.31430 0.80700 0.92366
   3  -2   391978.88 1400.79   1-0.79786-0.57853-0.13730-0.41454 0.58699 0.70246
   3  -2   388212.87 1450.13   1-0.55785-0.33685-0.47796-0.75417-0.67848-0.56369
  -3   2  -389193.02 1583.16   1-0.30507-0.52624-0.74285-0.46684-0.59590-0.71071
  -3   2  -4  -46.02   75.28   1 0.00000-0.20460 0.08722 0.40690 0.99618 0.89025
   3  -2   4  217.07   73.02   1 0.00000 0.20558 0.52445 0.20519 0.85144 0.95688
   3  -2   4  109.99   74.14   1-0.78745-0.58182-0.06319-0.38348 0.61311 0.71723
   3  -2   4  105.68   64.19   1-0.62080-0.41314-0.38157-0.70084-0.68483-0.58148
  -3   2  -4  143.11   73.38   1-0.37094-0.57876-0.68781-0.36871-0.62395-0.72737
  -3   2  -512599.88  419.27   1 0.00000-0.19096 0.01699 0.37959 0.99985 0.90522
   3  -2   511943.18  429.66   1 0.00000 0.19197 0.47335 0.11109 0.88087 0.97509
   3  -2   511865.84  433.43   1-0.77577-0.58383-0.00452-0.36785 0.63098 0.72375
   3  -2   512788.03  403.91   1-0.67146-0.47715-0.28833-0.65066-0.68263-0.59072
  -3   2  -512482.80  488.42   1-0.42459-0.61907-0.63657-0.27440-0.64380-0.73583
  -3   2  -612859.94  395.08   1 0.00000-0.17732-0.04481 0.36069 0.99899 0.91567
   3  -2   614718.99  512.74   1 0.00000 0.17835 0.43480 0.02953 0.90052 0.98352
   3  -2   615485.71  521.41   1-0.76371-0.58545 0.04447-0.36191 0.64402 0.72544
   3  -2   614749.88  460.99   1-0.71120-0.53023-0.20017-0.60557-0.67388-0.59340
  -3   2  -614665.32  468.36   1-0.46750-0.64862-0.59088-0.18563-0.65748-0.73812
  -3   2  -710298.63  392.49   1 0.00000-0.16368-0.10006 0.34836 0.99498 0.92295
   3  -2   7 9550.37  436.94   1 0.00000 0.16473 0.40645-0.04182 0.91367 0.98545
   3  -2   710001.96  446.18   1-0.75150-0.58692 0.08708-0.36235 0.65395 0.72402
   3  -2   7 9725.76  343.23   1-0.74163-0.57401-0.11798-0.56644-0.66034-0.59130
  -3   2  -7 9870.51  415.02   1-0.50135-0.66913-0.55148-0.10314-0.66671-0.73595
   3  -2   818322.54  587.72   1 0.00000 0.15003 0.38631-0.10502 0.92236 0.98308
   3  -2   817227.55  568.57   1-0.73917-0.58829 0.12529-0.36719 0.66175 0.72046
   3  -2   816233.86  465.41   1-0.76437-0.61010-0.04196-0.53349-0.64339-0.58579
  -3   2  -816729.38  629.48   1-0.52812-0.68239-0.51796-0.02644-0.67290-0.73050
   3  -2   9235287.2 2762.84   1 0.00000 0.13639 0.37266-0.16159 0.92796 0.97738
   3  -2   9239929.1 1772.99   1-0.72672-0.58953 0.16035-0.37519 0.66795 0.71531
   3  -2   9232295.6 2445.20   1-0.78084-0.63991 0.02812-0.50646-0.62409-0.57792
  -3   2  -9234179.3 2852.68   1-0.54848-0.68941-0.49090 0.04368-0.67688-0.72304
  -3   2 -10  129.12  103.75   1 0.00000-0.12275-0.23876 0.33840 0.97107 0.93295
   3  -2  10  216.69   92.88   1 0.00000 0.12275 0.36440-0.21277 0.93124 0.96935
  -3   2 -10  313.21  105.62   1-0.78450-0.90800-0.44410 0.13448 0.43280 0.39679
   3  -2  10  183.62   82.71   1-0.71407-0.59057 0.19306-0.38552 0.67291 0.70893
   3  -2  10  296.15   94.08   1-0.79219-0.66461 0.09273-0.48492-0.60318-0.56845
  -3   2 -10  367.09  127.82   1-0.56395-0.69153-0.46936 0.10828-0.67944-0.71417
  -3   2 -11 2266.12  180.09   1 0.00000-0.10911-0.27869 0.34139 0.96038 0.93356
   3  -2  11 1891.72  219.86   1 0.00000 0.10911 0.36056-0.25953 0.93273 0.95955
  -3   2 -11 1905.86  175.53   1-0.78485-0.89466-0.44243 0.17920 0.43387 0.40921
   3  -2  11 1853.86  190.18   1-0.70120-0.59139 0.22400-0.39764 0.67685 0.70152
   3  -2  11 1995.53  142.30   1-0.79937-0.68514 0.15238-0.46833-0.58118-0.55789
  -3   2 -11 1466.92  155.84   1-0.57544-0.68968-0.45276 0.16795-0.68107-0.70436
  -3   2 -12 3829.77  212.62   1 0.00000-0.09547-0.31636 0.34664 0.94863 0.93312
   3  -2  12 3669.12  271.59   1 0.00000 0.09547 0.36038-0.30262 0.93280 0.94831
  -3   2 -12 3993.48  261.09   1-0.78448-0.88060-0.44420 0.22049 0.43274 0.41943
   3  -2  12 4347.81  283.30   1-0.68744-0.59077 0.25486-0.41054 0.68004 0.69458
  -3   2 -12 3928.45  257.88   1-0.58367-0.68456-0.44055 0.22322-0.68208-0.69393
  -3   2 -13 1887.58  150.96   1 0.00000-0.08182-0.35213 0.35379 0.93594 0.93173
   3  -2  13 1212.96  163.28   1 0.00000 0.08182 0.36327-0.34264 0.93168 0.93589
   3  -2  13  972.61  175.69   1-0.67392-0.59092 0.28334-0.42518 0.68230 0.68558
  -3   2 -13 1062.50  183.54   1-0.58918-0.67672-0.43221 0.27462-0.68268-0.68309
  -3   2 -14  745.34  119.18   1 0.00000-0.07380-0.38569 0.36174 0.92262 0.92935
   3  -2  14  384.40  114.16   1 0.00000 0.06818 0.36875-0.38008 0.92952 0.92243
   3  -2  14  283.29  122.03   1-0.66004-0.59071 0.31092-0.44072 0.68386 0.67588
  -3   2 -14  416.23   94.16   1-0.59240-0.66659-0.42728 0.32262-0.68300-0.67198
  -3   2 -15  619.04  135.13   1 0.00000-0.06052-0.41851 0.37193 0.90820 0.92628
   3  -2  15  402.62  126.53   1-0.64577-0.59012 0.33776-0.45699 0.68475 0.66551
  -3   2 -16 8863.57  376.28   1 0.00000-0.04723-0.45011 0.38334 0.89296 0.92239
  -3   2 -17  636.24  161.61   1 0.00000-0.03395-0.48064 0.39583 0.87691 0.91769
   3  -1 -19 3405.45  226.57   1 0.00000 0.43153-0.90345-0.23395 0.42868 0.87123
   3  -1 -19 3147.81  286.91   1-0.79205-0.35139-0.40383 0.26377 0.45778 0.89830
   3  -1 -18 1215.10  218.97   1 0.00000 0.41825-0.90051-0.27403 0.43481 0.86600
   3  -1 -18 1075.68  187.41   1-0.79497-0.36800-0.38458 0.23997 0.46915 0.89832
   3  -1 -17 6686.48  356.57   1 0.00000 0.40496-0.89877-0.31530 0.43840 0.85824
  -3   1  17 7471.21  378.26   1 0.00000-0.41060-0.12921-0.70873 0.99161 0.57367
   3  -1 -17 5980.19  317.32   1-0.79741-0.38412-0.36581 0.21569 0.47991 0.89773
   3  -1 -16 9248.44  460.19   1 0.00000 0.39168-0.89842-0.35797 0.43912 0.84761
   3  -1 -1610348.49  521.50   1-0.79939-0.39980-0.34759 0.19086 0.49003 0.89650
  -3   1  16 9275.60  569.79   1-0.56000-0.95969 0.47495-0.06479 0.67883 0.27348
   3  -1 -15 1128.48  134.51   1 0.00000 0.37839-0.89968-0.40224 0.43654 0.83367
  -3   1  15 1320.71  187.84   1 0.00000-0.38332-0.22610-0.71978 0.97410 0.57876
   3  -1 -15 1333.28  164.43   1-0.80097-0.41506-0.33004 0.16536 0.49951 0.89463
  -3   1  15  897.77  160.00   1-0.57134-0.95735 0.45876-0.03787 0.68052 0.28643
   3  -1 -14 4769.00  230.98   1 0.00000 0.36511-0.90277-0.44834 0.43011 0.81589
  -3   1  14 5696.15  326.12   1 0.00000-0.36967-0.27784-0.72861 0.96062 0.57658
   3  -1 -14 4176.69  264.40   1-0.80216-0.42994-0.31329 0.13906 0.50831 0.89208
  -3   1  14 4258.34  318.72   1-0.58185-0.95418 0.44328-0.01023 0.68186 0.29904
  -3   1  13  876.80  111.49   1 0.00000-0.35603-0.33230-0.74016 0.94317 0.57043
   3  -1 -13 2753.42  193.78   1-0.80301-0.44448-0.29754 0.11176 0.51636 0.88878
  -3   1  13 3207.33  259.33   1-0.59146-0.95012 0.42872 0.01832 0.68291 0.31134
  -3   1  1286950.37 1182.87   1 0.00000-0.33853-0.38918-0.75758 0.92115 0.55808
  -3   1  1293397.38 1212.34   1 0.00000-0.34298 0.91558 0.54859-0.40211-0.76249
   3  -1 -1293655.42 1253.36   1-0.80357-0.45873-0.28303 0.08321 0.52359 0.88466
  -3   1  1299736.88 1372.93   1-0.60007-0.94505 0.41532 0.04804 0.68368 0.32337
  -3   1  1139763.42  826.53   1 0.00000-0.32525-0.44997-0.77536 0.89304 0.54131
  -3   1  1139277.48  854.51   1 0.00000-0.32944 0.92558 0.60164-0.37854-0.72766
   3  -1 -1137861.28  816.59   1-0.80389-0.47274-0.27014 0.05305 0.52987 0.87959
  -3   1  1141849.28  982.43   1-0.60751-0.93881 0.40346 0.07929 0.68421 0.33516
  -3   1  10 1761.18  163.83   1 0.00000-0.31196-0.51476-0.79713 0.85733 0.51696
  -3   1  10 3299.80  233.61   1 0.00000-0.31583 0.93802 0.65711-0.34656-0.68442
   3  -1 -10 3027.62  195.72   1-0.80403-0.48657-0.25938 0.02077 0.53502 0.87339
  -3   1  10 3711.44  229.09   1-0.61354-0.93117 0.39364 0.11259 0.68454 0.34675
  -3   1   914934.19  476.93   1 0.00000-0.29868-0.58382-0.82318 0.81187 0.48285
  -3   1   914857.37  494.05   1 0.00000-0.30223 0.95265 0.71477-0.30406-0.63068
   3  -1  -914790.93  529.66   1-0.80406-0.50029-0.25152-0.01442 0.53871 0.86573
  -3   1   916223.82  599.84   1-0.61777-0.92172 0.38665 0.14871 0.68473 0.35820
  -3   1   8 8827.08  491.05   1 0.00000-0.28539-0.65706-0.85340 0.75383 0.43616
  -3   1   8 6948.01  308.21   1 0.00000-0.28862 0.96862 0.77377-0.24852-0.56388
   3  -1  -8 8125.61  480.01   1-0.80405-0.51398-0.24780-0.05375 0.54044 0.85611
  -3   1   8 7921.95  334.55   1-0.61954-0.90982 0.38368 0.18886 0.68479 0.36952
  -3   1   747983.35 1003.10   1 0.00000-0.27211-0.73357-0.88691 0.67960 0.37328
  -3   1   740745.85  926.66   1 0.00000-0.27502 0.98420 0.83238-0.17703-0.48114
   3  -1  -740523.15  866.79   1-0.80406-0.52767-0.25025-0.09925 0.53930 0.84362
  -3   1   744266.14 1059.15   1-0.61772-0.89432 0.38673 0.23503 0.68473 0.38071
  -3   1   619284.57  536.65   1 0.00000-0.25882-0.81103-0.92135 0.58499 0.29003
  -3   1   618532.23  594.78   1 0.00000-0.26141 0.99622 0.88743-0.08676-0.37963
   3  -1  -618549.09  525.98   1-0.80400-0.54130-0.26253-0.15458 0.53352 0.82649
  -3   1   620007.36  611.27   1-0.61005-0.87298 0.39933 0.29075 0.68436 0.39161
  -3   1   5624496.4 3156.55   1 0.00000-0.24554-0.88476-0.95206 0.46604 0.18243
  -3   1   5591498.5 6056.49   1 0.00000-0.24781 0.99971 0.93394 0.02405-0.25756
   3  -1  -5576481.5 5894.64   1-0.80325-0.55424-0.29198-0.22708 0.51915 0.80077
  -3   1   5601776.1 3176.99   1-0.59164-0.84088 0.42845 0.36298 0.68292 0.40143
  -3   1   427317.78  713.27   1 0.00000-0.23420 0.98799 0.96525 0.15448-0.11587
   3  -1  -428283.81  726.08   1 0.00000 0.23420 0.94831 0.97105-0.31733-0.04696
   3  -1  -428227.26  687.52   1-0.79856-0.56324-0.35566-0.33381 0.48559 0.75585
  -3   1   428231.13  722.96   1-0.54927-0.78484 0.48983 0.46748 0.67702 0.40678
  -3   1   3 1486.56  145.56   1 0.00000-0.22060 0.95425 0.97454 0.29898 0.03986
   3  -1  -3 1553.99  152.73   1 0.00000 0.22060 0.98916 0.96887-0.14680 0.11231
  -3   1   3 1466.65  199.53   1-0.43279-0.65469 0.62818 0.64894 0.64658 0.38760
  -3   1   212757.49  530.63   1 0.00000-0.20720 0.89445 0.95781 0.44714 0.19912
   3  -1  -213113.98  616.22   1 0.00000 0.20699 0.99932 0.93600 0.03682 0.28469
  -3   1   118672.82  717.06   1 0.00000-0.19359 0.81064 0.91700 0.58554 0.34873
   3  -1  -117880.15  717.03   1 0.00000 0.19339 0.97607 0.86972 0.21744 0.45406
   3  -1  -117886.99  726.05   1-0.12735 0.06739-0.85477-0.96128-0.50313-0.26717
  -3   1   0158286.9 2384.27   1 0.00000-0.17997 0.71000 0.85938 0.70419 0.47860
   3  -1   0152165.9 2363.84   1 0.00000 0.17978 0.92525 0.77587 0.37935 0.60472
   3  -1   0152049.3 2271.56   1-0.24164-0.06024-0.78855-0.93815-0.56549-0.34092
  -3   1  -146187.62  991.07   1 0.00000-0.16635 0.60209 0.79447 0.79842 0.58406
   3  -1   144669.42 1000.78   1 0.00000 0.16635 0.85865 0.66626 0.51255 0.72692
   3  -1   144525.14 1026.06   1-0.43168-0.26449 0.62933 0.43610 0.64621 0.86014
   3  -1   143367.83  914.38   1-0.35346-0.18541-0.70322-0.89590-0.61688-0.40371
  -3   1  -2189288.9 2292.23   1 0.00000-0.15274 0.49495 0.73034 0.86891 0.66577
   3  -1   2183207.9 2483.63   1 0.00000 0.15274 0.78715 0.55175 0.61675 0.81989
  -3   1  -2184075.6 2338.37   1-0.79842-0.95160-0.35692-0.12047 0.48488 0.28271
   3  -1   2183991.5 2444.34   1-0.56182-0.40830 0.47238 0.23604 0.67911 0.88179
   3  -1   2188817.9 2321.01   1-0.45579-0.30110-0.60380-0.83956-0.65396-0.45218
  -3   1  -2182833.0 2383.87   1-0.17850-0.33320-0.82759-0.59183-0.53219-0.73396
  -3   1  -3151616.4 2163.64   1 0.00000-0.13776 0.39335 0.67215 0.91938 0.72747
   3  -1   3150598.4 2133.34   1 0.00000 0.13912 0.71912 0.44072 0.69487 0.88679
  -3   1  -3146054.3 1993.77   1-0.80356-0.94305-0.28337-0.00387 0.52342 0.33261
   3  -1   3150755.1 2095.86   1-0.60623-0.46639 0.40552 0.12606 0.68413 0.87554
   3  -1   3153932.2 1995.03   1-0.54457-0.40345-0.49621-0.77533-0.67616-0.48588
  -3   1  -3154270.6 2088.31   1-0.26755-0.40890-0.77070-0.49186-0.57829-0.76867
  -3   1  -437536.84  774.69   1 0.00000-0.12411 0.30002 0.62173 0.95393 0.77332
   3  -1   436764.17  827.49   1 0.00000 0.12550 0.65890 0.33749 0.75222 0.93292
  -3   1  -434835.66  791.94   1-0.80406-0.92986-0.24891 0.07364 0.53992 0.36046
   3  -1   433847.15  778.99   1-0.62507-0.49891 0.37434 0.05176 0.68494 0.86510
   3  -1   435562.85  753.52   1-0.61662-0.48885-0.38856-0.71074-0.68468-0.50583
  -3   1  -436343.78  897.82   1-0.34236-0.47035-0.71269-0.39077-0.61225-0.79123
  -3   1  -5  868.57  111.38   1 0.00000-0.11047 0.21508 0.57972 0.97659 0.80729
   3  -1   5  907.67  121.14   1 0.00000 0.11189 0.60801 0.24359 0.79392 0.96340
  -3   1  -5 1000.74  126.02   1-0.80390-0.91601-0.23366 0.13194 0.54692 0.37881
   3  -1   5  765.16  118.75   1-0.63287-0.52038 0.36086-0.00483 0.68501 0.85391
   3  -1   5  729.97  103.86   1-0.67321-0.55879-0.28478-0.65002-0.68240-0.51499
  -3   1  -5  641.22  120.36   1-0.40319-0.51783-0.65775-0.29274-0.63623-0.80382
  -3   1  -6  111.06   92.84   1 0.00000-0.09683 0.13806 0.54561 0.99042 0.83242
   3  -1   6  -15.01   63.74   1 0.00000 0.09827 0.56640 0.15897 0.82412 0.98237
  -3   1  -6   62.75   54.42   1-0.80382-0.90224-0.22927 0.17938 0.54891 0.39214
   3  -1   6  -38.53   75.39   1-0.63481-0.53600 0.35745-0.05136 0.68500 0.84265
   3  -1   6    7.12   73.77   1-0.71625-0.61517-0.18762-0.59592-0.67214-0.51617
  -3   1  -6   72.35   93.34   1-0.45155-0.55284-0.60839-0.20031-0.65264-0.80884
  -3   1  -715550.42  479.21   1 0.00000-0.08319 0.06810 0.51857 0.99767 0.85097
   3  -1   718924.44  646.43   1 0.00000 0.08466 0.53329 0.08285 0.84592 0.99295
  -3   1  -717614.22  566.81   1-0.80387-0.88860-0.23163 0.22007 0.54784 0.40243
   3  -1   719040.65  630.12   1-0.63320-0.54806 0.36028-0.09164 0.68501 0.83139
   3  -1   718496.46  477.13   1-0.74804-0.66031-0.09821-0.54958-0.65633-0.51180
  -3   1  -719103.38  584.91   1-0.48939-0.57733-0.56577-0.11461-0.66362-0.80842
  -3   1  -8  572.77  117.08   1 0.00000-0.06954 0.00425 0.49763 0.99999 0.86459
   3  -1   8  433.69   98.21   1 0.00000 0.07104 0.50764 0.01420 0.86156 0.99737
  -3   1  -8  436.69  103.83   1-0.80398-0.87502-0.23847 0.25628 0.54474 0.41067
   3  -1   8  453.94   94.96   1-0.62919-0.55773 0.36727-0.12777 0.68500 0.82012
   3  -1   8  558.01   80.08   1-0.77081-0.69643-0.01667-0.51110-0.63683-0.50373
  -3   1  -8  578.11  117.82   1-0.51863-0.59322-0.53010-0.03585-0.67082-0.80423
  -3   1  -9220565.6 2476.93   1 0.00000-0.05590-0.05436 0.48192 0.99852 0.87442
   3  -1   9213147.2 2595.42   1 0.00000 0.05742 0.48842-0.04803 0.87260 0.99719
  -3   1  -9217331.8 2695.15   1-0.80406-0.86141-0.24845 0.28935 0.54014 0.41742
   3  -1   9214863.4 2600.77   1-0.62343-0.56564 0.37713-0.16102 0.68490 0.80877
   3  -1   9214101.5 2364.58   1-0.78645-0.72541 0.05747-0.48002-0.61497-0.49330
  -3   1  -9219543.2 2789.91   1-0.54147-0.60250-0.50039 0.03710-0.67558-0.79724
   3  -1  10287735.1 3171.81   1 0.00000 0.04381 0.47466-0.10479 0.88016 0.99352
  -3   1 -10303766.4 3215.13   1-0.80402-0.84768-0.26072 0.32013 0.53438 0.42301
   3  -1  10308417.6 2901.52   1-0.61630-0.57219 0.38909-0.19218 0.68467 0.79728
   3  -1  10294183.0 2924.81   1-0.79646-0.74877 0.12494-0.45561-0.59163-0.48140
  -3   1 -10311037.4 2867.34   1-0.55826-0.60596-0.47739 0.10316-0.67855-0.78877
   3  -1  1153399.16  973.82   1 0.00000 0.03019 0.46556-0.15690 0.88501 0.98715
  -3   1 -1154448.07  891.39   1-0.80380-0.83377-0.27471 0.34919 0.52766 0.42765
   3  -1  1153583.80 1122.65   1-0.60805-0.57762 0.40259-0.22180 0.68424 0.78559
  -3   1 -1151745.06 1084.50   1-0.57062-0.60497-0.45979 0.16382-0.68041-0.77920
  -3   1 -12  782.65  127.69   1 0.00000-0.01497-0.20610 0.45894 0.97852 0.88834
   3  -1  12  730.44  122.11   1 0.00000 0.01657 0.46043-0.20504 0.88769 0.97861
  -3   1 -12  630.60  111.63   1-0.80333-0.81961-0.29003 0.37692 0.52012 0.43146
   3  -1  12  435.97  146.32   1-0.59883-0.58208 0.41727-0.25024 0.68357 0.77366
  -3   1 -12  754.29  153.43   1-0.57939-0.60039-0.44694 0.21974-0.68157-0.76892
  -3   1 -13  245.42   76.43   1 0.00000-0.00133-0.25049 0.45746 0.96811 0.88922
   3  -1  13  616.90  122.01   1 0.00000 0.00296 0.45868-0.24980 0.88859 0.96829
  -3   1 -13  520.72  100.64   1-0.80256-0.80515-0.30641 0.40360 0.51185 0.43454
   3  -1  13  617.12  144.23   1-0.58875-0.58567 0.43286-0.27776 0.68263 0.76146
  -3   1 -13  502.61  156.18   1-0.58519-0.59285-0.43826 0.27149-0.68225-0.75816
  -3   1 -14 5944.45  351.33   1 0.00000 0.01230-0.29250 0.45837 0.95626 0.88867
   3  -1  14 6308.07  346.03   1 0.00000-0.01065 0.45985-0.29164 0.88799 0.95646
  -3   1 -14 7797.67  346.44   1-0.80146-0.79036-0.32363 0.42942 0.50290 0.43694
   3  -1  14 6874.64  474.61   1-0.57788-0.58848 0.44918-0.30456 0.68138 0.74895
  -3   1 -14 6087.75  401.48   1-0.58853-0.58284-0.43320 0.31961-0.68261-0.74708
  -3   1 -15  102.74   89.83   1 0.00000 0.02594-0.33244 0.46135 0.94312 0.88683
  -3   1 -15  170.80  109.51   1-0.79997-0.77518-0.34156 0.45455 0.49332 0.43871
   3  -1  15   90.68  163.14   1-0.56626-0.59053 0.46607-0.33078 0.67979 0.73610
  -3   1 -15   23.69  126.72   1-0.58976-0.57072-0.43132 0.36455-0.68274-0.73578
  -3   1 -16 7125.23  343.12   1 0.00000 0.03344-0.36963 0.46635 0.92917 0.88396
  -3   1 -16 7465.37  390.74   1-0.79807-0.75959-0.36007 0.47908 0.48313 0.43986
  -3   1 -1725306.43  803.45   1 0.00000 0.04673-0.40619 0.47280 0.91378 0.87992
  -3   1 -1725864.46  786.94   1-0.79573-0.74356-0.37908 0.50313 0.47233 0.44042
  -3   0  19 1483.22  183.94   1 0.00000-0.35827 0.92376 0.25775-0.38295-0.89732
  -3   0  18 1734.42  280.33   1 0.00000-0.34458 0.92222 0.29922-0.38664-0.88979
  -3   0  17 6700.43  393.49   1 0.00000-0.33098 0.92180 0.34182-0.38765-0.87954
  -3   0  1624750.15  870.98   1 0.00000-0.31647-0.28531-0.81988 0.95843 0.47711
  -3   0  1631804.24 1117.68   1 0.00000-0.31738 0.92263 0.38568-0.38567-0.86632
  -3   0  1628317.01 1077.21   1-0.64051-0.96028 0.34730-0.19034 0.68492 0.20402
  -3   0  15 3605.34  256.99   1 0.00000-0.30282-0.33648-0.82814 0.94168 0.47167
  -3   0  15 3426.91  246.50   1 0.00000-0.30385 0.92486 0.43097-0.38028-0.84966
  -3   0  15 3103.60  236.46   1-0.65499-0.96108 0.32058-0.17394 0.68425 0.21461
  -3   0  1427449.16  840.34   1 0.00000-0.28442-0.38871-0.84061 0.92136 0.46094
  -3   0  1431152.02  898.48   1 0.00000-0.29024 0.92862 0.47775-0.37102-0.82916
  -3   0  1430372.22  979.11   1-0.66910-0.96151 0.29310-0.15831 0.68293 0.22455
  -3   0  1326086.89  620.21   1 0.00000-0.27113-0.44343-0.85232 0.89630 0.44724
  -3   0  1327468.63  719.18   1 0.00000-0.27664 0.93401 0.52617-0.35723-0.80412
  -3   0  1328707.67  834.46   1-0.68288-0.96162 0.26466-0.14363 0.68089 0.23377
  -3   0  1248091.34  865.56   1 0.00000-0.25785-0.50025-0.86613 0.86587 0.42816
  -3   0  1240067.19  825.19   1 0.00000-0.26303 0.94110 0.57628-0.33812-0.77375
  -3   0  1243462.39  938.74   1-0.69668-0.96168 0.23437-0.12961 0.67801 0.24159
  -3   0  1122308.74  630.61   1 0.00000-0.24456-0.55920-0.88206 0.82902 0.40266
  -3   0  1119856.24  616.13   1 0.00000-0.24943 0.94984 0.62806-0.31271-0.73710
  -3   0  1120616.21  728.45   1-0.70995-0.96126 0.20321-0.11772 0.67429 0.24922
  -3   0  1016307.42  471.11   1 0.00000-0.23128-0.62014-0.89999 0.78448 0.36947
  -3   0  1016982.41  548.42   1 0.00000-0.23582 0.96004 0.68128-0.27985-0.69298
  -3   0  1017722.41  597.94   1-0.72307-0.96069 0.17004-0.10784 0.66950 0.25579
  -3   0   9 9857.19  429.64   1 0.00000-0.21799-0.68267-0.91951 0.73071 0.32706
  -3   0   9 9084.69  401.81   1 0.00000-0.22222 0.97122 0.73549-0.23816-0.64004
  -3   0   9 9563.31  401.92   1-0.73613-0.96006 0.13415-0.10067 0.66340 0.26103
  -3   0   8  123.02   87.65   1 0.00000-0.20471-0.74595-0.93978 0.66599 0.27368
  -3   0   8  172.49  100.37   1 0.00000-0.20861 0.98252 0.78982-0.18612-0.57675
  -3   0   8  246.67   70.57   1-0.74921-0.95945 0.09448-0.09729 0.65555 0.26453
  -3   0   754596.49 1101.79   1 0.00000-0.19142-0.80850-0.95931 0.58848 0.20753
  -3   0   754390.06 1097.76   1 0.00000-0.19501 0.99250 0.84283-0.12221-0.50160
  -3   0   755167.90 1041.57   1-0.76240-0.95895 0.04930-0.09942 0.64521 0.26554
  -3   0   6 2141.64  179.38   1 0.00000-0.17814-0.86797-0.97577 0.49660 0.12699
  -3   0   6 2545.49  182.67   1 0.00000-0.18140 0.99897 0.89233-0.04517-0.41331
  -3   0   6 2619.85  195.60   1-0.77572-0.95858-0.00426-0.10994 0.63106 0.26274
  -3   0   591485.31 1407.56   1 0.00000-0.16780 0.99896 0.93535 0.04550-0.31138
   3   0  -590772.27 1541.36   1 0.00000 0.16774 0.92171 0.98534-0.38786-0.03094
  -3   0   594670.85 1469.66   1-0.78884-0.95801-0.07138-0.13401 0.61042 0.25345
  -3   0   4  -18.75   66.25   1 0.00000-0.15419 0.98884 0.96826 0.14893-0.19670
   3   0  -4   71.20   69.98   1 0.00000 0.15419 0.96417 0.98476-0.26525 0.08038
  -3   0   4    7.61   53.09   1-0.80021-0.95569-0.16178-0.18136 0.57748 0.23186
  -3   0   3 1641.54  207.71   1 0.00000-0.14059 0.96499 0.98743 0.26226-0.07212
   3   0  -3 1854.89  174.15   1 0.00000 0.14059 0.99138 0.96894-0.13096 0.20342
  -3   0   3 1713.65  166.86   1-0.80316-0.94495-0.29417-0.27070 0.51806 0.18379
  -3   0   210510.31  403.69   1 0.00000-0.12698 0.92477 0.99024 0.38051 0.05737
   3   0  -2 9689.63  393.75   1 0.00000 0.12698 0.99995 0.93448 0.00944 0.33258
  -3   0   180687.70 1416.44   1 0.00000-0.11351 0.86759 0.97611 0.49727 0.18521
   3   0  -176711.72 1254.05   1 0.00000 0.11338 0.98890 0.88040 0.14858 0.46047
  -3   0   175999.24 1422.30   1-0.22858-0.34320 0.79715 0.90624 0.55883 0.24682
  -3   0   0 2164.88  203.70   1 0.00000-0.09989 0.79554 0.94707 0.60589 0.30506
   3   0   0 1844.53  190.28   1 0.00000 0.09977 0.96030 0.80878 0.27893 0.57958
  -3   0   0 1875.92  223.67   1-0.47574-0.57669 0.58158 0.73379 0.65986 0.35911
   3   0   0 1935.11  180.81   1-0.20706-0.10550-0.81070-0.96313-0.54761-0.24748
  -3   0  -112954.20  437.53   1 0.00000-0.08627 0.71253 0.90707 0.70163 0.41202
   3   0   113306.48  518.68   1 0.00000 0.08627 0.91897 0.72443 0.39431 0.68392
  -3   0  -111851.05  463.52   1-0.60156-0.68883 0.41297 0.60830 0.68379 0.39430
   3   0   112809.63  427.89   1-0.33446-0.24625-0.71929-0.91480-0.60888-0.32015
  -3   0  -2191814.1 2358.58   1 0.00000-0.07266 0.62335 0.86090 0.78194 0.50354
   3   0   2186097.9 2354.32   1 0.00000 0.07266 0.87027 0.63271 0.49257 0.77096
  -3   0  -2179284.8 2274.72   1-0.66629-0.73988 0.29869 0.53714 0.68325 0.40502
   3   0   2182635.2 2535.01   1-0.14306-0.06962 0.84683 0.60838 0.51225 0.79057
   3   0   2185857.9 2340.71   1-0.45171-0.37685-0.60822-0.84681-0.65269-0.37535
  -3   0  -3178898.0 2274.64   1 0.00000-0.05904 0.53238 0.81295 0.84649 0.57932
   3   0   3172924.6 2277.33   1 0.00000 0.05904 0.81946 0.53890 0.57312 0.84029
  -3   0  -3175478.7 2281.93   1-0.70441-0.76406 0.21648 0.49826 0.67596 0.40980
   3   0   3182040.2 2432.99   1-0.27338-0.21346 0.76653 0.48497 0.58110 0.84807
   3   0   3174532.8 2134.28   1-0.55237-0.49114-0.48558-0.76760-0.67756-0.41178
  -3   0  -3172630.2 2291.18   1-0.18843-0.24994-0.82186-0.54019-0.53761-0.80356
  -3   0  -436989.05  787.20   1 0.00000-0.04543 0.44296 0.76653 0.89653 0.64059
   3   0   435575.23  820.66   1 0.00000 0.04543 0.77046 0.44689 0.63748 0.89343
  -3   0  -434783.32  760.89   1-0.72888-0.77484 0.15447 0.47930 0.66697 0.41216
   3   0   435292.21  873.18   1-0.35478-0.30853 0.70207 0.37739 0.61742 0.87314
   3   0   435936.33  747.48   1-0.63142-0.58354-0.36339-0.68847-0.68501-0.43066
  -3   0  -435248.39  828.69   1-0.27722-0.32538-0.76375-0.43900-0.58293-0.83749
  -3   0  -520196.87  592.19   1 0.00000-0.02998 0.35605 0.72272 0.93446 0.69048
   3   0   518729.06  586.79   1 0.00000 0.03181 0.72568 0.35910 0.68803 0.93275
  -3   0  -519167.66  631.26   1-0.74628-0.77855 0.10374 0.47162 0.65748 0.41402
   3   0   519028.84  629.38   1-0.40676-0.37419 0.65429 0.28649 0.63753 0.88198
   3   0   518806.08  512.46   1-0.69094-0.65640-0.24721-0.61536-0.67932-0.43641
  -3   0  -519677.78  637.86   1-0.35023-0.38504-0.70599-0.33816-0.61554-0.85870
  -3   0  -6 5387.73  273.59   1 0.00000-0.01634 0.27497 0.68456 0.96145 0.72877
   3   0   6 6200.01  320.28   1 0.00000 0.01819 0.68636 0.27677 0.72725 0.96076
  -3   0  -6 6149.49  296.87   1-0.75940-0.77798 0.06015 0.47108 0.64783 0.41571
   3   0   6 6518.21  385.47   1-0.44047-0.42158 0.62018 0.20927 0.64911 0.88230
   3   0   6 6118.58  258.18   1-0.73387-0.71268-0.14060-0.55181-0.66457-0.43310
  -3   0  -6 6541.57  315.41   1-0.40845-0.42991-0.65263-0.24172-0.63814-0.86990
  -3   0  -7  177.47   72.13   1 0.00000-0.00270 0.19903 0.65153 0.97999 0.75861
   3   0   7   29.13  103.70   1 0.00000 0.00458 0.65290 0.20030 0.75744 0.97972
  -3   0  -7   29.61   75.48   1-0.76968-0.77457 0.02130 0.47528 0.63807 0.41730
   3   0   7   89.52   96.93   1-0.46235-0.45713 0.59661 0.14258 0.65595 0.87789
   3   0   7   52.85   59.89   1-0.76366-0.75581-0.04465-0.49893-0.64406-0.42403
  -3   0  -7  167.87   75.75   1-0.45394-0.46204-0.60582-0.15182-0.65339-0.87376
  -3   0  -863541.60 1108.33   1 0.00000 0.01094 0.12817 0.62358 0.99175 0.78167
   3   0   867974.93 1193.60   1 0.00000-0.00903 0.62519 0.12959 0.78046 0.99152
  -3   0  -869113.57 1075.22   1-0.77792-0.76912-0.01426 0.48277 0.62819 0.41877
   3   0   871054.00 1278.97   1-0.47619-0.48465 0.58107 0.08392 0.65999 0.87067
   3   0   868856.21 1016.47   1-0.78339-0.78889 0.04099-0.45634-0.62016-0.41157
  -3   0  -872584.65 1204.72   1-0.48896-0.48371-0.56628-0.06920-0.66350-0.87248
   3   0   992518.67 1539.60   1 0.00000-0.02265 0.60286 0.06425 0.79783 0.99767
  -3   0  -995606.25 1359.53   1-0.78462-0.76213-0.04745 0.49262 0.61815 0.42008
   3   0   993435.98 1578.22   1-0.48434-0.50648 0.57168 0.03141 0.66226 0.86167
   3   0   991966.39 1152.58   1-0.79554-0.81439 0.11738-0.42302-0.59441-0.39725
  -3   0  -998696.29 1586.87   1-0.51561-0.49701-0.53391 0.00624-0.67013-0.86771
   3   0  1039634.99  923.06   1 0.00000-0.03626 0.58543 0.00381 0.81072 0.99933
  -3   0 -1043361.58  774.85   1-0.79007-0.75389-0.07891 0.50421 0.60791 0.42119
   3   0  1041758.17  856.63   1-0.48830-0.52411 0.56705-0.01632 0.66333 0.85148
  -3   0 -1041211.28  840.38   1-0.53627-0.50407-0.50730 0.07615-0.67457-0.86029
   3   0  11 9060.46  439.25   1 0.00000-0.04988 0.57237-0.05226 0.81999 0.99738
  -3   0 -11 9614.45  388.04   1-0.79447-0.74460-0.10905 0.51713 0.59742 0.42206
   3   0  11 9387.24  414.11   1-0.48906-0.53854 0.56616-0.06032 0.66353 0.84043
  -3   0 -11 9628.90  440.92   1-0.55096-0.50542-0.48752 0.13900-0.67732-0.85160
  -3   0 -12  720.05  115.99   1 0.00000 0.06551-0.11152 0.55555 0.99376 0.82889
   3   0  12  645.60  119.50   1 0.00000-0.06349 0.56318-0.10445 0.82633 0.99250
  -3   0 -12  701.42  138.49   1-0.79795-0.73439-0.13817 0.53106 0.58666 0.42265
   3   0  12  846.23  166.44   1-0.48728-0.55044 0.56825-0.10135 0.66305 0.82869
  -3   0 -12  629.20  136.42   1-0.56141-0.50253-0.47296 0.19663-0.67905-0.84189
  -3   0 -13 2862.66  200.36   1 0.00000 0.07915-0.16260 0.54739 0.98669 0.83312
   3   0  13 2834.98  260.72   1 0.00000-0.07711 0.55742-0.15322 0.83022 0.98517
  -3   0 -13 3299.90  211.18   1-0.80060-0.72335-0.16649 0.54578 0.57559 0.42293
   3   0  13 2935.58  302.13   1-0.48343-0.56027 0.57274-0.13998 0.66201 0.81639
  -3   0 -13 2973.10  310.77   1-0.56844-0.49620-0.46295 0.24970-0.68010-0.83151
  -3   0 -14 1197.42  148.57   1 0.00000 0.09279-0.21091 0.54199 0.97750 0.83524
  -3   0 -14 1196.86  128.13   1-0.80247-0.71154-0.19419 0.56114 0.56419 0.42288
   3   0  14 1191.17  172.20   1-0.47785-0.56836 0.57917-0.17666 0.66046 0.80358
  -3   0 -14  892.59  137.03   1-0.57262-0.48704-0.45690 0.29882-0.68069-0.82066
  -3   0 -15  540.49  126.76   1 0.00000 0.10643-0.25676 0.53906 0.96647 0.83551
  -3   0 -15  904.24  165.36   1-0.80362-0.69899-0.22138 0.57700 0.55242 0.42246
  -3   0 -15  559.87  106.48   1-0.57440-0.47548-0.45429 0.34449-0.68093-0.80946
  -3   0 -16 2376.03  328.98   1 0.00000 0.12008-0.30042 0.53831 0.95380 0.83414
  -3   0 -16 4103.33  295.41   1-0.80405-0.68574-0.24817 0.59326 0.54027 0.42166
  -3   0 -17  177.69  117.21   1 0.00000 0.13372-0.34214 0.53951 0.93964 0.83128
  -3   0 -17  847.29  134.37   1-0.80380-0.67179-0.27463 0.60985 0.52770 0.42044
  -3  -1  18  596.06  185.35   1 0.00000-0.26466 0.94390 0.32307-0.33021-0.90861
  -3  -1  17 6206.36  362.40   1 0.00000-0.25105 0.94443 0.36663-0.32870-0.89585
  -3  -1  16 1299.41  185.88   1 0.00000-0.23744 0.94600 0.41123-0.32415-0.88006
  -3  -1  16 1096.76  182.83   1-0.70240-0.94231 0.22121-0.31270 0.67653 0.11936
  -3  -1  15 2373.83  187.63   1 0.00000-0.21702-0.41328-0.90568 0.91060 0.36419
  -3  -1  15 4196.62  290.91   1 0.00000-0.22384 0.94868 0.45694-0.31621-0.86087
  -3  -1  15 3668.87  350.24   1-0.71739-0.94362 0.18472-0.30613 0.67172 0.12591
  -3  -1  14 9143.94  376.15   1 0.00000-0.20373-0.46480-0.91418 0.88541 0.35035
  -3  -1  14 7127.65  328.58   1 0.00000-0.21023 0.95253 0.50381-0.30443-0.83783
  -3  -1  14 7145.76  368.40   1-0.73185-0.94439 0.14627-0.30154 0.66557 0.13110
  -3  -1  1327076.33  730.58   1 0.00000-0.19045-0.51748-0.92385 0.85569 0.33198
  -3  -1  1326104.91  693.55   1 0.00000-0.19663 0.95754 0.55186-0.28826-0.81042
  -3  -1  1325028.84  742.33   1-0.74574-0.94459 0.10544-0.29932 0.65783 0.13471
  -3  -1  1213738.35  451.12   1 0.00000-0.17716-0.57124-0.93460 0.82077 0.30842
  -3  -1  1214873.66  480.60   1 0.00000-0.18302 0.96367 0.60101-0.26709-0.77800
  -3  -1  1213748.31  451.39   1-0.75896-0.94412 0.06169-0.30001 0.64819 0.13642
  -3  -1  1115011.58  474.33   1 0.00000-0.16388-0.62588-0.94622 0.77991 0.27891
  -3  -1  1117726.93  578.53   1 0.00000-0.16942 0.97072 0.65109-0.24018-0.73984
  -3  -1  1118752.44  533.14   1-0.77137-0.94284 0.01436-0.30430 0.63621 0.13579
  -3  -1  10 4668.39  270.70   1 0.00000-0.15059-0.68103-0.95836 0.73224 0.24259
  -3  -1  10 4145.28  255.83   1 0.00000-0.15581 0.97839 0.70179-0.20671-0.69512
  -3  -1  10 4205.96  253.59   1-0.78270-0.94048-0.03745-0.31306 0.62126 0.13219
  -3  -1   9 3312.87  203.95   1 0.00000-0.13731-0.73610-0.97042 0.67686 0.19857
  -3  -1   9 3805.52  232.87   1 0.00000-0.14221 0.98615 0.75258-0.16579-0.64295
  -3  -1   9 3807.57  242.67   1-0.79250-0.93659-0.09489-0.32746 0.60243 0.12471
  -3  -1   811526.91  466.58   1 0.00000-0.12402-0.79018-0.98149 0.61286 0.14591
  -3  -1   810500.46  405.94   1 0.00000-0.12860 0.99318 0.80264-0.11652-0.58243
  -3  -1   811625.38  458.75   1-0.80001-0.93041-0.15945-0.34897 0.57840 0.11203
  -3  -1   750736.01 1042.75   1 0.00000-0.11074-0.84201-0.99030 0.53945 0.08385
  -3  -1   749595.33 1061.58   1 0.00000-0.11500 0.99831 0.85079-0.05810-0.51276
  -3  -1   752381.67 1152.03   1-0.80389-0.92060-0.23298-0.37944 0.54723 0.09221
  -3  -1   617770.55  536.00   1 0.00000-0.09745-0.88989-0.99516 0.45616 0.01192
  -3  -1   618841.10  564.75   1 0.00000-0.10139 0.99994 0.89546 0.00997-0.43344
  -3  -1   620277.95  654.33   1-0.80188-0.90490-0.31760-0.42101 0.50607 0.06240
  -3  -1   5176675.0 2618.92   1 0.00000-0.08779 0.99614 0.93468 0.08769-0.34446
   3   1  -5176274.9 2648.87   1 0.00000 0.08779 0.93219 0.99366-0.36194 0.07021
  -3  -1   5157205.0 2279.12   1-0.79011-0.87944-0.41528-0.47564 0.45084 0.01852
  -3  -1   438270.95  865.01   1 0.00000-0.07418 0.98469 0.96626 0.17427-0.24664
   3   1  -439271.43  981.67   1 0.00000 0.07418 0.96569 0.98412-0.25969 0.16122
  -3  -1   3 4578.16  257.59   1 0.00000-0.06057 0.96345 0.98804 0.26789-0.14177
   3   1  -3 4649.51  264.36   1 0.00000 0.06057 0.98857 0.96398-0.15070 0.25896
  -3  -1   2 1954.75  183.87   1 0.00000-0.04697 0.93073 0.99835 0.36568-0.03272
   3   1  -2 1571.54  173.28   1 0.00000 0.04697 0.99927 0.93165-0.03811 0.36030
  -3  -1   172861.21 1212.17   1 0.00000-0.03343 0.88580 0.99648 0.46406 0.07675
   3   1  -175090.88 1395.99   1 0.00000 0.03336 0.99724 0.88659 0.07417 0.46134
  -3  -1   172885.31 1384.57   1-0.07263-0.10718 0.87962 0.99081 0.47009 0.08244
  -3  -1   039721.08  852.24   1 0.00000-0.01981 0.82925 0.98295 0.55886 0.18277
   3   1   042936.08  930.95   1 0.00000 0.01976 0.98328 0.82960 0.18208 0.55800
  -3  -1   040726.44  949.34   1-0.23025-0.25127 0.79606 0.95038 0.55969 0.18339
   3   1   044024.42  905.75   1-0.20229-0.18055-0.81361-0.96887-0.54507-0.16937
  -3  -1  -121936.61  604.32   1 0.00000-0.00620 0.76273 0.95943 0.64671 0.28184
   3   1   123312.10  678.32   1 0.00000 0.00615 0.95939 0.76268 0.28207 0.64673
  -3  -1  -123909.50  749.39   1-0.36107-0.36842 0.69658 0.89401 0.61999 0.25495
   3   1   125184.45  625.85   1-0.34691-0.33852-0.70884-0.90717-0.61416-0.24985
  -3  -1  -224456.14  648.82   1 0.00000 0.00741 0.68874 0.92846 0.72500 0.37135
   3   1   224850.98  837.17   1 0.00000-0.00744 0.92837 0.68863 0.37164 0.72506
  -3  -1  -226060.58  732.16   1-0.46249-0.45617 0.59645 0.83700 0.65600 0.30221
   3   1   224572.10  620.53   1-0.47930-0.48427-0.57751-0.81892-0.66087-0.30796
  -3  -1  -367892.22 1332.45   1 0.00000 0.02103 0.61011 0.89283 0.79231 0.44989
   3   1   362284.07 1211.53   1 0.00000-0.02103 0.89346 0.61074 0.44912 0.79154
  -3  -1  -365175.37 1361.19   1-0.53889-0.51889 0.50383 0.78749 0.67508 0.33256
   3   1   365763.63 1341.39   1-0.03775-0.05794 0.89324 0.60958 0.44798 0.79059
   3   1   365355.20 1152.29   1-0.58953-0.60819-0.43167-0.71660-0.68271-0.34144
  -3  -1  -439940.56  891.25   1 0.00000 0.03464 0.52947 0.85521 0.84832 0.51712
   3   1   438266.18  953.73   1 0.00000-0.03464 0.85702 0.53128 0.51528 0.84648
  -3  -1  -438846.58  911.49   1-0.59634-0.56266 0.42117 0.74795 0.68336 0.35210
   3   1   439557.35 1084.02   1-0.12587-0.15974 0.85549 0.52872 0.50227 0.83362
   3   1   439907.34  791.46   1-0.67078-0.70279-0.28971-0.61770-0.68272-0.35288
  -3  -1  -440302.19  992.92   1-0.15578-0.12411-0.84014-0.51256-0.51951-0.84963
  -3  -1  -511842.82  406.93   1 0.00000 0.04826 0.44900 0.81774 0.89352 0.57354
   3   1   511944.18  509.66   1 0.00000-0.04826 0.82135 0.45261 0.57042 0.89040
  -3  -1  -510318.12  431.12   1-0.64008-0.59272 0.34808 0.71798 0.68493 0.36492
   3   1   512949.89  551.98   1-0.19340-0.24096 0.81893 0.44905 0.54030 0.86040
   3   1   511344.18  383.98   1-0.72713-0.77248-0.15923-0.53029-0.66777-0.34936
  -3  -1  -511226.26  490.92   1-0.24831-0.20329-0.78407-0.41341-0.56883-0.88756
  -3  -1  -6  -59.55   60.53   1 0.00000 0.06414 0.36857 0.78018 0.92960 0.62224
   3   1   6   47.08  124.58   1 0.00000-0.06187 0.78798 0.37623 0.61570 0.92445
  -3  -1  -6   -6.41   84.24   1-0.67398-0.61295 0.28322 0.69623 0.68229 0.37355
   3   1   6   18.81   75.99   1-0.24475-0.30577 0.78648 0.37346 0.56705 0.87579
   3   1   6   -6.02   52.72   1-0.76382-0.82252-0.04405-0.45817-0.64391-0.33695
  -3  -1  -6   82.01   83.57   1-0.32352-0.26515-0.72825-0.31450-0.60413-0.91147
  -3  -1  -7 6721.76  360.28   1 0.00000 0.07779 0.29250 0.74704 0.95626 0.66021
   3   1   7 8326.36  365.95   1 0.00000-0.07549 0.75784 0.30308 0.65243 0.94996
  -3  -1  -7 8126.01  329.00   1-0.70115-0.62620 0.22410 0.68035 0.67686 0.38075
   3   1   7 8086.94  403.12   1-0.28300-0.35771 0.75952 0.30339 0.58568 0.88317
   3   1   7 7963.63  310.41   1-0.78615-0.85819 0.05579-0.40138-0.61550-0.31998
  -3  -1  -7 7705.80  346.07   1-0.38280-0.31108-0.67700-0.22018-0.62858-0.92452
  -3  -1  -8  629.68  101.02   1 0.00000 0.09143 0.21979 0.71724 0.97554 0.69079
   3   1   8  438.92  126.17   1 0.00000-0.08911 0.73143 0.23366 0.68191 0.96822
  -3  -1  -8  381.04  107.10   1-0.72251-0.63388 0.17151 0.67081 0.66973 0.38497
   3   1   8  342.56  127.19   1-0.31140-0.39978 0.73790 0.23866 0.59876 0.88499
   3   1   8  421.62   84.33   1-0.79835-0.88374 0.14201-0.35822-0.58519-0.30110
  -3  -1  -8  416.35  116.57   1-0.42863-0.34356-0.63246-0.13255-0.64518-0.92972
  -3  -1  -954316.90  899.30   1 0.00000 0.10507 0.15067 0.69104 0.98858 0.71513
   3   1   956864.54 1117.77   1 0.00000-0.10272 0.70889 0.16812 0.70530 0.98039
  -3  -1  -954493.41  895.19   1-0.73987-0.63754 0.12325 0.66561 0.66136 0.38794
   3   1   955101.75 1035.67   1-0.33217-0.43423 0.72118 0.17882 0.60790 0.88287
  -3  -1  -958210.21 1091.64   1-0.46358-0.36516-0.59524-0.05226-0.65632-0.92947
   3   1  10197073.5 1831.98   1 0.00000-0.11634 0.69019 0.10640 0.72362 0.98749
   3   1  10195113.8 1889.42   1-0.34696-0.46270 0.70879 0.12331 0.61418 0.87789
  -3  -1 -10200489.9 1651.91   1-0.48991-0.37813-0.56515 0.02090-0.66376-0.92551
  -3  -1 -11161889.0 1428.31   1 0.00000 0.13235 0.02314 0.64934 0.99973 0.74888
   3   1  11146714.4 1566.66   1 0.00000-0.12996 0.67513 0.04834 0.73769 0.99033
  -3  -1 -11154782.3 1433.55   1-0.76580-0.63609 0.03656 0.66501 0.64203 0.39132
   3   1  11155923.5 1759.54   1-0.35701-0.48641 0.70014 0.07154 0.61834 0.87079
  -3  -1 -11152913.4 1873.13   1-0.50943-0.38430-0.54160 0.08754-0.66868-0.91904
  -3  -1 -12 3247.21  230.80   1 0.00000 0.14600-0.03559 0.63352 0.99936 0.75982
   3   1  12 2592.34  220.03   1 0.00000-0.14357 0.66347-0.00632 0.74819 0.98961
  -3  -1 -12 3704.93  227.33   1-0.77544-0.63205-0.00306 0.66844 0.63140 0.39203
   3   1  12 2822.17  278.52   1-0.36321-0.50629 0.69470 0.02298 0.62086 0.86205
  -3  -1 -12 2835.02  219.09   1-0.52437-0.38560-0.52279 0.14970-0.67209-0.91043
  -3  -1 -13  -88.57  105.46   1 0.00000 0.15964-0.09128 0.62075 0.99582 0.76758
   3   1  13   55.42  108.94   1 0.00000-0.15719 0.65495-0.05785 0.75567 0.98587
  -3  -1 -13  -14.14  109.51   1-0.78335-0.62626-0.04079 0.67375 0.62023 0.39221
   3   1  13  146.42  127.21   1-0.36625-0.52301 0.69200-0.02282 0.62208 0.85201
  -3  -1 -13    8.44   63.38   1-0.53411-0.38199-0.51015 0.20541-0.67414-0.90104
  -3  -1 -14  229.64   88.28   1 0.00000 0.17328-0.14417 0.61077 0.98955 0.77261
  -3  -1 -14  241.37  105.58   1-0.78976-0.61898-0.07696 0.68063 0.60856 0.39190
   3   1  14  320.11  154.60   1-0.36665-0.53708 0.69164-0.06629 0.62224 0.84091
  -3  -1 -14  342.80  115.57   1-0.54032-0.37485-0.50192 0.25670-0.67536-0.89083
  -3  -1 -15    5.82  106.87   1 0.00000 0.18692-0.19451 0.60334 0.98089 0.77526
  -3  -1 -15  180.09   93.66   1-0.79483-0.61037-0.11183 0.68882 0.59642 0.39111
  -3  -1 -15   21.69   83.79   1-0.54359-0.36477-0.49754 0.30415-0.67598-0.88001
  -3  -1 -16  650.60  162.70   1 0.00000 0.20057-0.24253 0.59824 0.97014 0.77580
  -3  -1 -16  700.90  139.85   1-0.79872-0.60056-0.14561 0.69809 0.58381 0.38985
  -3  -1 -16  268.27  100.40   1-0.54435-0.35220-0.49651 0.34824-0.67612-0.86872
  -3  -2  18 2493.42  217.44   1 0.00000-0.18464 0.96382 0.34514-0.26653-0.92020
  -3  -2  17 1280.80  231.35   1 0.00000-0.17104 0.96487 0.38922-0.26269-0.90512
  -3  -2  16 5495.44  331.17   1 0.00000-0.15743 0.96672 0.43410-0.25582-0.88700
  -3  -2  1533185.21 1268.77   1 0.00000-0.14383 0.96937 0.47978-0.24559-0.86551
  -3  -2  1525832.23 1011.06   1-0.75841-0.90480 0.06365-0.42494 0.64865 0.02748
  -3  -2  1417724.94  561.02   1 0.00000-0.12305-0.51403-0.96089 0.85777 0.24807
  -3  -2  1423005.48  601.07   1 0.00000-0.13022 0.97280 0.52623-0.23162-0.84030
  -3  -2  1421601.61  618.76   1-0.77062-0.90332 0.01745-0.42809 0.63704 0.02722
  -3  -2  13  270.95  120.39   1 0.00000-0.10976-0.56368-0.96753 0.82598 0.22764
  -3  -2  13  570.62  118.54   1 0.00000-0.11662 0.97694 0.57340-0.21349-0.81092
  -3  -2  13  581.63  117.51   1-0.78153-0.90054-0.03156-0.43406 0.62305 0.02459
  -3  -2  12 4990.96  281.75   1 0.00000-0.09648-0.61366-0.97450 0.78956 0.20257
  -3  -2  12 4621.19  277.27   1 0.00000-0.10301 0.98164 0.62113-0.19072-0.77690
  -3  -2  12 4371.41  265.41   1-0.79084-0.89617-0.08385-0.44329 0.60623 0.01912
  -3  -2  1114435.02  443.50   1 0.00000-0.08319-0.66369-0.98151 0.74800 0.17236
  -3  -2  1115318.40  487.43   1 0.00000-0.08941 0.98666 0.66918-0.16276-0.73769
  -3  -2  1115588.88  596.02   1-0.79813-0.88976-0.13990-0.45629 0.58600 0.01023
  -3  -2  10  154.92   74.25   1 0.00000-0.06991-0.71336-0.98816 0.70079 0.13650
  -3  -2  10  105.59   85.73   1 0.00000-0.07580 0.99163 0.71718-0.12906-0.69274
  -3  -2  10  140.96   85.52   1-0.80279-0.88073-0.20025-0.47360 0.56162-0.00279
  -3  -2   910690.25  367.94   1 0.00000-0.05662-0.76211-0.99391 0.64743 0.09450
  -3  -2   910547.35  426.15   1 0.00000-0.06220 0.99602 0.76460-0.08906-0.64149
  -3  -2   911551.54  463.88   1-0.80397-0.86822-0.26544-0.49573 0.53213-0.02092
  -3  -2   813203.78  482.48   1 0.00000-0.04334-0.80922-0.99800 0.58749 0.04591
  -3  -2   812314.82  412.78   1 0.00000-0.04859 0.99910 0.81071-0.04224-0.58342
  -3  -2   812651.57  451.98   1-0.80048-0.85104-0.33589-0.52313 0.49639-0.04532
  -3  -2   712452.94  396.94   1 0.00000-0.03005-0.85373-0.99950 0.52070-0.00952
  -3  -2   712911.04  440.30   1 0.00000-0.03498 0.99993 0.85456 0.01176-0.51816
  -3  -2   713669.83  498.51   1-0.79072-0.82759-0.41177-0.55596 0.45298-0.07738
  -3  -2   615623.20  464.74   1 0.00000-0.01677-0.89452-0.99727 0.44702-0.07185
  -3  -2   616453.87  586.28   1 0.00000-0.02138 0.99732 0.89498 0.07310-0.44558
  -3  -2   533300.75  891.98   1 0.00000-0.00777 0.98993 0.93062 0.14153-0.36589
   3   2  -536515.12  940.67   1 0.00000 0.00777 0.93060 0.98991-0.36601 0.14142
  -3  -2   4 5837.56  386.59   1 0.00000 0.00582 0.97631 0.96003 0.21635-0.27983
   3   2  -4 5739.14  436.87   1 0.00000-0.00582 0.96003 0.97631-0.27989 0.21628
  -3  -2   3 6836.78  378.20   1 0.00000 0.01943 0.95510 0.98184 0.29627-0.18866
   3   2  -3 6490.09  460.68   1 0.00000-0.01943 0.98189 0.95514-0.18944 0.29549
  -3  -2   2   48.52   70.12   1 0.00000 0.03303 0.92522 0.99499 0.37942-0.09426
   3   2  -2   16.74   71.47   1 0.00000-0.03303 0.99533 0.92555-0.09652 0.37716
  -3  -2   120666.24  625.21   1 0.00000 0.04664 0.88606 0.99891 0.46356 0.00099
   3   2  -120630.89  674.82   1 0.00000-0.04664 0.99999 0.88719-0.00340 0.45903
  -3  -2   122271.17  762.45   1-0.05516-0.00976 0.88665 0.99994 0.45912-0.00407
  -3  -2   041782.98  961.89   1 0.00000 0.06025 0.83783 0.99369 0.54592 0.09458
   3   2   040965.99 1025.00   1 0.00000-0.06024 0.99616 0.84033 0.08752 0.53871
  -3  -2   037242.19 1018.88   1-0.16459-0.10551 0.83536 0.99176 0.52446 0.07253
   3   2   042675.89  966.33   1-0.23988-0.29797-0.78973-0.94782-0.56459-0.11333
  -3  -2  -1 1048.93  137.03   1 0.00000 0.07387 0.78126 0.98013 0.62419 0.18407
   3   2   1 1275.55  170.13   1 0.00000-0.07385 0.98474 0.78588 0.17400 0.61394
  -3  -2  -1  978.75  155.79   1-0.26561-0.19304 0.77208 0.97161 0.57735 0.13675
   3   2   1 1117.95  141.27   1-0.40599-0.47743-0.65504-0.85620-0.63725-0.19738
  -3  -2  -221940.01  647.20   1 0.00000 0.08749 0.71772 0.95959 0.69632 0.26743
   3   2   222833.96  754.92   1 0.00000-0.08745 0.96715 0.72526 0.25420 0.68289
  -3  -2  -222622.45  708.63   1-0.35477-0.26853 0.70208 0.94472 0.61742 0.18808
   3   2   222551.52  643.17   1-0.55557-0.64077-0.48114-0.72591-0.67810-0.24989
  -3  -2  -328879.59  742.38   1 0.00000 0.10110 0.64893 0.93381 0.76084 0.34317
   3   2   329075.46  870.25   1 0.00000-0.10106 0.94507 0.66016 0.32685 0.74429
  -3  -2  -327975.49  739.51   1-0.43122-0.33130 0.62980 0.91556 0.64605 0.22798
   3   2   328630.81  693.45   1-0.66630-0.76484-0.29867-0.58651-0.68325-0.26647
  -3  -2  -435612.73  821.88   1 0.00000 0.11472 0.57673 0.90462 0.81693 0.41047
   3   2   436630.03  885.66   1 0.00000-0.11472 0.92044 0.59255 0.39086 0.79731
  -3  -2  -435803.73  879.59   1-0.49559-0.38200 0.55841 0.88729 0.66524 0.25843
   3   2   434804.22  663.63   1-0.73774-0.84963-0.12949-0.46039-0.66254-0.25720
  -3  -2  -5   13.84   88.94   1 0.00000 0.12834 0.50284 0.87374 0.86437 0.46914
   3   2   5   62.43  106.23   1 0.00000-0.12834 0.89454 0.52364 0.44698 0.84221
  -3  -2  -5  105.09   96.76   1-0.54931-0.42204 0.48977 0.86177 0.67703 0.28147
   3   2   5  -66.04  128.12   1-0.02739-0.15489 0.89695 0.52497 0.44126 0.83690
   3   2   5   24.43   44.26   1-0.77792-0.90315 0.01422-0.35973-0.62820-0.23430
  -3  -2  -611681.18  403.05   1 0.00000 0.14195 0.42873 0.84264 0.90342 0.51942
   3   2   611505.06  455.34   1 0.00000-0.14195 0.86881 0.45490 0.49514 0.87915
  -3  -2  -610878.13  399.80   1-0.59402-0.45307 0.42477 0.83988 0.68315 0.29885
   3   2   610966.91  466.30   1-0.08019-0.22138 0.87644 0.46134 0.47477 0.85915
   3   2   611168.19  348.83   1-0.79722-0.93580 0.13149-0.28553-0.58918-0.20672
  -3  -2  -610582.52  469.09   1-0.16557-0.02736-0.83483-0.41826-0.52501-0.90791
  -3  -2  -715075.35  612.67   1 0.00000 0.15828 0.35336 0.80993 0.93548 0.56475
   3   2   718069.03  574.56   1 0.00000-0.15557 0.84426 0.38734 0.53592 0.90871
  -3  -2  -718650.85  533.36   1-0.63128-0.47666 0.36363 0.82186 0.68501 0.31197
   3   2   719957.05  653.91   1-0.12339-0.27827 0.85671 0.39849 0.50081 0.87393
  -3  -2  -717559.53  629.14   1-0.24998-0.09842-0.78293-0.32328-0.56966-0.94116
  -3  -2  -825611.46  780.04   1 0.00000 0.17192 0.28178 0.78127 0.95947 0.60004
   3   2   825375.38  713.34   1 0.00000-0.16919 0.82161 0.32168 0.57004 0.93160
  -3  -2  -825950.54  620.39   1-0.66244-0.49414 0.30625 0.80760 0.68364 0.32186
   3   2   825348.00  725.77   1-0.15827-0.32682 0.83880 0.33747 0.52091 0.88277
  -3  -2  -824691.39  871.21   1-0.31623-0.15132-0.73409-0.23136-0.60091-0.96102
  -3  -2  -9 5010.29  351.82   1 0.00000 0.18556 0.21250 0.75490 0.97716 0.62903
   3   2   9 5000.25  317.85   1 0.00000-0.18280 0.80131 0.25837 0.59824 0.94859
  -3  -2  -9 5829.51  337.23   1-0.68860-0.50663 0.25233 0.79680 0.67981 0.32929
   3   2   9 4977.50  313.28   1-0.18605-0.36829 0.82325 0.27880 0.53631 0.88692
  -3  -2  -9 4926.61  341.05   1-0.36719-0.18892-0.69117-0.14535-0.62245-0.97117
  -3  -2 -1016993.58  591.96   1 0.00000 0.19920 0.14583 0.73114 0.98931 0.65248
   3   2  1020559.59  689.98   1 0.00000-0.19642 0.78359 0.19765 0.62127 0.96039
  -3  -2 -1022254.78  698.39   1-0.71103-0.51517 0.20058 0.78825 0.67394 0.33652
   3   2  1022002.74  877.16   1-0.20807-0.40373 0.81008 0.22250 0.54814 0.88740
  -3  -2 -1021462.29  811.17   1-0.40586-0.21425-0.65516-0.06626-0.63720-0.97452
  -3  -2 -1121189.48  558.34   1 0.00000 0.21285 0.08190 0.71013 0.99664 0.67111
   3   2  1126701.65  779.57   1 0.00000-0.21003 0.76856 0.13960 0.63977 0.96767
  -3  -2 -1127579.03  686.81   1-0.72957-0.52003 0.15257 0.78330 0.66665 0.34059
   3   2  1126556.49  889.62   1-0.22478-0.43411 0.79959 0.16890 0.55688 0.88488
  -3  -2 -1125489.08  797.65   1-0.43486-0.22989-0.62604 0.00592-0.64727-0.97319
  -3  -2 -12 2816.82  232.18   1 0.00000 0.22649 0.02073 0.69188 0.99978 0.68556
   3   2  12 3386.19  273.46   1 0.00000-0.22365 0.75619 0.08423 0.65434 0.97102
  -3  -2 -12 3866.43  272.00   1-0.74525-0.52201 0.10696 0.78073 0.65814 0.34343
   3   2  12 3688.47  353.86   1-0.23719-0.46019 0.79152 0.11770 0.56323 0.87997
  -3  -2 -12 3653.92  243.39   1-0.45623-0.23792-0.60332 0.07173-0.65410-0.96863
  -3  -2 -13   22.70   94.56   1 0.00000 0.24013-0.03774 0.67631 0.99928 0.69636
  -3  -2 -13   15.23   74.36   1-0.75847-0.52155 0.06342 0.78025 0.64860 0.34524
  -3  -2 -13   -4.02  110.63   1-0.47156-0.23989-0.58632 0.13181-0.65867-0.96180
  -3  -2 -14 2747.85  372.12   1 0.00000 0.25377-0.09365 0.66332 0.99560 0.70398
  -3  -2 -14 3734.05  233.60   1-0.76958-0.51896 0.02168 0.78156 0.63817 0.34616
  -3  -2 -14 2909.25  276.93   1-0.48203-0.23701-0.57436 0.18685-0.66162-0.95336
  -3  -2 -15  487.87  108.36   1 0.00000 0.26741-0.14714 0.65275 0.98911 0.70880
  -3  -2 -15  479.31  106.70   1-0.77883-0.51452-0.01848 0.78443 0.62695 0.34629
  -3  -2 -15  291.79  108.08   1-0.48851-0.23013-0.56681 0.23748-0.66338-0.94373
  -3  -3  16   47.10  108.07   1 0.00000-0.07742 0.98334 0.45287-0.18175-0.88820
  -3  -3  15  640.09  155.64   1 0.00000-0.06382 0.98551 0.49807-0.16958-0.86478
  -3  -3  1425369.99 1012.82   1 0.00000-0.05021 0.98809 0.54368-0.15383-0.83778
  -3  -3  1422458.12  948.39   1-0.79130-0.84416-0.08681-0.53008 0.60522-0.07994
  -3  -3  1331831.64 1068.49   1 0.00000-0.03661 0.99095 0.58957-0.13418-0.80688
  -3  -3  1330215.44 1123.22   1-0.79809-0.83726-0.13949-0.53972 0.58616-0.08765
  -3  -3  12   84.94   88.36   1 0.00000-0.01579-0.63543-0.99374 0.77215 0.11052
  -3  -3  12  159.31  102.30   1 0.00000-0.02300 0.99390 0.63554-0.11026-0.77171
  -3  -3  12  170.97   90.76   1-0.80251-0.82799-0.19483-0.55200 0.56392-0.09854
  -3  -3  11 1549.48  163.85   1 0.00000-0.00251-0.68135-0.99665 0.73195 0.08167
  -3  -3  11 1376.13  143.96   1 0.00000-0.00940 0.99665 0.68132-0.08171-0.73191
  -3  -3  11 1755.91  205.49   1-0.80406-0.81585-0.25296-0.56709 0.53804-0.11307
  -3  -3  10  666.06  155.15   1 0.00000 0.01077-0.72649-0.99877 0.68717 0.04824
  -3  -3  10  557.91  159.33   1 0.00000 0.00420 0.99883 0.72654-0.04815-0.68711
  -3  -3  10  560.02  118.49   1-0.80211-0.80022-0.31396-0.58504 0.50796-0.13180
  -3  -3   9 1768.59  155.68   1 0.00000 0.02405-0.77038-0.99966 0.63757 0.01000
  -3  -3   9 1798.16  172.24   1 0.00000 0.01781 0.99995 0.77068-0.00926-0.63696
  -3  -3   9 1457.31  209.90   1-0.79590-0.78031-0.37776-0.60578 0.47310-0.15531
  -3  -3   8  262.26   85.11   1 0.00000 0.03734-0.81249-0.99874 0.58297-0.03324
  -3  -3   8  558.29  145.57   1 0.00000 0.03141 0.99937 0.81313 0.03523-0.58122
  -3  -3   8  336.83   85.50   1-0.78451-0.75523-0.44405-0.62902 0.43284-0.18422
  -3  -3   735283.51  691.23   1 0.00000 0.05062-0.85213-0.99538 0.52331-0.08155
  -3  -3   736307.71  803.91   1 0.00000 0.04502 0.99634 0.85312 0.08545-0.51975
  -3  -3   611952.46  399.61   1 0.00000 0.06391-0.88857-0.98881 0.45872-0.13479
  -3  -3   613324.47  512.67   1 0.00000 0.05862 0.98996 0.88977 0.14133-0.45261
  -3  -3   511575.11  436.10   1 0.00000 0.07223 0.97926 0.92210 0.20257-0.38013
   3   3  -510888.66  476.15   1 0.00000-0.07230 0.92123 0.97838-0.38899 0.19374
  -3  -3   4   84.86   81.20   1 0.00000 0.08583 0.96327 0.94914 0.26853-0.30292
   3   3  -4  109.16   89.32   1 0.00000-0.08583 0.94882 0.96295-0.31581 0.25564
  -3  -3   3  448.66  124.37   1 0.00000 0.09944 0.94106 0.96996 0.33822-0.22199
   3   3  -3  297.46  126.45   1 0.00000-0.09944 0.97087 0.94197-0.23959 0.32061
  -3  -3   2 2515.62  216.79   1 0.00000 0.11310 0.91187 0.98387 0.41046-0.13856
   3   3  -2 2669.54  207.13   1 0.00000-0.11304 0.98686 0.91494-0.16153 0.38743
  -3  -3   118199.57  555.95   1 0.00000 0.12672 0.87543 0.99044 0.48333-0.05447
   3   3  -119143.89  661.63   1 0.00000-0.12665 0.99654 0.88159-0.08301 0.45469
  -3  -3   119309.37  723.66   1-0.07020 0.05514 0.88063 0.99601 0.46857-0.07016
   3   3  -119929.40  586.94   1-0.14895-0.27352-0.84376-0.96159-0.51562 0.02260
  -3  -3   0 4759.65  282.31   1 0.00000 0.14033 0.83167 0.98968 0.55526 0.02867
   3   3   0 4349.38  278.34   1 0.00000-0.14025 0.99998 0.84200-0.00554 0.52092
  -3  -3   0 4999.28  355.62   1-0.15351-0.01447 0.84135 0.99985 0.51822-0.00925
   3   3   0 4687.00  305.97   1-0.34501-0.48294-0.71045-0.87136-0.61336-0.08653
  -3  -3  -114655.24  482.40   1 0.00000 0.15395 0.78100 0.98203 0.62452 0.10915
   3   3   114811.53  574.03   1 0.00000-0.15386 0.99758 0.79657 0.06941 0.58462
  -3  -3  -115347.29  572.59   1-0.23330-0.08081 0.79407 0.99570 0.56125 0.04510
   3   3   114354.88  491.02   1-0.54901-0.70075-0.49019-0.69480-0.67697-0.16182
  -3  -3  -2  121.05   77.49   1 0.00000 0.16756 0.72423 0.96827 0.68955 0.18540
   3   3   2    5.08  116.70   1 0.00000-0.16746 0.99007 0.74603 0.14053 0.64450
  -3  -3  -2  103.80   78.63   1-0.30757-0.14141 0.74090 0.98565 0.59703 0.09214
   3   3   2  167.92   51.42   1-0.70651-0.87160-0.21149-0.45917-0.67535-0.17164
  -3  -3  -316363.91  496.10   1 0.00000 0.18118 0.66245 0.94949 0.74910 0.25617
   3   3   316037.17  599.73   1 0.00000-0.18107 0.97838 0.69132 0.20677 0.69949
  -3  -3  -315746.82  595.47   1-0.37523-0.19539 0.68393 0.97179 0.62564 0.13201
   3   3   314504.66  425.06   1-0.78687-0.96530 0.05985-0.23088-0.61420-0.12192
  -3  -3  -4 8630.11  341.86   1 0.00000 0.19480 0.59691 0.92696 0.80230 0.32059
   3   3   4 8400.58  396.61   1 0.00000-0.19468 0.96358 0.63349 0.26739 0.74885
  -3  -3  -4 8079.72  413.75   1-0.43582-0.24230 0.62505 0.95602 0.64758 0.16521
  -3  -3  -513482.02  470.02   1 0.00000 0.20841 0.52889 0.90195 0.84868 0.37820
   3   3   514041.67  555.98   1 0.00000-0.20828 0.94674 0.57362 0.32197 0.79219
  -3  -3  -513865.17  465.59   1-0.48942-0.28223 0.56573 0.93982 0.66363 0.19252
  -3  -3  -6   -5.81   70.03   1 0.00000 0.22203 0.45958 0.87565 0.88813 0.42887
   3   3   6  -27.68   98.09   1 0.00000-0.22189 0.92886 0.51271 0.37042 0.82939
  -3  -3  -6  117.32  124.25   1-0.53645-0.31559 0.50706 0.92427 0.67461 0.21476
  -3  -3  -7   79.00   99.82   1 0.00000 0.23877 0.38755 0.84616 0.92184 0.47643
   3   3   7  158.75   87.27   1 0.00000-0.23565 0.91104 0.45196 0.41230 0.86034
  -3  -3  -7   27.41  120.53   1-0.57751-0.34297 0.44972 0.91005 0.68133 0.23274
  -3  -3  -8   67.12   79.36   1 0.00000 0.25241 0.31837 0.81989 0.94796 0.51385
   3   3   8   38.44  109.04   1 0.00000-0.24926 0.89354 0.39145 0.44897 0.88579
  -3  -3  -8   88.34  101.03   1-0.61324-0.36502 0.39413 0.89757 0.68453 0.24720
   3   3   8  -26.61  122.35   1-0.02524-0.27375 0.89771 0.39428 0.43986 0.87726
  -3  -3  -8   24.88   71.82   1-0.09349 0.15124-0.87065-0.36509-0.48292-0.91860
  -3  -3  -9 6646.65  392.05   1 0.00000 0.26605 0.25044 0.79487 0.96813 0.54532
   3   3   9 6629.06  337.42   1 0.00000-0.26288 0.87709 0.33200 0.48031 0.90590
  -3  -3  -9 7195.45  327.73   1-0.64429-0.38239 0.34047 0.88703 0.68480 0.25873
   3   3   9 6975.20  484.08   1-0.05510-0.31729 0.88668 0.34014 0.45908 0.88522
  -3  -3  -9 7082.11  514.65   1-0.18026 0.07782-0.82658-0.27794-0.53315-0.95743
  -3  -3 -1044548.88  970.99   1 0.00000 0.27969 0.18419 0.77154 0.98289 0.57138
   3   3  1035645.55  830.41   1 0.00000-0.27649 0.86208 0.27398 0.50675 0.92113
  -3  -3 -1041128.07  830.83   1-0.67124-0.39567 0.28878 0.87846 0.68266 0.26785
   3   3  1035647.21  919.05   1-0.07985-0.35572 0.87659 0.28693 0.47456 0.88945
  -3  -3 -1038095.75 1016.55   1-0.24636 0.02508-0.78539-0.19366-0.56785-0.98074
  -3  -3 -11117811.9 1531.12   1 0.00000 0.29334 0.11992 0.75019 0.99278 0.59258
  -3  -3 -11116141.9 1341.37   1-0.69505-0.40567 0.23804 0.87103 0.67840 0.27698
   3   3  11102060.6 1979.78   1-0.10003-0.38959 0.86771 0.23494 0.48688 0.89051
  -3  -3 -11110655.8 1704.79   1-0.29615-0.01135-0.74969-0.11488-0.59182-0.99331
  -3  -3 -1210958.75  430.78   1 0.00000 0.30698 0.05781 0.73099 0.99832 0.60943
  -3  -3 -1212223.73  441.74   1-0.71523-0.41215 0.19018 0.86622 0.67251 0.28244
  -3  -3 -1210700.38  539.02   1-0.33329-0.03514-0.72026-0.04237-0.60838-0.99848
  -3  -3 -13 1161.03  197.42   1 0.00000 0.32062-0.00208 0.71401 0.99999 0.62240
  -3  -3 -13 1023.44  168.90   1-0.73266-0.41589 0.14402 0.86311 0.66517 0.28646
  -3  -3 -14    1.22   84.27   1 0.00000 0.33426-0.05977 0.69924 0.99821 0.63191
  -3  -4  1515593.18  681.09   1 0.00000 0.01618 0.99602 0.51073-0.08911-0.85958
  -3  -4  14 5363.86  398.48   1 0.00000 0.02979 0.99740 0.55514-0.07199-0.83121
  -3  -4  13  -68.89  142.67   1 0.00000 0.04340 0.99868 0.59945-0.05125-0.79923
   3   4 -13   28.09   86.24   1-0.79613-0.84091 0.12217 0.51755-0.59265 0.15810
  -3  -4  12  -14.95   95.46   1 0.00000 0.05700 0.99964 0.64344-0.02664-0.76336
  -3  -4  12  -24.77   88.75   1-0.80383-0.74947-0.27313-0.62804 0.52843-0.20938
   3   4 -12   51.96   84.36   1-0.79822-0.85634 0.14070 0.49301-0.58569 0.15362
  -3  -4  11  308.86  124.92   1 0.00000 0.07061 0.99999 0.68682 0.00208-0.72338
  -3  -4  11  273.74  151.01   1-0.80101-0.73296-0.32953-0.64139 0.49978-0.22667
   3   4 -11  332.39  104.19   1-0.79990-0.87137 0.15820 0.46744-0.57890 0.14898
  -3  -4  10  154.29   83.16   1 0.00000 0.09145-0.72571-0.99548 0.68799-0.02557
  -3  -4  10   83.13  171.42   1 0.00000 0.08421 0.99938 0.72923 0.03516-0.67906
  -3  -4  10  185.06  122.00   1-0.79458-0.71284-0.38736-0.65616 0.46753-0.24758
  -3  -4   9  737.76  137.26   1 0.00000 0.10474-0.76597-0.99272 0.64286-0.05934
  -3  -4   9  739.18  129.56   1 0.00000 0.09782 0.99734 0.77023 0.07275-0.63022
  -3  -4   810311.15  387.98   1 0.00000 0.11802-0.80452-0.98826 0.59391-0.09694
  -3  -4   811316.14  417.78   1 0.00000 0.11142 0.99336 0.80927 0.11496-0.57676
  -3  -4   7 1351.81  148.54   1 0.00000 0.13131-0.84091-0.98163 0.54116-0.13834
  -3  -4   7 1454.49  157.13   1 0.00000 0.12503 0.98682 0.84576 0.16178-0.51870
  -3  -4   613056.91  440.95   1 0.00000 0.14459-0.87463-0.97234 0.48477-0.18338
  -3  -4   613348.37  475.93   1 0.00000 0.13863 0.97704 0.87901 0.21303-0.45620
  -3  -4   5 3208.11  230.54   1 0.00000 0.15224 0.96331 0.90830 0.26837-0.38961
  -3  -4   4 1561.35  190.92   1 0.00000 0.16584 0.94494 0.93296 0.32724-0.31949
   3   4  -4 1227.18  166.95   1 0.00000-0.16584 0.93217 0.94415-0.36200 0.28472
  -3  -4   3 3345.38  315.05   1 0.00000 0.17956 0.92122 0.95236 0.38904-0.24647
   3   4  -3 3434.73  253.39   1 0.00000-0.17945 0.95481 0.92377-0.29718 0.33829
  -3  -4   2  345.37  121.09   1 0.00000 0.19318 0.89182 0.96598 0.45237-0.17191
   3   4  -2  254.31  106.43   1 0.00000-0.19305 0.97297 0.89889-0.23090 0.39333
  -3  -4   2  217.13  133.49   1-0.03090 0.16071 0.89571 0.97007 0.44354-0.18199
   3   4  -2  359.26  117.41   1-0.09429-0.28534-0.87030-0.94787-0.48341 0.14177
  -3  -4   1  455.81  123.90   1 0.00000 0.20679 0.85641 0.97358 0.51628-0.09678
   3   4  -1  418.60  112.89   1 0.00000-0.20666 0.98645 0.86934-0.16406 0.44892
  -3  -4   1  858.19  168.44   1-0.09837 0.10692 0.86846 0.98594 0.48588-0.12839
   3   4  -1  432.28   73.48   1-0.79487-0.99980 0.11208-0.00931-0.59633 0.01718
   3   4  -1  458.26  100.18   1-0.32185-0.52626-0.72959-0.85025-0.60340 0.01039
  -3  -4   0 8559.26  378.66   1 0.00000 0.22041 0.81497 0.97514 0.57949-0.02234
   3   4   0 9021.24  395.84   1 0.00000-0.22026 0.99522 0.83508-0.09764 0.50409
  -3  -4   0 7780.55  468.01   1-0.16542 0.05356 0.83491 0.99550 0.52493-0.07809
  -3  -4  -1  382.29  122.85   1 0.00000 0.23403 0.76775 0.97093 0.64074 0.05012
   3   4   1  152.18  124.40   1 0.00000-0.23387 0.99946 0.79630-0.03263 0.55785
  -3  -4  -1   91.69  103.94   1-0.23071 0.00169 0.79576 0.99949 0.55993-0.03176
  -3  -4  -2 9078.53  388.95   1 0.00000 0.24764 0.71526 0.96145 0.69885 0.11945
   3   4   2 8250.58  395.97   1 0.00000-0.24748 0.99954 0.75335 0.03002 0.60926
  -3  -4  -2 7959.89  373.29   1-0.29310-0.04702 0.75199 0.99884 0.59040 0.00997
  -3  -4  -3 1905.59  182.10   1 0.00000 0.26126 0.65824 0.94744 0.75280 0.18462
   3   4   3 1590.06  207.34   1 0.00000-0.26108 0.99598 0.70676 0.08951 0.65750
  -3  -4  -3 1682.24  218.14   1-0.35176-0.09200 0.70468 0.99464 0.61618 0.04700
  -3  -4  -4 4379.22  259.38   1 0.00000 0.27488 0.59756 0.92977 0.80181 0.24486
   3   4   4 4028.47  275.31   1 0.00000-0.27469 0.98940 0.65715 0.14517 0.70191
  -3  -4  -4 4101.27  272.60   1-0.40614-0.13270 0.65489 0.98797 0.63730 0.07938
  -3  -4  -5 1150.45  148.50   1 0.00000 0.28849 0.53416 0.90938 0.84537 0.29964
   3   4   5 1031.56  153.68   1 0.00000-0.28829 0.98049 0.60522 0.19652 0.74201
  -3  -4  -5  843.66  145.23   1-0.45600-0.16889 0.60357 0.97976 0.65403 0.10736
  -3  -4  -6 1072.51  161.58   1 0.00000 0.30211 0.46898 0.88720 0.88320 0.34869
   3   4   6  806.13  177.14   1 0.00000-0.30190 0.96995 0.55165 0.24327 0.77751
  -3  -4  -6  879.30  137.53   1-0.50131-0.20052 0.55154 0.97085 0.66670 0.13129
  -3  -4  -711280.18  448.03   1 0.00000 0.31572 0.40286 0.86410 0.91525 0.39196
   3   4   710248.17  447.69   1 0.00000-0.31550 0.95843 0.49710 0.28530 0.80829
  -3  -4  -710578.25  443.10   1-0.54219-0.22772 0.49942 0.96185 0.67572 0.15158
  -3  -4  -8  363.17  119.54   1 0.00000 0.33290 0.33363 0.83718 0.94270 0.43392
   3   4   8  323.96  152.46   1 0.00000-0.32911 0.94652 0.44216 0.32262 0.83437
  -3  -4  -8  638.12  164.93   1-0.57887-0.25073 0.44771 0.95325 0.68150 0.16862
  -3  -4  -9  -26.94   90.57   1 0.00000 0.34654 0.26759 0.81406 0.96353 0.46605
   3   4   9   42.58  152.06   1 0.00000-0.34271 0.93472 0.38733 0.35537 0.85587
  -3  -4  -9   -9.78   91.11   1-0.61166-0.26984 0.39672 0.94538 0.68445 0.18282
  -3  -4 -10 1056.68  198.88   1 0.00000 0.36018 0.20251 0.79190 0.97927 0.49310
  -3  -4 -10 1797.36  298.73   1-0.64086-0.28536 0.34668 0.93846 0.68491 0.19454
  -3  -4 -11 9465.73  542.65   1 0.00000 0.37383 0.13877 0.77107 0.99032 0.51544
  -3  -4 -1110353.71  581.50   1-0.66678-0.29761 0.29772 0.93261 0.68319 0.20409
  -3  -4 -12 3211.50  254.76   1 0.00000 0.38747 0.07661 0.75183 0.99706 0.53348
  -3  -4 -12 4184.27  367.52   1-0.68972-0.30688 0.24988 0.92789 0.67958 0.21173
  -3  -5  13 8537.92  472.58   1 0.00000 0.12341 0.99940 0.60232 0.03459-0.78865
  -3  -5  12   93.87   89.35   1 0.00000 0.13701 0.99822 0.64417 0.05949-0.75250
   3   5 -12   73.07   92.46   1-0.77685-0.91487 0.00935 0.35876-0.62960 0.18521
  -3  -5  11 7843.23  457.99   1 0.00000 0.15062 0.99611 0.68509 0.08803-0.71271
   3   5 -11 6328.56  313.68   1-0.77847-0.92984 0.01683 0.32317-0.62744 0.17594
  -3  -5  10 4971.46  344.69   1 0.00000 0.16422 0.99273 0.72473 0.12033-0.66916
   3   5 -10 3943.17  251.53   1-0.77945-0.94415 0.02142 0.28470-0.62609 0.16585
  -3  -5   9   17.80  159.13   1 0.00000 0.17783 0.98768 0.76271 0.15645-0.62180
   3   5  -9   -1.73   59.50   1-0.77965-0.95771 0.02239 0.24260-0.62580 0.15470
  -3  -5   8 9616.10  488.30   1 0.00000 0.19143 0.98052 0.79858 0.19638-0.57062
   3   5  -8 9067.81  410.16   1-0.77887-0.97027 0.01869 0.19583-0.62689 0.14217
  -3  -5   7 3814.83  322.50   1 0.00000 0.20504 0.97076 0.83185 0.24002-0.51572
   3   5  -7 3993.96  272.52   1-0.77671-0.98145 0.00871 0.14280-0.62979 0.12784
  -3  -5   6 2217.57  195.76   1 0.00000 0.22528-0.85353-0.94872 0.52104-0.22175
  -3  -5   6 2806.00  272.08   1 0.00000 0.21864 0.95787 0.86199 0.28717-0.45733
   3   5  -6 2686.25  204.11   1-0.77240-0.99049-0.01005 0.08096-0.63504 0.11115
  -3  -5   5 1454.54  180.83   1 0.00000 0.23857-0.88294-0.93512 0.46946-0.26197
  -3  -5   5 1656.04  235.33   1 0.00000 0.23225 0.94133 0.88848 0.33746-0.39579
   3   5  -5 1605.18  177.73   1-0.76436-0.99580-0.04203 0.00592-0.64341 0.09134
  -3  -5   4 3130.59  254.34   1 0.00000 0.24602 0.92055 0.91085 0.39061-0.33137
   3   5  -4 2495.02  228.67   1 0.00000-0.24594 0.90967 0.91947-0.41531 0.30673
   3   5  -4 2851.27  223.40   1-0.74877-0.99356-0.09588-0.09099-0.65584 0.06747
  -3  -5   3 4821.54  297.66   1 0.00000 0.25964 0.89526 0.92856 0.44554-0.26522
   3   5  -3 4324.53  360.59   1 0.00000-0.25946 0.93297 0.89977-0.35993 0.35082
  -3  -5   3 4271.98  313.59   1-0.02199 0.23588 0.89883 0.93217 0.43773-0.27461
   3   5  -3 4282.64  285.05   1-0.71385-0.97198-0.19363-0.23180-0.67299 0.03889
   3   5  -3 4328.26  318.40   1-0.09402-0.35156-0.87042-0.90774-0.48324 0.22891
  -3  -5   2  326.19  155.40   1 0.00000 0.27326 0.86505 0.94137 0.50168-0.19786
   3   5  -2  218.76   90.51   1 0.00000-0.27307 0.95287 0.87664-0.30336 0.39614
  -3  -5   2  347.56  146.86   1-0.07738 0.19418 0.87763 0.95408 0.47303-0.22805
  -3  -5   1 -124.74  145.80   1 0.00000 0.28687 0.82975 0.94907 0.55813-0.13019
   3   5  -1  121.92  129.06   1 0.00000-0.28667 0.96921 0.84995-0.24622 0.44203
  -3  -5   1  213.20  128.45   1-0.13345 0.15179 0.85172 0.97129 0.50669-0.18313
  -3  -5   0 8029.23  436.27   1 0.00000 0.30049 0.78935 0.95169 0.61393-0.06316
   3   5   0 6283.45  405.20   1 0.00000-0.30028 0.98194 0.81965-0.18916 0.48784
  -3  -5   0 7314.10  419.66   1-0.18936 0.10957 0.82132 0.98400 0.53812-0.14045
  -3  -5  -1 3645.93  291.64   1 0.00000 0.31411 0.74404 0.94938 0.66813 0.00225
   3   5   1 3315.41  259.56   1 0.00000-0.31388 0.99113 0.78581-0.13287 0.53288
  -3  -5  -1 3579.58  282.51   1-0.24429 0.06803 0.78678 0.99261 0.56682-0.10042
  -3  -5  -2 4691.47  316.22   1 0.00000 0.32772 0.69417 0.94252 0.71981 0.06515
   3   5   2 3827.21  268.76   1 0.00000-0.32749 0.99695 0.74860-0.07802 0.57648
  -3  -5  -2 4452.87  356.78   1-0.29755 0.02845 0.74862 0.99757 0.59246-0.06352
   3   5   3 1633.75  212.65   1 0.00000-0.34109 0.99968 0.70831-0.02524 0.61802
  -3  -5  -3 1705.75  232.70   1-0.34853-0.00885 0.70745 0.99951 0.61484-0.02988
   3   5   4  108.35  129.97   1 0.00000-0.35470 0.99968 0.66529 0.02493 0.65694
  -3  -5  -4  433.36  118.13   1-0.39681-0.04345 0.66387 0.99905 0.63388 0.00041
  -3  -5  -510485.54  525.17   1 0.00000 0.36857 0.52296 0.90034 0.85235 0.23136
   3   5   510601.59  614.15   1 0.00000-0.36830 0.99740 0.61997 0.07204 0.69280
  -3  -5  -511000.70  559.84   1-0.44207-0.07503 0.61851 0.99680 0.64963 0.02741
  -3  -5  -6  302.81  100.51   1 0.00000 0.38219 0.46100 0.88139 0.88739 0.27763
  -3  -5  -6  234.77  159.79   1-0.48415-0.10344 0.57190 0.99331 0.66220 0.05125
  -3  -5  -7   31.85   98.69   1 0.00000 0.39975 0.39476 0.85744 0.91878 0.32402
  -3  -5  -7  -11.67  141.54   1-0.52301-0.12862 0.52454 0.98906 0.67180 0.07210
  -3  -5  -8  143.79  131.19   1 0.00000 0.41339 0.33064 0.83623 0.94375 0.36029
  -3  -5  -8   69.71  123.40   1-0.55867-0.15061 0.47682 0.98447 0.67861 0.09018
  -3  -5  -9  236.10  105.72   1 0.00000 0.42703 0.26649 0.81500 0.96383 0.39168
  -3  -5  -9  341.27  106.77   1-0.59122-0.16948 0.42908 0.97984 0.68288 0.10571
  -3  -6   9   15.79  126.48   1 0.00000 0.25784 0.97040 0.74759 0.24146-0.61206
  -3  -6   8 1883.78  228.81   1 0.00000 0.27144 0.96026 0.78047 0.27909-0.56318
  -3  -6   7 6248.84  369.18   1 0.00000 0.28505 0.94750 0.81075 0.31972-0.51130
  -3  -6   5   34.87  115.60   1 0.00000 0.31248 0.91246 0.86191 0.40915-0.39930
  -3  -6   4  141.03  117.91   1 0.00000 0.32610 0.88949 0.88195 0.45693-0.34030
  -3  -6   4  363.78  144.56   1-0.03152 0.29262 0.89549 0.88780 0.44395-0.35520
  -3  -6   3   50.16  100.99   1 0.00000 0.33972 0.86245 0.89791 0.50614-0.27987
  -3  -6   3  192.40  109.69   1-0.07777 0.26005 0.87747 0.91290 0.47328-0.31461
  -3  -6   2  263.96  131.83   1 0.00000 0.35333 0.83110 0.90957 0.55612-0.21867
  -3  -6   2  191.03  163.80   1-0.12506 0.22644 0.85589 0.93444 0.50179-0.27484
  -3  -6   1 3110.15  296.58   1-0.17285 0.19234 0.83078 0.95244 0.52907-0.23631
  -3  -6   0  394.28  153.63   1 0.00000 0.38057 0.75517 0.91966 0.65552-0.09682
  -3  -6   0  361.46  170.22   1-0.22056 0.15801 0.80229 0.96710 0.55469-0.19936
  -3  -6  -1 1261.57  233.75   1-0.26774 0.12450 0.77057 0.97850 0.57838-0.16441
  -3  -6  -2 2138.08  380.02   1-0.31387 0.09205 0.73596 0.98700 0.59986-0.13167
  -3  -6  -3  779.13  165.17   1-0.35852 0.06107 0.69881 0.99297 0.61896-0.10132
  -3  -6  -4  -98.68  176.13   1-0.40137 0.03190 0.65951 0.99678 0.63556-0.07345
  -3  -6  -5  145.66  105.75   1-0.44213 0.00481 0.61843 0.99883 0.64965-0.04811
   4  -9  -213652.05  721.78   1-0.23198 0.64924 0.79494 0.69712 0.56058 0.30413
   4  -9  -213408.31  459.95   1-0.70242 0.17828-0.22116-0.31264-0.67652-0.93298
   4  -9  -1   88.47  112.22   1-0.18728 0.68035 0.82253 0.68155 0.53699 0.26946
   4  -9  -1   32.16   92.14   1-0.72018 0.14717-0.17759-0.31213-0.67067-0.93856
   4  -9   018455.02  802.09   1-0.14257 0.71138 0.84709 0.66299 0.51196 0.23317
   4  -9   020043.91  572.92   1-0.73608 0.11792-0.13429-0.31190-0.66343-0.94276
   4  -9   1 4746.13  435.53   1-0.09835 0.74191 0.86847 0.64126 0.48587 0.19582
   4  -9   1 4641.85  287.94   1-0.75013 0.09052-0.09152-0.31220-0.65491-0.94569
   4  -9   2   -5.07  152.17   1-0.05508 0.77150 0.88669 0.61635 0.45907 0.15776
   4  -9   2  -15.73   63.41   1-0.76236 0.06495-0.04946-0.31319-0.64525-0.94746
   4  -8  -8  394.85  152.80   1-0.48166 0.40170 0.57479 0.73356 0.66152 0.54818
   4  -8  -8  697.54  126.94   1-0.42797 0.45292-0.63314-0.46910-0.64495-0.75815
   4  -8  -7 6030.22  404.03   1-0.44087 0.42882 0.61977 0.73543 0.64924 0.52464
   4  -8  -7 6176.41  399.06   1-0.46212 0.40541-0.59686-0.47590-0.65589-0.78048
   4  -8  -6 4682.05  359.04   1-0.39743 0.45858 0.66328 0.73582 0.63411 0.49825
   4  -8  -6 4309.74  308.19   1-0.49662 0.35757-0.55719-0.47931-0.66551-0.80149
   4  -8  -5 1431.54  298.01   1-0.35155 0.49078 0.70486 0.73429 0.61609 0.46897
   4  -8  -5 1163.53  218.93   1-0.53002 0.31082-0.51549-0.48069-0.67330-0.81995
   4  -8  -4 4853.06  375.51   1-0.30353 0.52513 0.74404 0.73035 0.59520 0.43682
   4  -8  -4 4976.14  275.68   1-0.56337 0.26413-0.47019-0.47845-0.67935-0.83744
   4  -8  -317306.37  644.15   1-0.25377 0.56121 0.78034 0.72353 0.57154 0.40191
   4  -8  -316639.73  491.17   1-0.59527 0.21888-0.42283-0.47415-0.68327-0.85279
   4  -8  -216202.25  655.19   1-0.20277 0.59853 0.81332 0.71340 0.54533 0.36443
   4  -8  -214950.75  473.48   1-0.62527 0.17553-0.37399-0.46838-0.68494-0.86591
   4  -8  -1 6020.30  455.92   1-0.15120 0.63648 0.84258 0.69950 0.51690 0.32492
   4  -8  -1 5626.68  278.05   1-0.65304 0.13441-0.32426-0.46171-0.68438-0.87678
   4  -8   020362.57  880.69   1-0.09952 0.67448 0.86794 0.68175 0.48658 0.28333
   4  -8   018594.68  442.19   1-0.67836 0.09575-0.27416-0.45468-0.68165-0.88549
   4  -8   110380.92  554.40   1-0.04848 0.71184 0.88923 0.65992 0.45486 0.24036
   4  -8   1 9250.41  358.68   1-0.70112 0.05965-0.22419-0.44777-0.67688-0.89215
   4  -8   2    9.88   73.08   1 0.00000 0.74663 0.90379 0.63299 0.42796 0.20460
   4  -8   2   -2.43   70.79   1-0.72128 0.02613-0.17472-0.44136-0.67023-0.89694
   4  -8   3 1203.09  179.22   1 0.00000 0.73297 0.42342 0.10962 0.90593 0.67136
   4  -8   3 1315.88  207.32   1 0.00000 0.73231 0.98914 0.67523 0.14692-0.08814
   4  -8   3 1471.95  159.35   1-0.73891-0.00483-0.12605-0.43576-0.66189-0.90004
   4  -8   4   40.06  101.87   1 0.00000 0.72029 0.35299-0.00517 0.93562 0.69365
   4  -8   4  130.64   98.25   1 0.00000 0.71870 0.99982 0.64289-0.01853-0.26486
   4  -8   4  157.80   78.25   1-0.75410-0.03337-0.07843-0.43120-0.65204-0.90163
  -4   8  -4  157.59  110.62   1-0.10364-0.82432-0.86606-0.51313-0.48906-0.23913
   4  -8   5  873.94  254.28   1 0.00000 0.70664 0.30078-0.10030 0.95369 0.70042
   4  -8   5 2269.69  346.91   1 0.00000 0.70509 0.99093 0.59097-0.13432-0.39190
   4  -8   5 2139.56  284.19   1-0.76698-0.05959-0.03199-0.42782-0.64086-0.90189
  -4   8  -5 1630.26  285.44   1-0.15001-0.85734-0.84320-0.44718-0.51623-0.25490
   4  -8   6   22.64  102.38   1 0.00000 0.69300 0.26747-0.17652 0.96356 0.69898
   4  -8   6  274.57  125.69   1 0.00000 0.69149 0.97570 0.53271-0.21908-0.48791
   4  -8   6  210.99   88.79   1-0.77768-0.08364 0.01316-0.42573-0.62851-0.90097
   4  -8   717265.56  755.64   1 0.00000 0.67788 0.95925 0.47324-0.28252-0.56259
   4  -8   715344.36  532.10   1-0.78636-0.10567 0.05700-0.42496-0.61512-0.89902
   4  -8   827062.47  897.02   1 0.00000 0.66427 0.94378 0.41474-0.33054-0.62186
   4  -8   825283.64  555.34   1-0.79316-0.12581 0.09950-0.42552-0.60082-0.89615
   4  -8   9 6869.77  408.88   1 0.00000 0.65067 0.93020 0.35813-0.36702-0.66960
   4  -8   9 6570.54  306.66   1-0.79821-0.14421 0.14068-0.42740-0.58570-0.89248
   4  -7 -12 1040.60  184.83   1-0.63499 0.22315 0.35713 0.68628 0.68500 0.69225
   4  -7 -12 1129.06  164.62   1-0.16057 0.69389-0.83756-0.50402-0.52221-0.51426
   4  -7 -11 8246.31  476.14   1-0.60529 0.23917 0.40702 0.69304 0.68406 0.68005
   4  -7 -11 7804.71  417.56   1-0.18929 0.65183-0.82136-0.53090-0.53808-0.54152
   4  -7 -10   46.38  102.70   1-0.57227 0.25852 0.45739 0.70031 0.68064 0.66537
   4  -7 -10   71.77  125.73   1-0.22131 0.60645-0.80180-0.55443-0.55508-0.56992
   4  -7  -9 1018.84  171.97   1-0.53573 0.28138 0.50801 0.70781 0.67446 0.64793
   4  -7  -9 1290.58  157.96   1-0.25642 0.55799-0.77851-0.57422-0.57285-0.59908
   4  -7  -810417.87  632.62   1-0.49551 0.30793 0.55851 0.71519 0.66522 0.62743
   4  -7  -8 9658.08  494.58   1-0.29423 0.50683-0.75115-0.58994-0.59093-0.62856
   4  -7  -718659.58  903.96   1-0.45152 0.33824 0.60842 0.72198 0.65264 0.60359
   4  -7  -718491.98  758.74   1-0.33423 0.45348-0.71949-0.60136-0.60878-0.65781
   4  -7  -6 4102.10  308.31   1-0.40378 0.37231 0.65718 0.72762 0.63644 0.57614
   4  -7  -6 3981.69  293.62   1-0.37576 0.39859-0.68345-0.60840-0.62585-0.68627
   4  -7  -5  383.60  163.10   1-0.35243 0.40998 0.70411 0.73143 0.61645 0.54489
   4  -7  -5  564.07  120.99   1-0.41809 0.34292-0.64312-0.61115-0.64155-0.71337
   4  -7  -4 7430.17  475.29   1-0.29778 0.45095 0.74845 0.73266 0.59257 0.50974
   4  -7  -4 6954.55  375.70   1-0.46037 0.28727-0.59878-0.60990-0.65536-0.73857
   4  -7  -3 7221.11  394.12   1-0.24036 0.49470 0.78942 0.73051 0.56484 0.47075
   4  -7  -3 6590.62  302.53   1-0.50181 0.23249-0.55092-0.60512-0.66682-0.76142
   4  -7  -229799.97  984.39   1-0.18093 0.54048 0.82620 0.72414 0.53352 0.42834
   4  -7  -228226.57  672.16   1-0.54115 0.17976-0.50081-0.59810-0.67552-0.78099
   4  -7  -1  786.84  156.89   1-0.12020 0.58753 0.85826 0.71309 0.49893 0.38249
   4  -7  -1  721.35  132.54   1-0.57879 0.12878-0.44782-0.58818-0.68149-0.79840
   4  -7   018975.92  710.34   1-0.05926 0.63479 0.88504 0.69675 0.46171 0.33401
   4  -7   019025.40  516.03   1-0.61370 0.08053-0.39338-0.57680-0.68455-0.81290
   4  -7   123187.20  501.42   1-0.64553 0.03535-0.33820-0.56468-0.68476-0.82454
   4  -7   2 5186.08  414.14   1 0.00000 0.66651 0.53049 0.25754 0.84768 0.69959
   4  -7   2 4980.02  431.95   1 0.00000 0.66590 0.99980 0.72677-0.01988-0.16844
   4  -7   2 5582.73  269.86   1-0.67412-0.00658-0.28293-0.55248-0.68228-0.83349
   4  -7   3  152.24   94.59   1 0.00000 0.65229 0.97770 0.66165-0.20996-0.36976
   4  -7   3  136.76   68.30   1-0.69942-0.04522-0.22811-0.54072-0.67732-0.83998
  -4   7  -3  137.19  163.19   1-0.11297-0.76716-0.86172-0.54903-0.49464-0.33167
   4  -7   4  -35.85   90.52   1 0.00000 0.63979 0.35253-0.00766 0.93579 0.76850
   4  -7   4    0.96   90.85   1 0.00000 0.63868 0.94461 0.58552-0.32817-0.49922
   4  -7   4   34.92   68.02   1-0.72149-0.08064-0.17417-0.52985-0.67015-0.84424
  -4   7  -4  -30.94   93.16   1-0.16369-0.80453-0.83586-0.48010-0.52396-0.34959
   4  -7   5 6411.49  481.03   1 0.00000 0.62615 0.30557-0.09754 0.95216 0.77357
   4  -7   5 7860.40  519.17   1 0.00000 0.62507 0.91309 0.51104-0.40775-0.59000
   4  -7   5 7527.70  305.90   1-0.74048-0.11297-0.12144-0.52019-0.66101-0.84654
  -4   7  -5 7281.82  516.98   1-0.20896-0.83645-0.80953-0.41069-0.54861-0.36285
  -4   7  -6 5829.95  402.54   1 0.00000-0.61632-0.88819-0.44738 0.45946 0.64806
   4  -7   6 6757.28  531.82   1 0.00000 0.61251 0.27462-0.17140 0.96155 0.77165
   4  -7   6 8139.68  403.87   1-0.75654-0.14239-0.07014-0.51194-0.65016-0.84713
  -4   7  -6 7030.17  485.63   1-0.24890-0.86304-0.78367-0.34174-0.56912-0.37197
  -4   7  -746313.46 1849.66   1 0.00000-0.60304-0.86582-0.38199 0.50034 0.70029
   4  -7   742887.28 1625.34   1 0.00000 0.59886 0.25470-0.23424 0.96701 0.76582
   4  -7   748621.35 1589.17   1-0.76990-0.16909-0.02039-0.50526-0.63783-0.84623
  -4   7  -741288.69 1508.16   1-0.28376-0.88455-0.75896-0.27396-0.58604-0.37749
  -4   7  -885831.75 1768.35   1 0.00000-0.58975-0.84828-0.32143 0.52954 0.74085
   4  -7   872235.09 1391.35   1 0.00000 0.58522 0.24277-0.28909 0.97008 0.75758
   4  -7   875918.06 1516.15   1-0.78944-0.20579-0.41901-0.95103 0.44855 0.23059
   4  -7   887021.27  966.96   1-0.78075-0.19329 0.02773-0.50020-0.62421-0.84405
  -4   7  -948090.67 1154.16   1 0.00000-0.57647-0.83500-0.26515 0.55023 0.77289
   4  -7   945446.12 1058.04   1 0.00000 0.57158 0.23687-0.33790 0.97153 0.74773
   4  -7   944488.00  778.09   1-0.78931-0.21519 0.07420-0.49678-0.60948-0.84076
  -4   7 -10  691.29  157.50   1 0.00000-0.56318-0.82542-0.21255 0.56451 0.79852
   4  -7  10  323.97  123.96   1 0.00000 0.55794 0.23568-0.38201 0.97183 0.73672
   4  -7  10 1188.95  185.32   1-0.79575-0.23498 0.11906-0.49499-0.59379-0.83651
  -4   7 -11  -60.19  128.36   1 0.00000-0.54990-0.81901-0.16312 0.57378 0.81914
   4  -7  11  103.62   75.67   1-0.80025-0.25283 0.16233-0.49479-0.57726-0.83141
  -4   7 -12  401.21  105.99   1 0.00000-0.53661-0.81529-0.11640 0.57904 0.83575
   4  -6 -1411955.92  581.42   1-0.70971 0.09527 0.20380 0.61663 0.67436 0.78146
   4  -6 -1315889.08  715.82   1-0.68769 0.10421 0.25432 0.62448 0.67999 0.77405
   4  -6 -1121000.49  923.61   1-0.63504 0.12951 0.35705 0.64098 0.68500 0.75654
   4  -6 -10 9572.91  489.07   1-0.60306 0.14782 0.41059 0.65140 0.68390 0.74419
   4  -6 -10 8326.00  432.79   1-0.09243 0.65550-0.87112-0.62658-0.48227-0.42155
   4  -6  -9  472.75  128.34   1-0.56675 0.17045 0.46538 0.66307 0.67986 0.72888
   4  -6  -9  587.57  145.66   1-0.12846 0.60611-0.85421-0.65275-0.50379-0.45446
   4  -6  -8  129.65  125.41   1-0.52568 0.19783 0.52110 0.67568 0.67238 0.71014
   4  -6  -8  181.19  137.73   1-0.16831 0.55292-0.83331-0.67493-0.52654-0.48860
   4  -6  -7 8600.40  415.12   1-0.47949 0.23035 0.57728 0.68875 0.66092 0.68742
   4  -6  -7 7919.24  454.91   1-0.21161 0.49626-0.80790-0.69260-0.55001-0.52346
   4  -6  -615275.40  578.42   1-0.42789 0.26827 0.63321 0.70156 0.64493 0.66017
   4  -6  -614948.33  482.70   1-0.25782 0.43670-0.77754-0.70532-0.57354-0.55839
   4  -6  -510257.81  453.20   1-0.37080 0.31169 0.68793 0.71316 0.62389 0.62788
   4  -6  -5 9231.68  373.86   1-0.30619 0.37498-0.74198-0.71284-0.59641-0.59265
   4  -6  -4 6500.45  371.53   1-0.30839 0.36042 0.74026 0.72237 0.59740 0.59013
   4  -6  -4 5902.69  320.02   1-0.35581 0.31201-0.70118-0.71512-0.61784-0.62549
   4  -6  -359089.50 1190.32   1-0.24123 0.41391 0.78883 0.72783 0.56528 0.54674
   4  -6  -355909.88 1092.17   1-0.40563 0.24884-0.65539-0.71241-0.63712-0.65615
   4  -6  -2 4175.35  320.58   1-0.17038 0.47108 0.83216 0.72801 0.52770 0.49806
   4  -6  -2 4123.80  235.06   1-0.45460 0.18652-0.60510-0.70520-0.65359-0.68402
   4  -6  -1  200.45  147.21   1-0.09703 0.53075 0.86906 0.72180 0.48507 0.44418
   4  -6  -1   13.55   74.60   1-0.50171 0.12605-0.55104-0.69423-0.66680-0.70862
   4  -6   018438.70  622.38   1-0.02300 0.59110 0.89848 0.70810 0.43839 0.38624
   4  -6   017046.04  532.76   1-0.54586 0.06848-0.49447-0.68080-0.67640-0.72925
   4  -6   153184.71 1320.44   1 0.00000 0.60005 0.71401 0.48190 0.70013 0.63851
   4  -6   153544.55 1305.59   1 0.00000 0.59950 0.96674 0.73459-0.25573-0.31776
   4  -6   152771.52  871.82   1-0.58696 0.01403-0.43558-0.66497-0.68244-0.74673
  -4   6  -2 3754.00  439.25   1 0.00000-0.58878-0.89564-0.62436 0.44477 0.51332
   4  -6   2 7214.50  519.50   1 0.00000 0.58643 0.55132 0.27621 0.83428 0.76144
   4  -6   2 7488.46  316.48   1-0.62429-0.03664-0.37566-0.64812-0.68492-0.76065
  -4   6  -2 6974.85  438.75   1-0.10289-0.69060-0.86641-0.59398-0.48861-0.41260
  -4   6  -3 2142.54  276.03   1 0.00000-0.57549-0.83434-0.52005 0.55124 0.63114
   4  -6   3 3565.17  290.60   1 0.00000 0.57281 0.44988 0.13176 0.89308 0.80902
   4  -6   3 3494.16  225.73   1-0.65762-0.08332-0.31556-0.63108-0.68406-0.77122
  -4   6  -3 3386.57  247.25   1-0.15932-0.73369-0.83823-0.52272-0.52151-0.43410
  -4   6  -411203.24  548.04   1 0.00000-0.56221-0.78940-0.43209 0.61386 0.70512
   4  -6   411056.42  417.33   1 0.00000 0.55919 0.38227 0.02114 0.92404 0.82876
   4  -6   410245.34  333.65   1-0.68693-0.12597-0.25598-0.61456-0.68014-0.77874
  -4   6  -410582.23  589.61   1-0.20995-0.77096-0.80892-0.45033-0.54913-0.45034
  -4   6  -5  181.68   79.41   1 0.00000-0.54892-0.75711-0.35679 0.65328 0.75589
   4  -6   5  348.29  109.07   1 0.00000 0.54566 0.34236-0.06278 0.93956 0.83565
   4  -6   5  530.80   82.31   1-0.71230-0.16469-0.19744-0.59909-0.67352-0.78355
  -4   6  -5  441.64  106.97   1-0.25472-0.80238-0.77968-0.37801-0.57201-0.46182
  -4   6  -6 5041.02  315.24   1 0.00000-0.53564-0.73437-0.29104 0.67874 0.79270
   4  -6   6 4163.97  313.57   1 0.00000 0.53201 0.31024-0.13782 0.95065 0.83543
   4  -6   6 3626.02  242.74   1-0.73395-0.19968-0.14037-0.58508-0.66452-0.78600
  -4   6  -6 3853.02  280.26   1-0.29383-0.82814-0.75145-0.30669-0.59074-0.46916
  -4   6  -7  888.81  169.20   1 0.00000-0.52235-0.71893-0.23258 0.69507 0.82039
   4  -6   7 1077.07  162.78   1 0.00000 0.51837 0.28872-0.20225 0.95741 0.83089
   4  -6   7 2157.76  203.77   1-0.78987-0.27237-0.41661-0.90785 0.45003 0.31877
   4  -6   7 1923.95  147.40   1-0.75213-0.23120-0.08501-0.57279-0.65350-0.78641
  -4   6  -7 1666.88  275.15   1-0.32763-0.84859-0.72491-0.23707-0.60593-0.47295
  -4   6  -8117507.5 2166.98   1 0.00000-0.50907-0.70913-0.17977 0.70507 0.84174
   4  -6   8120638.7 2379.88   1 0.00000 0.50473 0.27514-0.25876 0.96140 0.82358
   4  -6   8124053.7 1620.22   1-0.79828-0.29447-0.35825-0.89254 0.48414 0.34153
   4  -6   8129276.2 1148.42   1-0.76710-0.25952-0.03153-0.56237-0.64074-0.78509
  -4   6  -8120222.5 2371.05   1-0.35654-0.86415-0.70054-0.16962-0.61815-0.47377
  -4   6  -9  852.63  154.14   1 0.00000-0.49578-0.70377-0.13139 0.71042 0.85844
   4  -6   9  889.42  138.28   1 0.00000 0.49109 0.26764-0.30917 0.96351 0.81439
   4  -6   9  485.66  138.16   1-0.80282-0.31270-0.30147-0.87881 0.51437 0.36041
   4  -6   9  526.97   83.85   1-0.77915-0.28492 0.01998-0.55391-0.62651-0.78230
  -4   6  -9  327.29  125.59   1-0.38103-0.87529-0.67863-0.10463-0.62790-0.47213
  -4   6 -10   37.14   77.25   1 0.00000-0.48250-0.70194-0.08654 0.71223 0.87160
   4  -6  10   73.45   82.15   1 0.00000 0.47745 0.26493-0.35479 0.96426 0.80383
   4  -6  10    0.70   78.55   1-0.80405-0.32762-0.24648-0.86687 0.54105 0.37574
   4  -6  10   42.14   87.16   1-0.78854-0.30765 0.06955-0.54741-0.61103-0.77825
  -4   6 -11 3286.06  263.12   1 0.00000-0.46921-0.70295-0.04455 0.71123 0.88195
   4  -6  11 3958.17  278.45   1 0.00000 0.46380 0.26608-0.39656 0.96394 0.79222
   4  -6  11 3593.74  301.38   1-0.80243-0.33969-0.19339-0.85683 0.56453 0.38787
   4  -6  11 4007.35  201.39   1-0.79552-0.32798 0.11718-0.54284-0.59448-0.77314
  -4   6 -12  726.21  159.93   1 0.00000-0.45593-0.70628-0.00486 0.70792 0.89000
   4  -6  12  486.34  135.64   1 0.00000 0.45016 0.27038-0.43518 0.96275 0.77972
   4  -6  12  492.31   89.67   1-0.80031-0.34612 0.16296-0.54013-0.57701-0.76710
  -4   6 -13  365.89   96.00   1 0.00000-0.44264-0.71152 0.03290 0.70266 0.89609
  -4   6 -14  404.71  182.52   1 0.00000-0.42936-0.71833 0.06911 0.69570 0.90048
  -4   5  15  396.23  127.22   1 0.00000-0.73717 0.96996 0.51581-0.24324-0.43647
   4  -5 -15  446.88  101.60   1-0.75384-0.01501 0.07930 0.53291 0.65224 0.84603
  -4   5  14   88.21   79.48   1 0.00000-0.72421 0.50060 0.08972 0.86567 0.68370
  -4   5  14  242.98  103.89   1 0.00000-0.72356 0.97698 0.56586-0.21330-0.39528
   4  -5 -14  162.17   93.89   1-0.73918-0.01403 0.12529 0.53585 0.66175 0.84419
  -4   5  13 1001.58  162.24   1 0.00000-0.71060 0.51087 0.14301 0.85965 0.68890
  -4   5  13 1031.09  178.08   1 0.00000-0.70996 0.98590 0.61781-0.16729-0.33802
   4  -5 -13  881.45  142.46   1-0.72184-0.01039 0.17326 0.54077 0.67000 0.84110
  -4   5  13  926.50  159.05   1-0.09375-0.80580 0.87054 0.50250 0.48308 0.31331
  -4   5  1211397.46  606.39   1 0.00000-0.69698 0.53416 0.20930 0.84538 0.68585
  -4   5  1211715.84  633.32   1 0.00000-0.69635 0.99525 0.67018-0.09728-0.25676
   4  -5 -1211596.27  570.66   1-0.70144-0.00367 0.22344 0.54790 0.67679 0.83653
  -4   5  12 9469.17  616.09   1-0.07316-0.77152 0.87940 0.55448 0.47041 0.31191
  -4   5  11 5025.87  370.64   1 0.00000-0.68337 0.57962 0.29777 0.81488 0.66658
  -4   5  11 4819.39  383.62   1 0.00000-0.68275 0.99992 0.71788 0.01227-0.13595
   4  -5 -11 4227.57  272.22   1-0.67681 0.00781 0.27738 0.55921 0.68189 0.82898
  -4   5  11 4781.62  344.04   1-0.04766-0.73234 0.88954 0.60774 0.45434 0.30710
  -4   5  10 4810.95  363.14   1 0.00000-0.66977 0.67371 0.43487 0.73898 0.60190
  -4   5  10 4650.37  367.15   1 0.00000-0.66916 0.97919 0.74018 0.20290 0.06591
   4  -5 -10 4599.32  292.78   1-0.64860 0.02235 0.33254 0.57125 0.68462 0.82046
   4  -5  -9 1103.81  170.80   1-0.61549 0.04178 0.39043 0.58602 0.68463 0.80921
   4  -5  -8 1485.13  174.55   1-0.57663 0.06697 0.45102 0.60350 0.68122 0.79454
   4  -5  -711180.79  420.60   1-0.53109 0.09883 0.51410 0.62346 0.67352 0.77557
   4  -5  -711770.58  503.29   1-0.09788 0.53016-0.86869-0.75621-0.48558-0.38347
   4  -5  -6 9249.99  383.68   1-0.47794 0.13831 0.57907 0.64532 0.66048 0.75128
   4  -5  -6 9366.70  418.68   1-0.14667 0.46802-0.84496-0.77556-0.51432-0.42360
   4  -5  -5 4392.66  299.96   1-0.41633 0.18624 0.64486 0.66799 0.64094 0.72048
   4  -5  -5 4273.85  262.68   1-0.19912 0.40222-0.81552-0.78921-0.54338-0.46406
   4  -5  -4 4050.20  274.20   1-0.34581 0.24309 0.70977 0.68978 0.61370 0.68198
   4  -5  -4 3676.39  234.05   1-0.25434 0.33364-0.77994-0.79671-0.57182-0.50390
   4  -5  -354984.23 1086.17   1-0.26655 0.30867 0.77142 0.70831 0.57780 0.63482
   4  -5  -355867.66 1088.00   1-0.31119 0.26344-0.73807-0.79792-0.59866-0.54213
   4  -5  -217819.30  742.09   1-0.17982 0.38170 0.82684 0.72059 0.53291 0.57882
   4  -5  -216231.22  514.14   1-0.36836 0.19292-0.69012-0.79305-0.62292-0.57779
   4  -5  -1 1103.15  157.93   1-0.08762 0.46022 0.87324 0.72388 0.47934 0.51399
   4  -5  -1  865.87  146.83   1-0.42448 0.12345-0.63668-0.78270-0.64376-0.61002
   4  -5   0 3638.83  328.05   1 0.00000 0.53358 0.89861 0.70735 0.43874 0.46360
   4  -5   0 4210.21  229.21   1-0.47828 0.05630-0.57868-0.76777-0.66058-0.63823
  -4   5  -130373.82  778.66   1 0.00000-0.52138-0.64741-0.41662 0.76213 0.74470
   4  -5   131537.65  982.23   1 0.00000 0.51997 0.73411 0.49985 0.67902 0.69266
   4  -5   131690.53  740.86   1-0.52859-0.00748-0.51735-0.74965-0.67300-0.66179
  -4   5  -222604.49  645.63   1 0.00000-0.50809-0.59047-0.31667 0.80705 0.80097
   4  -5   221302.46  698.29   1 0.00000 0.50635 0.60790 0.33063 0.79401 0.79642
   4  -5   221221.65  534.73   1-0.57485-0.06709-0.45363-0.72899-0.68099-0.68122
  -4   5  -220324.62  660.10   1-0.13350-0.64139-0.85170-0.57644-0.50672-0.50628
  -4   5  -3 5769.74  321.31   1 0.00000-0.49481-0.55865-0.24183 0.82940 0.83467
   4  -5   3 4864.33  355.74   1 0.00000 0.49273 0.51571 0.19543 0.85675 0.84794
   4  -5   3 4954.44  263.13   1-0.61646-0.12204-0.38882-0.70725-0.68468-0.69634
  -4   5  -3 5034.56  319.19   1-0.19108-0.68561-0.82031-0.50197-0.53905-0.52721
  -4   5  -4 1204.35  139.49   1 0.00000-0.48152-0.54132-0.18149 0.84081 0.85743
   4  -5   4  893.27  123.66   1 0.00000 0.47911 0.44886 0.08557 0.89360 0.87356
   4  -5   4  973.58  105.84   1-0.65320-0.17213-0.32396-0.68545-0.68437-0.70747
  -4   5  -4 1024.97  151.55   1-0.24236-0.72354-0.78807-0.42666-0.56585-0.54262
  -4   5  -5 6265.63  313.64   1 0.00000-0.46824-0.53326-0.13041 0.84594 0.87392
   4  -5   5 6648.71  372.38   1 0.00000 0.46550 0.40053-0.00576 0.91628 0.88502
   4  -5   5 5944.85  257.69   1-0.68512-0.21739-0.25987-0.66443-0.68049-0.71503
  -4   5  -5 6685.35  396.25   1-0.28735-0.75518-0.75630-0.35180-0.58772-0.55310
  -4   5  -6 7503.92  323.59   1 0.00000-0.45495-0.53149-0.08563 0.84706 0.88638
   4  -5   6 8808.69  390.50   1 0.00000 0.45152 0.36966-0.08044 0.92916 0.88862
   4  -5   6 9638.40  437.85   1-0.79440-0.34305-0.38860-0.83905 0.46680 0.42224
   4  -5   6 8280.89  302.11   1-0.71240-0.25802-0.19720-0.64482-0.67348-0.71946
  -4   5  -6 8799.09  509.77   1-0.32631-0.78078-0.72599-0.27840-0.60535-0.55933
  -4   5  -732038.50  681.18   1 0.00000-0.44167-0.53420-0.04533 0.84535 0.89603
   4  -5   732946.76  850.75   1 0.00000 0.43788 0.34499-0.14802 0.93860 0.88676
   4  -5   734096.81  787.95   1-0.80145-0.36379-0.32374-0.81724 0.50285 0.44694
   4  -5   735518.23  721.81   1-0.73536-0.29432-0.13638-0.62706-0.66381-0.72122
  -4   5  -733990.39  841.97   1-0.35964-0.80076-0.69783-0.20717-0.61941-0.56199
  -4   5  -889897.35 1188.62   1 0.00000-0.42838-0.54021-0.00832 0.84152 0.90355
   4  -5   897863.27 1428.10   1 0.00000 0.42424 0.32831-0.20762 0.94457 0.88142
   4  -5   892515.56 1225.23   1-0.80400-0.38003-0.26220-0.79876 0.53368 0.46641
   4  -5   895426.44  970.65   1-0.75433-0.32664-0.07768-0.61143-0.65188-0.72073
  -4   5  -890828.17 1344.62   1-0.38787-0.81564-0.67230-0.13856-0.63052-0.56171
   4  -5   9209350.3 1800.53   1 0.00000 0.41060 0.31790-0.26095 0.94812 0.87367
   4  -5   9194940.8 2078.35   1-0.80297-0.39269-0.20399-0.78360 0.56001 0.48140
   4  -5   9200947.8 1435.23   1-0.76968-0.35534-0.02126-0.59807-0.63806-0.71835
  -4   5 -10 1844.43  186.42   1 0.00000-0.40181-0.55910 0.05880 0.82909 0.91382
   4  -5  10  810.94  144.58   1 0.00000 0.39695 0.31250-0.30926 0.94991 0.86416
   4  -5  10  535.17  115.47   1-0.79904-0.40246-0.14897-0.77163 0.58251 0.49255
   4  -5  10  543.45   85.63   1-0.78179-0.38079 0.03282-0.58704-0.62267-0.71440
  -4   5 -10  233.43  119.22   1-0.43110-0.83217-0.62992-0.01002-0.64601-0.55441
  -4   5 -11   45.98   78.88   1 0.00000-0.38853-0.57099 0.08992 0.82095 0.91703
   4  -5  11  -31.91  100.75   1 0.00000 0.38331 0.31119-0.35349 0.95034 0.85329
   4  -5  11  -19.73   89.18   1-0.79279-0.40989-0.09689-0.76260 0.60173 0.50042
   4  -5  11   64.80   70.40   1-0.79096-0.40331 0.08461-0.57832-0.60597-0.70914
  -4   5 -12 1257.14  146.32   1 0.00000-0.37524-0.58407 0.11987 0.81170 0.91914
   4  -5  12  895.53  157.41   1 0.00000 0.36967 0.31323-0.39436 0.94967 0.84132
   4  -5  12  896.49  136.21   1-0.78462-0.41541-0.04748-0.75625 0.61814 0.50548
   4  -5  12 1076.60  102.76   1-0.79752-0.42321 0.13417-0.57182-0.58818-0.70278
  -4   5 -13   80.08  119.83   1 0.00000-0.36195-0.59807 0.14887 0.80143 0.92022
  -4   5 -14 1664.58  258.84   1 0.00000-0.34867-0.61283 0.17713 0.79021 0.92035
  -4   5 -15 5860.47  393.14   1 0.00000-0.33539-0.62819 0.20478 0.77805 0.91955
  -4   4  1718849.34  814.86   1 0.00000-0.68436 0.95069 0.41263-0.31013-0.60113
   4  -4 -1717839.10  597.65   1-0.79317-0.10679-0.09953 0.43791 0.60080 0.89265
  -4   4  16 9063.21  605.90   1 0.00000-0.67116 0.22506-0.26695 0.97434 0.69156
  -4   4  1614326.35  681.70   1 0.00000-0.67076 0.95271 0.45769-0.30385-0.58360
   4  -4 -1612538.42  586.46   1-0.78716-0.11447-0.06151 0.43287 0.61366 0.89415
  -4   4  15 1305.22  224.91   1 0.00000-0.65752 0.19507-0.25402 0.98078 0.70931
  -4   4  15  968.48  217.52   1 0.00000-0.65715 0.95659 0.50459-0.29143-0.55993
   4  -4 -15  929.88  198.53   1-0.77957-0.12057-0.02201 0.42932 0.62592 0.89506
  -4   4  15  804.04  206.42   1-0.23328-0.89270 0.79408 0.34189 0.56124 0.29356
  -4   4  14   14.56   70.14   1 0.00000-0.64388 0.16501-0.24117 0.98629 0.72612
  -4   4  14  -16.88  100.02   1 0.00000-0.64355 0.96246 0.55349-0.27140-0.52866
   4  -4 -14  -80.07   91.52   1-0.77018-0.12487 0.01926 0.42755 0.63753 0.89532
  -4   4  14  -21.52  136.40   1-0.22439-0.87014 0.79984 0.39076 0.55668 0.30025
  -4   4  1311842.08  483.71   1 0.00000-0.63024 0.13475-0.22851 0.99087 0.74201
  -4   4  1314554.36  568.44   1 0.00000-0.62994 0.97035 0.60441-0.24169-0.48770
   4  -4 -1313241.92  454.27   1-0.75870-0.12708 0.06263 0.42787 0.64841 0.89486
  -4   4  1312704.49  664.43   1-0.21158-0.84365 0.80792 0.44195 0.54999 0.30483
  -4   4  1216272.81  605.18   1 0.00000-0.61659 0.10411-0.21624 0.99456 0.75699
  -4   4  1211995.28  465.49   1 0.00000-0.61634 0.97992 0.65701-0.19935-0.43411
   4  -4 -1211367.31  434.57   1-0.74475-0.12683 0.10849 0.43068 0.65845 0.89354
  -4   4  1211235.25  650.52   1-0.19415-0.81256 0.81849 0.49567 0.54070 0.30665
  -4   4  1139499.17  883.40   1 0.00000-0.60295 0.07279-0.20463 0.99734 0.77108
  -4   4  1140839.21  876.72   1 0.00000-0.60273 0.99012 0.71024-0.14017-0.36367
   4  -4 -1138331.69  801.78   1-0.72784-0.12360 0.15731 0.43645 0.66745 0.89119
  -4   4  1136102.10 1102.32   1-0.17117-0.77591 0.83172 0.55201 0.52814 0.30534
  -4   4  10   54.07   72.71   1 0.00000-0.58931 0.04034-0.19417 0.99918 0.78422
  -4   4  10  228.91   86.44   1 0.00000-0.58913 0.99830 0.76145-0.05813-0.27039
   4  -4 -10  284.91   87.21   1-0.70728-0.11673 0.20966 0.44574 0.67512 0.88751
  -4   4  10    0.85  130.34   1-0.14158-0.73263 0.84759 0.61101 0.51139 0.29986
  -4   4   9  866.87  136.67   1 0.00000-0.57567 0.00592-0.18567 0.99998 0.79632
  -4   4   9 1638.33  180.96   1 0.00000-0.57552 0.99848 0.80465 0.05506-0.14594
   4  -4  -9 1618.82  182.19   1-0.68153-0.10417 0.26751 0.46101 0.68113 0.88125
  -4   4   9 1417.82  170.94   1-0.10405-0.68141 0.86588 0.67240 0.48930 0.28903
  -4   4   8 9688.44  461.95   1 0.00000-0.56203-0.03206-0.18074 0.99948 0.80712
  -4   4   8 9006.87  423.72   1 0.00000-0.56192 0.97774 0.82694 0.20979 0.02003
   4  -4  -8 9545.12  400.01   1-0.65061-0.08693 0.32881 0.47919 0.68452 0.87339
  -4   4   8 9131.63  541.53   1-0.05708-0.62076 0.88590 0.73555 0.46033 0.27131
  -4   4   7  437.82  115.02   1 0.00000-0.54839-0.07722-0.18299 0.99701 0.81595
  -4   4   7  777.54  127.96   1 0.00000-0.54882 0.90886 0.80121 0.41708 0.23841
   4  -4  -7  890.73  119.20   1-0.61233-0.06231 0.39563 0.50289 0.68448 0.86209
  -4   4   624510.26  855.88   1 0.00000-0.53475-0.13911-0.20196 0.99027 0.82051
  -4   4   626167.08  809.60   1 0.00000-0.53521 0.74921 0.68457 0.66232 0.49488
   4  -4  -628179.47  700.08   1-0.56459-0.02825 0.46845 0.53260 0.67954 0.84589
  -4   4   527385.23  875.83   1 0.00000-0.52111-0.24849-0.26842 0.96863 0.81017
  -4   4   526782.63  729.55   1 0.00000-0.52160 0.46323 0.44160 0.88623 0.73000
   4  -4  -523628.73  730.62   1-0.50487 0.01778 0.54720 0.56823 0.66758 0.82267
   4  -4  -524684.13  725.37   1-0.10053 0.42098-0.86748-0.84400-0.48719-0.33230
  -4   4   4 9562.40  480.67   1 0.00000-0.50713-0.47184-0.45360 0.88168 0.73284
   4  -4  -4 9682.92  398.58   1-0.43041 0.07856 0.63063 0.60855 0.64578 0.78961
   4  -4  -4 9658.15  392.42   1-0.15971 0.34844-0.83802-0.85762-0.52172-0.37823
  -4   4   336215.07  966.33   1 0.00000-0.49384-0.78490-0.72364 0.61961 0.48213
  -4   4   215774.54  612.24   1 0.00000-0.48017-0.04153 0.06727 0.99913 0.87458
   4  -4  -210928.65  521.76   1 0.00000 0.48029 0.98191 0.87454-0.18932-0.06706
   4  -4  -212267.94  507.66   1-0.23019 0.25143 0.79610 0.68778 0.55966 0.68097
   4  -4  -212166.77  515.84   1-0.28650 0.19495-0.75694-0.86269-0.58732-0.46662
  -4   4   1 1620.85  165.82   1 0.00000-0.46653-0.09217 0.05955 0.99574 0.88249
   4  -4  -1 1706.10  194.92   1 0.00000 0.46668 0.98150 0.83110 0.19141 0.30243
   4  -4  -1 1742.16  206.95   1-0.10736 0.36053 0.86435 0.71289 0.49129 0.60149
   4  -4  -1 1715.54  202.47   1-0.35095 0.11714-0.70537-0.85422-0.61584-0.50654
  -4   4   0  156.18   59.97   1 0.00000-0.45289-0.13171 0.06292 0.99128 0.88934
   4  -4   0   86.63   71.23   1 0.00000 0.45350 0.89015 0.69673 0.45566 0.55577
   4  -4   0  187.70   99.68   1-0.41382 0.04093-0.64736-0.83928-0.64005-0.54214
   4  -4   163154.21 1310.27   1-0.47351-0.03210-0.58412-0.81912-0.65923-0.57271
  -4   4  -231963.14  762.31   1 0.00000-0.42560-0.19704 0.08343 0.98039 0.90105
   4  -4   229826.39  860.12   1 0.00000 0.42627 0.67955 0.40012 0.73362 0.81129
   4  -4   229517.49  821.70   1-0.52887-0.10099-0.51699-0.79526-0.67306-0.59779
  -4   4  -229113.69  839.27   1-0.14740-0.57545-0.84458-0.56649-0.51473-0.58986
  -4   4  -3 2895.45  190.05   1 0.00000-0.41196-0.22631 0.09707 0.97405 0.90601
   4  -4   3 1292.76  174.40   1 0.00000 0.41265 0.59737 0.27493 0.80196 0.86840
   4  -4   3 1296.72  146.95   1-0.57885-0.16432-0.44773-0.76907-0.68150-0.61767
  -4   4  -3 1228.38  171.61   1-0.20708-0.62178-0.81069-0.48953-0.54761-0.61134
  -4   4  -424353.46  570.59   1 0.00000-0.39832-0.25431 0.11199 0.96712 0.91038
   4  -4   429851.53  794.58   1 0.00000 0.39904 0.53263 0.16719 0.84634 0.90156
   4  -4   432593.71  951.52   1-0.79393-0.39504-0.39176-0.75838 0.46495 0.51844
   4  -4   428295.55  671.88   1-0.62311-0.22192-0.37768-0.74208-0.68490-0.63250
  -4   4  -429903.76  813.62   1-0.25999-0.66134-0.77603-0.41178-0.57460-0.62694
  -4   4  -519498.03  470.93   1 0.00000-0.38467-0.28139 0.12782 0.95959 0.91415
   4  -4   519076.19  588.08   1 0.00000 0.38542 0.48277 0.07431 0.87574 0.91974
   4  -4   519241.84  604.17   1-0.80212-0.41692-0.31385-0.72352 0.50802 0.55016
   4  -4   518195.47  451.53   1-0.66153-0.27369-0.30803-0.71549-0.68373-0.64277
  -4   4  -518253.34  612.38   1-0.30611-0.69411-0.74204-0.33471-0.59637-0.63731
  -4   4  -6  123.32   82.20   1 0.00000-0.37103-0.30776 0.14437 0.95146 0.91732
   4  -4   6  208.54   78.11   1 0.00000 0.37180 0.44503-0.00642 0.89551 0.92828
   4  -4   6  273.98   88.43   1-0.80403-0.43252-0.24304-0.69577 0.54264 0.57343
   4  -4   6  284.92   73.86   1-0.69431-0.31981-0.23972-0.69024-0.67857-0.64905
  -4   4  -6  274.88   92.59   1-0.34574-0.72039-0.70983-0.25942-0.61367-0.64322
  -4   4  -735545.45  647.86   1 0.00000-0.35739-0.33358 0.16147 0.94272 0.91988
   4  -4   732796.94  680.18   1 0.00000 0.35819 0.41705-0.07741 0.90888 0.93043
   4  -4   732526.31  735.41   1-0.80151-0.44369-0.17871-0.67449 0.57064 0.59007
   4  -4   731520.77  626.45   1-0.72179-0.36064-0.17341-0.66700-0.67003-0.65195
  -4   4  -731558.62  918.00   1-0.37937-0.74067-0.68015-0.18666-0.62726-0.64541
   4  -4   8140575.6 1437.69   1 0.00000 0.34457 0.39693-0.14054 0.91784 0.92817
  -4   4  -8149819.5 1627.33   1-0.40759-0.75553-0.65347-0.11690-0.63783-0.64458
  -4   4  -922563.00  545.07   1 0.00000-0.33441-0.38354 0.19388 0.92352 0.92226
   4  -4   923500.81  616.16   1 0.00000 0.33011 0.38460-0.19628 0.92308 0.92330
   4  -4   923100.36  617.14   1-0.78796-0.45752-0.06613-0.64801 0.61216 0.60889
   4  -4   923080.87  492.92   1-0.76267-0.42821-0.04831-0.62803-0.64497-0.64976
  -4   4  -922324.31  704.40   1-0.43100-0.76559-0.63003-0.05037-0.64598-0.64134
  -4   4 -1012334.64  428.25   1 0.00000-0.32113-0.40825 0.21217 0.91286 0.92296
   4  -4  1013105.72  458.49   1 0.00000 0.31646 0.37582-0.24797 0.92668 0.91561
   4  -4  1012319.62  447.90   1-0.77836-0.46161-0.01628-0.64121 0.62760 0.61299
   4  -4  1010530.80  330.02   1-0.77702-0.45591 0.01014-0.61263-0.62938-0.64561
  -4   4 -1012171.45  568.88   1-0.45018-0.77142-0.60986 0.01286-0.65222-0.63618
  -4   4 -11   81.50   72.43   1 0.00000-0.30784-0.43263 0.23081 0.90156 0.92301
   4  -4  11  184.62  108.90   1 0.00000 0.30282 0.37134-0.29537 0.92849 0.90611
   4  -4  11  475.96   92.87   1-0.76745-0.46439 0.03016-0.63781 0.64039 0.61443
   4  -4  11  450.52   75.91   1-0.78792-0.48015 0.06587-0.59996-0.61224-0.63991
  -4   4 -11  240.76  108.66   1-0.46567-0.77355-0.59293 0.07288-0.65694-0.62952
  -4   4 -12 7598.77  318.58   1 0.00000-0.29455-0.45670 0.24975 0.88961 0.92241
   4  -4  12 7900.46  362.66   1 0.00000 0.28918 0.37046-0.33917 0.92884 0.89517
   4  -4  12 7013.11  430.46   1-0.75549-0.46612 0.07374-0.63728 0.65099 0.61367
   4  -4  12 8190.03  313.92   1-0.79574-0.50132 0.11894-0.58996-0.59384-0.63294
  -4   4 -13  781.37  113.32   1 0.00000-0.28127-0.48048 0.26899 0.87700 0.92115
   4  -4  13  545.93  119.48   1-0.74265-0.46697 0.11492-0.63915 0.65974 0.61107
  -4   4 -14 1880.31  184.86   1 0.00000-0.26798-0.50399 0.28849 0.86370 0.91921
  -4   4 -15  816.96  156.60   1 0.00000-0.25470-0.52724 0.30825 0.84971 0.91657
  -4   4 -16 1456.19  162.20   1 0.00000-0.24141-0.55024 0.32827 0.83500 0.91321
  -4   3  17  703.95  175.05   1 0.00000-0.60431 0.04542-0.48747 0.99896 0.63021
  -4   3  17 3168.21  447.39   1 0.00000-0.60435 0.94912 0.41322-0.31490-0.68117
   4  -3 -17 2337.84  314.82   1-0.80321-0.19667-0.20954 0.32563 0.55762 0.92481
  -4   3  16 4504.55  348.79   1 0.00000-0.59067 0.00188-0.48809 0.99999 0.64254
  -4   3  16 3822.54  341.83   1 0.00000-0.59075 0.95101 0.45814-0.30914-0.66416
   4  -3 -16 3727.50  240.94   1-0.80152-0.20867-0.17881 0.31330 0.57059 0.92644
  -4   3  16 2283.65  374.23   1-0.34824-0.94142 0.70770 0.21449 0.61471 0.26022
  -4   3  15 1762.67  179.84   1 0.00000-0.57703-0.04360-0.49066 0.99904 0.65289
  -4   3  15 3346.38  296.73   1 0.00000-0.57714 0.95447 0.50463-0.29829-0.64206
   4  -3 -15 3001.46  218.16   1-0.79887-0.21972-0.14721 0.30185 0.58319 0.92768
  -4   3  15 2135.82  226.55   1-0.34777-0.92727 0.70810 0.25801 0.61452 0.27128
  -4   3  14 3227.34  260.97   1 0.00000-0.56339-0.09156-0.49571 0.99579 0.66095
  -4   3  14 5999.44  358.40   1 0.00000-0.56354 0.95960 0.55278-0.28135-0.61387
   4  -3 -14 5762.35  285.44   1-0.79518-0.22972-0.11454 0.29147 0.59544 0.92858
  -4   3  14 4837.73  396.43   1-0.34442-0.91025 0.71095 0.30397 0.61312 0.28114
  -4   3  1310836.33  447.62   1 0.00000-0.54974-0.14267-0.50390 0.98977 0.66622
  -4   3  1311578.53  480.30   1 0.00000-0.54993 0.96640 0.60262-0.25701-0.57828
   4  -3 -1310182.26  375.30   1-0.79033-0.23855-0.08054 0.28242 0.60736 0.92915
  -4   3  1310205.57  515.51   1-0.33762-0.88977 0.71666 0.35280 0.61024 0.28952
  -4   3  12 2745.85  211.09   1 0.00000-0.53610-0.19778-0.51610 0.98024 0.66800
  -4   3  12 5380.51  322.11   1 0.00000-0.53632 0.97468 0.65392-0.22357-0.53359
   4  -3 -12 5071.36  296.86   1-0.78413-0.24604-0.04485 0.27506 0.61896 0.92940
  -4   3  12 4777.54  387.50   1-0.32658-0.86506 0.72576 0.40501 0.60548 0.29602
  -4   3  11  528.07  113.31   1 0.00000-0.52272 0.98387 0.70614-0.17883-0.47761
   4  -3 -11  602.52  131.17   1-0.77634-0.25194-0.00703 0.26982 0.63027 0.92936
  -4   3  11  560.79  125.23   1-0.31023-0.83502 0.73883 0.46120 0.59823 0.30003
  -4   3  10 3286.68  228.84   1 0.00000-0.50882-0.32481-0.55730 0.94577 0.65613
  -4   3  10 3189.15  243.43   1 0.00000-0.50911 0.99276 0.75806-0.12007-0.40760
   4  -3 -10 2947.67  189.02   1-0.76658-0.25587 0.03353 0.26735 0.64126 0.92900
  -4   3  10 2746.73  275.74   1-0.28707-0.79819 0.75651 0.52200 0.58759 0.30065
  -4   3   9 3622.35  236.91   1 0.00000-0.49286-0.39847-0.59277 0.91717 0.63694
  -4   3   9 3552.62  238.05   1 0.00000-0.49551 0.99902 0.80735-0.04410-0.32038
   4  -3  -9 3263.38  231.89   1-0.75431-0.25729 0.07773 0.26849 0.65188 0.92828
  -4   3   9 3387.34  269.55   1-0.25507-0.75251 0.77944 0.58805 0.57218 0.29650
  -4   3   8  796.07  116.69   1 0.00000-0.47957-0.48224-0.63353 0.87603 0.60715
  -4   3   8  380.00   99.58   1 0.00000-0.48190 0.99863 0.84998 0.05223-0.21279
   4  -3  -8  239.64   83.63   1-0.73868-0.25535 0.12676 0.27447 0.66202 0.92706
  -4   3   8  325.42  124.65   1-0.21136-0.69512 0.80805 0.65977 0.54988 0.28546
  -4   3   7   88.26   67.00   1 0.00000-0.46629-0.57742-0.68570 0.81644 0.55891
  -4   3   7  231.52   82.36   1 0.00000-0.46830 0.98528 0.87967 0.17089-0.08288
   4  -3  -7  223.11   78.45   1-0.71831-0.24867 0.18237 0.28704 0.67138 0.92507
  -4   3   7  311.47  112.95   1-0.15218-0.62223 0.84206 0.73691 0.51746 0.26416
  -4   3   6  183.42   65.59   1 0.00000-0.45300-0.68366-0.74893 0.72979 0.48361
  -4   3   6   73.83   80.05   1 0.00000-0.45469 0.95065 0.88806 0.31024 0.06770
   4  -3  -6   46.65   68.76   1-0.69040-0.23398 0.24840 0.31045 0.67944 0.92134
  -4   3   6   59.74   81.52   1-0.07217-0.52853 0.87981 0.81778 0.46980 0.22776
  -4   3   5 1443.46  171.51   1 0.00000-0.43972-0.79579-0.81804 0.60557 0.37074
  -4   3   5 1467.74  167.53   1 0.00000-0.44150 0.88632 0.86685 0.46305 0.23158
   4  -3  -5 1543.96  170.70   1-0.65232-0.20958 0.32563 0.34456 0.68442 0.91507
  -4   3   4 1976.33  188.00   1 0.00000-0.42643-0.89996-0.87920 0.43595 0.21247
  -4   3   4 1909.62  197.51   1 0.00000-0.42789 0.79118 0.81472 0.61157 0.39132
   4  -3  -4 1809.35  182.84   1-0.59706-0.16799 0.42004 0.39586 0.68343 0.90281
  -4   3   376936.63 1418.36   1 0.00000-0.41427 0.67279 0.73934 0.73982 0.53080
   4  -3  -376068.20 1465.04   1 0.00000 0.41388 0.97680 0.91031-0.21410-0.00532
   4  -3  -372382.82 1383.73   1-0.51403-0.09865 0.53588 0.46857 0.66977 0.87789
   4  -3  -371619.92 1344.99   1-0.14225 0.27272-0.84725-0.91276-0.51178-0.30412
  -4   3   2  192.76   74.97   1 0.00000-0.40066 0.54630 0.65585 0.83758 0.63978
   4  -3  -2  254.70   88.07   1 0.00000 0.40027 0.99980 0.89028 0.01966 0.21719
   4  -3  -2  242.80   85.73   1-0.38894 0.01276 0.67130 0.56088 0.63093 0.82779
   4  -3  -2  198.37   81.57   1-0.21265 0.18896-0.80725-0.91584-0.55056-0.35429
  -4   3   1 3375.03  225.93   1 0.00000-0.38704 0.42545 0.57801 0.90498 0.71839
   4  -3  -1 3539.74  259.00   1 0.00000 0.38667 0.97117 0.81861 0.23838 0.42467
   4  -3  -1 3256.61  261.42   1-0.21277 0.17526 0.80718 0.65364 0.55062 0.73622
   4  -3  -1 3175.12  216.37   1-0.28471 0.10355-0.75826-0.90993-0.58648-0.40161
  -4   3   0 1218.78  143.73   1 0.00000-0.37239 0.32046 0.51713 0.94726 0.77064
   4  -3   0 1368.53  162.85   1 0.00000 0.37342 0.90820 0.71263 0.41853 0.59389
   4  -3   0 1490.73  152.98   1-0.35624 0.01867-0.70080-0.89556-0.61802-0.44454
  -4   3  -115582.72  494.16   1 0.00000-0.35875 0.22662 0.46621 0.97398 0.80866
   4  -3   118212.79  628.95   1 0.00000 0.35981 0.83039 0.59181 0.55717 0.72130
   4  -3   118831.64  613.87   1-0.78579-0.42567-0.43793-0.67767 0.43674 0.59963
   4  -3   119162.06  627.43   1-0.42506-0.06349-0.63609-0.87392-0.64397-0.48188
  -4   3  -231260.72  681.69   1 0.00000-0.34511 0.14535 0.42786 0.98938 0.83536
   4  -3   227828.62  826.11   1 0.00000 0.34619 0.75266 0.47108 0.65839 0.81131
   4  -3   227463.46  723.59   1-0.80193-0.45550-0.31679-0.59958 0.50649 0.65803
   4  -3   224963.33  629.48   1-0.48932-0.14111-0.56584-0.84676-0.66360-0.51291
  -4   3  -225908.10  886.41   1-0.14209-0.49031-0.84733-0.56642-0.51169-0.66238
  -4   3  -3 6419.84  367.14   1 0.00000-0.33147 0.07451 0.39993 0.99721 0.85450
   4  -3   3 5731.54  398.45   1 0.00000 0.33258 0.68260 0.35800 0.73078 0.87247
   4  -3   3 5569.86  379.69   1-0.80356-0.47082-0.21959-0.54543 0.55322 0.69341
   4  -3   3 4409.06  309.86   1-0.54796-0.21332-0.49161-0.81585-0.67678-0.53746
  -4   3  -3 5128.02  406.73   1-0.20507-0.53993-0.81192-0.48793-0.54655-0.68584
  -4   3  -4 5101.41  319.18   1 0.00000-0.31783 0.01201 0.38035 0.99992 0.86851
   4  -3   4 4922.01  331.42   1 0.00000 0.31896 0.62296 0.25536 0.78224 0.91271
   4  -3   4 4917.61  360.64   1-0.79824-0.47919-0.14094-0.50984 0.58560 0.71444
   4  -3   4 4892.85  350.50   1-0.59959-0.27829-0.41608-0.78338-0.68364-0.55575
  -4   3  -4 4482.98  375.75   1-0.26083-0.58235-0.77544-0.40836-0.57502-0.70292
  -4   3  -5 2304.15  158.08   1 0.00000-0.30418-0.04388 0.36737 0.99903 0.87892
   4  -3   5 1954.57  182.64   1 0.00000 0.30534 0.57397 0.16335 0.81887 0.93812
   4  -3   5 2305.47  216.46   1-0.78955-0.48419-0.07567-0.48762 0.60899 0.72648
   4  -3   5 2142.04  199.10   1-0.64425-0.33630-0.34054-0.75091-0.68481-0.56835
  -4   3  -5 1676.57  178.76   1-0.30928-0.61744-0.73957-0.32941-0.59780-0.71431
  -4   3  -6 5859.20  254.03   1 0.00000-0.29054-0.09454 0.35962 0.99552 0.88670
   4  -3   6 6053.17  291.30   1 0.00000 0.29173 0.53471 0.08109 0.84503 0.95305
   4  -3   6 6673.82  297.78   1-0.77914-0.48747-0.01994-0.47494 0.62652 0.73266
   4  -3   6 6422.99  286.65   1-0.68210-0.38749-0.26632-0.71975-0.68103-0.57602
  -4   3  -6 6078.95  378.69   1-0.35069-0.64551-0.70560-0.25236-0.61574-0.72085
  -4   3  -724873.21  612.15   1 0.00000-0.27690-0.14103 0.35605 0.99000 0.89249
   4  -3   722662.18  638.10   1 0.00000 0.27811 0.50397 0.00734 0.86371 0.96052
   4  -3   723237.62  582.65   1-0.76777-0.48979 0.02891-0.46913 0.64006 0.73485
   4  -3   722872.86  526.29   1-0.71356-0.43229-0.19435-0.69085-0.67309-0.57951
  -4   3  -722356.16  681.05   1-0.38562-0.66708-0.67439-0.17807-0.62966-0.72338
  -4   3  -812801.56  390.03   1 0.00000-0.26326-0.18414 0.35586 0.98289 0.89669
   4  -3   816522.28  537.13   1 0.00000 0.26449 0.48050-0.05913 0.87699 0.96257
   4  -3   817022.78  536.79   1-0.75579-0.49150 0.07271-0.46838 0.65075 0.73419
   4  -3   815519.11  417.71   1-0.73920-0.47128-0.12523-0.66479-0.66173-0.57959
  -4   3  -815836.95  653.82   1-0.41471-0.68282-0.64648-0.10708-0.64037-0.72269
   4  -3   9298559.2 2165.88   1 0.00000 0.25088 0.46319-0.11945 0.88625 0.96061
   4  -3   9295150.4 2115.70   1-0.74337-0.49277 0.11272-0.47141 0.65930 0.73139
  -4   3  -9294946.9 2566.34   1-0.43865-0.69341-0.62209-0.03961-0.64851-0.71944
   4  -3  1012210.07  486.90   1 0.00000 0.23726 0.45106-0.17459 0.89249 0.95562
   4  -3  1011103.05  473.66   1-0.73057-0.49366 0.14983-0.47736 0.66619 0.72692
   4  -3  1011580.33  345.74   1-0.77551-0.53429 0.00336-0.62232-0.63131-0.57205
  -4   3 -1010795.21  434.55   1-0.45810-0.69951-0.60128 0.02427-0.65467-0.71420
  -4   3 -11 2904.20  191.17   1 0.00000-0.22233-0.29874 0.37000 0.95433 0.90203
   4  -3  11 1758.17  173.67   1 0.00000 0.22364 0.44334-0.22532 0.89635 0.94826
   4  -3  11 1738.08  202.70   1-0.71741-0.49419 0.18468-0.48556 0.67172 0.72110
   4  -3  11 2081.13  137.66   1-0.78738-0.55950 0.06275-0.60600-0.61326-0.56543
  -4   3 -11 1711.70  241.25   1-0.47365-0.70170-0.58396 0.08468-0.65927-0.70741
  -4   3 -12 4089.83  237.10   1 0.00000-0.20869-0.33329 0.37837 0.94282 0.90182
   4  -3  12 3468.09  278.46   1 0.00000 0.21003 0.43935-0.27231 0.89831 0.93900
   4  -3  12 3842.63  315.26   1-0.70388-0.49435 0.21772-0.49557 0.67611 0.71415
   4  -3  12 3843.27  218.26   1-0.79574-0.58121 0.11898-0.59283-0.59382-0.55743
  -4   3 -12 3528.07  312.20   1-0.48582-0.70052-0.56996 0.14176-0.66266-0.69940
  -4   3 -13 3025.54  204.54   1 0.00000-0.20058-0.36563 0.38636 0.93075 0.90027
   4  -3  13 2069.57  211.13   1 0.00000 0.19641 0.43857-0.31611 0.89869 0.92816
   4  -3  13 2262.78  258.92   1-0.68932-0.49275 0.25077-0.50639 0.67966 0.70764
  -4   3 -14 2548.93  199.20   1 0.00000-0.18730-0.39771 0.39729 0.91750 0.89837
   4  -3  14 2953.66  300.40   1-0.67496-0.49206 0.28121-0.51907 0.68216 0.69887
  -4   3 -15  770.85  143.86   1 0.00000-0.17401-0.42872 0.40929 0.90343 0.89565
  -4   3 -1647764.47  816.28   1 0.00000-0.16073-0.45878 0.42225 0.88854 0.89211
  -4   2  1813627.85  572.57   1 0.00000-0.53795 0.95352 0.37675-0.30130-0.75410
   4  -2 -1811820.00  488.17   1-0.79871-0.25832-0.35424 0.22171 0.48637 0.94027
  -4   2  1712935.12  713.15   1 0.00000-0.52382-0.12017-0.65103 0.99275 0.54932
  -4   2  1716913.33  642.11   1 0.00000-0.52434 0.95429 0.42054-0.29885-0.74040
   4  -2 -1716652.43  632.84   1-0.80075-0.27405-0.33269 0.20020 0.49810 0.94064
  -4   2  16 2012.51  230.51   1 0.00000-0.51018-0.17058-0.65853 0.98534 0.55321
  -4   2  16 4604.88  353.63   1 0.00000-0.51073 0.95627 0.46555-0.29247-0.72277
   4  -2 -16 3775.27  279.66   1-0.80227-0.28926-0.31142 0.17842 0.50928 0.94047
  -4   2  16 3651.68  322.11   1-0.45475-0.96801 0.60493 0.11382 0.65364 0.22359
  -4   2  15 1128.26  185.95   1 0.00000-0.49654-0.22325-0.66828 0.97476 0.55393
  -4   2  15 1534.61  206.60   1 0.00000-0.49713 0.95954 0.51184-0.28157-0.70062
   4  -2 -15 1196.04  158.99   1-0.80331-0.30399-0.29046 0.15633 0.51991 0.93975
  -4   2  15 1171.78  222.03   1-0.46024-0.95982 0.59893 0.15093 0.65532 0.23653
  -4   2  1411246.82  498.71   1 0.00000-0.48290-0.27856-0.68067 0.96041 0.55089
  -4   2  1411062.01  451.79   1 0.00000-0.48353 0.96414 0.55947-0.26539-0.67318
   4  -2 -1410766.80  462.11   1-0.80390-0.31827-0.26988 0.13387 0.53000 0.93849
  -4   2  1410252.22  568.79   1-0.46378-0.94969 0.59502 0.19014 0.65638 0.24886
  -4   2  13 1054.24  131.10   1 0.00000-0.46925-0.33695-0.69614 0.94152 0.54329
  -4   2  13  449.32  149.39   1 0.00000-0.46992 0.97002 0.60838-0.24300-0.63955
   4  -2 -13  188.52  106.77   1-0.80406-0.33212-0.24974 0.11095 0.53954 0.93668
  -4   2  13  181.90  131.57   1-0.46497-0.93720 0.59370 0.23194 0.65674 0.26047
  -4   2  1219057.00  532.54   1 0.00000-0.45203-0.39768-0.71851 0.91752 0.52858
  -4   2  1219492.57  600.42   1 0.00000-0.45631 0.97698 0.65838-0.21328-0.59858
   4  -2 -1218328.99  495.37   1-0.80384-0.34559-0.23016 0.08748 0.54850 0.93429
  -4   2  1218733.00  741.61   1-0.46325-0.92180 0.59561 0.27697 0.65622 0.27122
  -4   2  1116258.22  444.78   1 0.00000-0.43875-0.46283-0.74064 0.88644 0.50886
  -4   2  1119426.37  570.10   1 0.00000-0.44271 0.98459 0.70901-0.17485-0.54891
   4  -2 -1119654.16  513.48   1-0.80328-0.35872-0.21131 0.06328 0.55685 0.93129
  -4   2  1119750.71  601.64   1-0.45778-0.90265 0.60163 0.32610 0.65457 0.28082
  -4   2  10 3987.41  288.33   1 0.00000-0.42546-0.53211-0.76691 0.84667 0.48044
  -4   2  10 4159.44  260.05   1 0.00000-0.42910 0.99200 0.75945-0.12616-0.48896
   4  -2 -10 3377.65  201.92   1-0.80243-0.37156-0.19339 0.03815 0.56453 0.92762
  -4   2  10 3677.95  274.32   1-0.44730-0.87850 0.61295 0.38054 0.65131 0.28882
  -4   2   9 3746.06  239.73   1 0.00000-0.41217-0.60549-0.79727 0.79585 0.44097
  -4   2   9 3455.37  230.73   1 0.00000-0.41550 0.99785 0.80832-0.06553-0.41709
   4  -2  -9 3572.77  232.22   1-0.80138-0.38420-0.17677 0.01171 0.57143 0.92317
  -4   2   9 3603.23  293.44   1-0.42986-0.84738 0.63120 0.44190 0.64559 0.29436
  -4   2   8 7199.89  333.24   1 0.00000-0.39889-0.68231-0.83108 0.73106 0.38753
  -4   2   8 7766.08  351.71   1 0.00000-0.40189 0.99996 0.85346 0.00853-0.33176
   4  -2  -8 7455.20  320.71   1-0.80023-0.39674-0.16201-0.01656 0.57739 0.91778
  -4   2   8 7654.45  436.27   1-0.40224-0.80609 0.65866 0.51248 0.63588 0.29591
  -4   2   710633.63  381.81   1 0.00000-0.38560-0.76081-0.86657 0.64897 0.31679
  -4   2   7 9260.62  376.46   1 0.00000-0.38829 0.99528 0.89182 0.09693-0.23211
   4  -2  -710018.76  392.38   1-0.79915-0.40935-0.15007-0.04768 0.58208 0.91112
  -4   2   7 9317.87  425.77   1-0.35893-0.74910 0.69845 0.59539 0.61912 0.29041
  -4   2   618066.08  562.06   1 0.00000-0.37232-0.83753-0.90027 0.54639 0.22557
  -4   2   619826.20  598.79   1 0.00000-0.37468 0.97996 0.91952 0.19916-0.11864
   4  -2  -618798.90  632.45   1-0.79843-0.42232-0.14278-0.08343 0.58490 0.90259
  -4   2   617646.92  655.53   1-0.28980-0.66629 0.75448 0.69453 0.58887 0.27141
  -4   2   540304.21  890.05   1 0.00000-0.36108 0.94992 0.93251 0.31247 0.00592
   4  -2  -540719.15  901.72   1-0.79856-0.43614-0.14403-0.12774 0.58442 0.89076
  -4   2   537491.57 1064.46   1-0.17529-0.53803 0.82941 0.81259 0.53042 0.22409
  -4   2   4 2907.99  205.51   1 0.00000-0.34781 0.90188 0.92757 0.43198 0.13648
   4  -2  -4 2774.26  231.67   1 0.00000 0.34747 0.96295 0.93733-0.26965 0.02565
   4  -2  -4 2850.01  228.38   1-0.80041-0.45168-0.16424-0.19100 0.57650 0.87149
  -4   2   3 3671.65  226.02   1 0.00000-0.33419 0.83588 0.90459 0.54889 0.26462
   4  -2  -3 4030.30  270.46   1 0.00000 0.33386 0.99434 0.92569-0.10623 0.17782
   4  -2  -3 4171.54  297.96   1-0.80405-0.46901-0.24761-0.31742 0.54053 0.82417
  -4   2   212010.50  441.51   1 0.00000-0.32058 0.75453 0.86624 0.65626 0.38320
   4  -2  -212176.69  460.89   1 0.00000 0.32026 0.99811 0.88644 0.06133 0.33414
   4  -2  -210833.98  448.84   1-0.15052 0.17126-0.84293-0.95435-0.51652-0.24469
  -4   2   133097.03  781.76   1 0.00000-0.30696 0.66318 0.81790 0.74845 0.48662
   4  -2  -131330.37  805.79   1 0.00000 0.30666 0.97536 0.82066 0.22059 0.48215
   4  -2  -133315.18  829.20   1-0.22955 0.07888-0.79651-0.95101-0.55933-0.29889
  -4   2   012608.38  442.05   1 0.00000-0.29335 0.56792 0.76565 0.82308 0.57247
   4  -2   013823.97  591.52   1 0.00000 0.29305 0.93230 0.73457 0.36166 0.61197
   4  -2   012197.07  441.94   1-0.30936-0.01427-0.73950-0.93708-0.59784-0.34880
  -4   2  -125014.25  668.63   1 0.00000-0.27973 0.47378 0.71452 0.88063 0.64124
   4  -2   124115.06  673.46   1 0.00000 0.27973 0.87796 0.63722 0.47872 0.71811
   4  -2   124118.46  743.37   1-0.66114-0.38038 0.30878 0.06691 0.68376 0.92240
   4  -2   124028.87  692.24   1-0.38713-0.10539-0.67299-0.91365-0.63024-0.39259
  -4   2  -2 1724.73  178.46   1 0.00000-0.26462 0.38465 0.66920 0.92306 0.69436
   4  -2   2 1933.92  181.32   1 0.00000 0.26611 0.81937 0.53562 0.57326 0.80142
   4  -2   2 1676.04  177.20   1-0.68576-0.41867 0.25850-0.02647 0.68037 0.90775
   4  -2   2 1556.14  167.67   1-0.46026-0.19188-0.59891-0.88265-0.65533-0.42907
  -4   2  -2 1581.14  192.21   1-0.11372-0.38210-0.86136-0.57762-0.49509-0.72134
  -4   2  -3 7071.12  330.05   1 0.00000-0.25098 0.30101 0.62847 0.95362 0.73622
   4  -2   3 7044.28  363.25   1 0.00000 0.25250 0.76250 0.43575 0.64697 0.86392
   4  -2   3 7663.35  397.80   1-0.69118-0.43777 0.24669-0.08141 0.67927 0.89539
   4  -2   3 7603.60  360.00   1-0.52728-0.27252-0.51905-0.84620-0.67272-0.45790
  -4   2  -3 6974.10  411.67   1-0.18135-0.43638-0.82596-0.49914-0.53375-0.74861
  -4   2  -4 3546.89  280.73   1 0.00000-0.23734 0.22375 0.59413 0.97464 0.76855
   4  -2   4 4450.23  310.50   1 0.00000 0.23888 0.71068 0.34091 0.70351 0.90923
   4  -2   4 4509.90  326.93   1-0.69024-0.45050 0.24876-0.12245 0.67947 0.88433
   4  -2   4 4229.31  294.80   1-0.58588-0.34447-0.43722-0.80743-0.68233-0.47894
  -4   2  -4 4340.08  334.00   1-0.24149-0.48318-0.78865-0.41875-0.56541-0.76888
  -4   2  -540947.95  953.23   1 0.00000-0.22369 0.15269 0.56598 0.98827 0.79348
   4  -2   540709.03 1018.89   1 0.00000 0.22526 0.66542 0.25264 0.74646 0.94096
   4  -2   539332.94  883.20   1-0.68620-0.46015 0.25754-0.15679 0.68028 0.87388
   4  -2   538619.20  889.58   1-0.63616-0.40809-0.35507-0.76834-0.68499-0.49304
  -4   2  -536970.22  910.86   1-0.29381-0.52214-0.75146-0.33848-0.59073-0.78281
  -4   2  -638472.82  810.75   1 0.00000-0.21005 0.08730 0.54351 0.99618 0.81269
   4  -2   638261.30  936.15   1 0.00000 0.21165 0.62710 0.17132 0.77893 0.96221
   4  -2   637404.16  879.91   1-0.68031-0.46792 0.27010-0.18735 0.68133 0.86368
   4  -2   637124.26  681.58   1-0.67826-0.46353-0.27439-0.73073-0.68166-0.50115
  -4   2  -638374.19 1041.43   1-0.33848-0.55346-0.71594-0.25988-0.61060-0.79128
  -4   2  -771617.75 1120.04   1 0.00000-0.19641 0.02694 0.52606 0.99963 0.82745
   4  -2   777840.52 1281.75   1 0.00000 0.19803 0.59549 0.09670 0.80335 0.97541
   4  -2   780406.82 1332.81   1-0.67311-0.47440 0.28499-0.21557 0.68241 0.85350
   4  -2   776012.14 1099.89   1-0.71271-0.51134-0.19644-0.69584-0.67338-0.50431
  -4   2  -776261.89 1507.47   1-0.37604-0.57767-0.68319-0.18405-0.62596-0.79524
   4  -2   846306.13  949.93   1 0.00000 0.18442 0.57005 0.02825 0.82160 0.98244
   4  -2   846164.62  866.44   1-0.66491-0.47988 0.30142-0.24225 0.68339 0.84322
   4  -2   844912.40  759.30   1-0.74029-0.55227-0.12198-0.66445-0.66111-0.50348
  -4   2  -846349.79  881.64   1-0.40720-0.59547-0.65386-0.11163-0.63768-0.79557
  -4   2  -914294.48  412.55   1 0.00000-0.16912-0.08118 0.50377 0.99669 0.84711
   4  -2   917362.05  529.66   1 0.00000 0.17080 0.55012-0.03468 0.83508 0.98469
   4  -2   917364.91  513.55   1-0.65587-0.48451 0.31892-0.26787 0.68419 0.83275
   4  -2   916859.71  396.81   1-0.76182-0.58714-0.05143-0.63696-0.64573-0.49953
  -4   2  -916815.64  530.28   1-0.43271-0.60764-0.62827-0.04296-0.64655-0.79304
   4  -2  1024842.35  613.77   1 0.00000 0.15718 0.53506-0.09275 0.84481 0.98320
   4  -2  1025148.44  660.79   1-0.64609-0.48841 0.33718-0.29273 0.68474 0.82204
   4  -2  1025693.61  515.28   1-0.77811-0.61677 0.01511-0.61347-0.62794-0.49318
  -4   2 -1025406.77  783.83   1-0.45332-0.61489-0.60648 0.02190-0.65320-0.78830
  -4   2 -1112412.24  443.37   1 0.00000-0.14184-0.17607 0.49471 0.98437 0.85739
   4  -2  1110603.02  429.29   1 0.00000 0.14357 0.52425-0.14656 0.85155 0.97872
   4  -2  1110890.64  502.01   1-0.63563-0.49163 0.35601-0.31702 0.68500 0.81104
   4  -2  1111259.37  335.21   1-0.78988-0.64189 0.07772-0.59393-0.60831-0.48498
  -4   2 -11 9985.24  429.60   1-0.46970-0.61792-0.58842 0.08304-0.65813-0.78183
  -4   2 -12 6847.85  288.43   1 0.00000-0.12820-0.21962 0.49408 0.97558 0.85990
   4  -2  12 7590.84  361.80   1 0.00000 0.12995 0.51718-0.19665 0.85587 0.97182
   4  -2  12 8494.65  475.94   1-0.62453-0.49421 0.37526-0.34088 0.68493 0.79971
   4  -2  12 8393.16  294.88   1-0.79778-0.66313 0.13657-0.57814-0.58727-0.47538
  -4   2 -12 7670.01  418.44   1-0.48243-0.61730-0.57389 0.14065-0.66173-0.77404
  -4   2 -13  748.59  129.49   1 0.00000-0.11456-0.26101 0.49560 0.96533 0.86095
   4  -2  13  497.26  120.97   1-0.61281-0.49616 0.39483-0.36443 0.68451 0.78803
  -4   2 -13  269.60   87.61   1-0.49201-0.61352-0.56268 0.19495-0.66431-0.76523
  -4   2 -14 3178.11  227.28   1 0.00000-0.10091-0.30052 0.49901 0.95377 0.86070
   4  -2  14 3016.27  311.65   1-0.60049-0.49751 0.41466-0.38772 0.68371 0.77598
  -4   2 -15 3399.36  227.62   1 0.00000-0.08727-0.33837 0.50407 0.94101 0.85923
  -4   2 -16  945.80  155.83   1 0.00000-0.08004-0.37365 0.50990 0.92756 0.85649
  -4   1  18  300.23  155.96   1 0.00000-0.45794 0.96232 0.38769-0.27192-0.79999
  -4   1  17 1177.40  247.62   1 0.00000-0.44433 0.96338 0.43178-0.26811-0.78493
  -4   1  1610524.62  425.20   1 0.00000-0.42969-0.29827-0.78418 0.95447 0.44767
  -4   1  1610722.60  496.46   1 0.00000-0.43072 0.96543 0.47687-0.26063-0.76620
  -4   1  16 9508.82  517.15   1-0.55178-0.98511 0.48639-0.00261 0.67746 0.17186
  -4   1  15   50.51   87.06   1 0.00000-0.41605-0.35267-0.79566 0.93574 0.44024
  -4   1  15   -0.36   96.83   1 0.00000-0.41712 0.96850 0.52296-0.24899-0.74331
   4  -1 -15  -17.89   77.17   1-0.78537-0.36589-0.43996 0.00456 0.43545 0.93064
  -4   1  15   -3.06   78.22   1-0.56277-0.98242 0.47105 0.02515 0.67926 0.18492
  -4   1  14 3690.33  268.11   1 0.00000-0.39792-0.40775-0.81208 0.91308 0.42681
  -4   1  14 5567.98  300.14   1 0.00000-0.40351 0.97256 0.57005-0.23261-0.71568
   4  -1 -14 5401.59  340.01   1-0.78688-0.38109-0.43250-0.03101 0.44017 0.92401
  -4   1  14 5832.76  355.76   1-0.57280-0.97879 0.45662 0.05384 0.68072 0.19764
  -4   1  1329303.04  844.99   1 0.00000-0.38463-0.46568-0.82700 0.88494 0.41002
  -4   1  1334273.48 1042.95   1 0.00000-0.38991 0.97752 0.61804-0.21081-0.68263
   4  -1 -1334604.15  889.22   1-0.78784-0.39574-0.42756-0.06913 0.44326 0.91575
  -4   1  1334902.15 1079.49   1-0.58179-0.97410 0.44337 0.08370 0.68186 0.21004
  -4   1  12 8062.30  330.64   1 0.00000-0.37134-0.52562-0.84393 0.85071 0.38714
  -4   1  12 8414.62  341.98   1 0.00000-0.37630 0.98315 0.66669-0.18278-0.64335
   4  -1 -12 8475.69  346.97   1-0.78817-0.40976-0.42584-0.11046 0.44433 0.90547
  -4   1  12 8164.08  716.11   1-0.58956-0.96819 0.43163 0.11508 0.68272 0.22216
  -4   1  11 1093.55  135.01   1 0.00000-0.35806-0.58744-0.86273 0.80926 0.35704
  -4   1  11  383.01   92.86   1 0.00000-0.36270 0.98904 0.71561-0.14761-0.59693
   4  -1 -11  374.04   97.53   1-0.78771-0.42299-0.42827-0.15594 0.44282 0.89261
  -4   1  11  453.50  114.06   1-0.59587-0.96082 0.42190 0.14847 0.68332 0.23402
  -4   1  10 1052.72  114.56   1 0.00000-0.34477-0.65074-0.88302 0.75929 0.31842
  -4   1  10 1269.81  160.97   1 0.00000-0.34909 0.99454 0.76414-0.10434-0.54241
   4  -1 -10  951.86  138.75   1-0.78614-0.43511-0.43621-0.20693 0.43783 0.87627
  -4   1  10 1130.53  186.53   1-0.60033-0.95161 0.41490 0.18459 0.68370 0.24566
  -4   1   9  567.56   90.53   1 0.00000-0.33149-0.71478-0.90404 0.69934 0.26982
  -4   1   9  562.95  117.21   1 0.00000-0.33549 0.99864 0.81127-0.05200-0.47882
  -4   1   9  459.49  101.55   1-0.60234-0.93994 0.41173 0.22453 0.68385 0.25707
  -4   1   8 1422.12  150.54   1 0.00000-0.31820-0.77827-0.92452 0.62792 0.20976
  -4   1   8 1492.38  147.68   1 0.00000-0.32188 0.99994 0.85560 0.01020-0.40537
  -4   1   8 1643.59  172.08   1-0.60078-0.92471 0.41419 0.27011 0.68373 0.26821
  -4   1   7 3055.64  243.11   1 0.00000-0.30492-0.83924-0.94248 0.54375 0.13694
  -4   1   7 3224.54  266.13   1 0.00000-0.30828 0.99657 0.89526 0.08266-0.32166
  -4   1   7 3051.80  239.20   1-0.59361-0.90386 0.42539 0.32443 0.68311 0.27885
  -4   1   617786.43  529.84   1 0.00000-0.29163-0.89496-0.95518 0.44613 0.05068
  -4   1   618014.55  566.56   1 0.00000-0.29467 0.98628 0.92799 0.16506-0.22801
  -4   1   619529.14  685.35   1-0.57639-0.87297 0.45137 0.39352 0.68119 0.28819
  -4   1   523989.56  686.78   1 0.00000-0.28106 0.96666 0.95140 0.25604-0.12578
   4  -1  -525028.56  702.91   1 0.00000 0.28106 0.94315 0.95841-0.33235 0.04947
  -4   1   524469.64  789.92   1-0.53754-0.82044 0.50562 0.49089 0.67482 0.29308
  -4   1   4  439.86  111.79   1 0.00000-0.26746 0.93563 0.96340 0.35296-0.01761
   4  -1  -4  571.52  121.64   1 0.00000 0.26746 0.97779 0.95002-0.20957 0.16100
  -4   1   4  388.29   89.27   1-0.43215-0.70138 0.62884 0.65723 0.64636 0.27588
  -4   1   312459.64  474.10   1 0.00000-0.25412 0.89184 0.96270 0.45233 0.09280
   4  -1  -312614.23  471.77   1 0.00000 0.25385 0.99680 0.92600-0.07991 0.27941
  -4   1   2  643.88  102.86   1 0.00000-0.24050 0.83579 0.94966 0.54904 0.20073
   4  -1  -2  549.68  133.99   1 0.00000 0.24025 0.99869 0.88487 0.05101 0.39910
   4  -1  -2  739.02  112.49   1-0.10385 0.13810-0.86597-0.98021-0.48919-0.14179
  -4   1   1  743.73  131.82   1 0.00000-0.22688 0.76896 0.92584 0.63928 0.30220
   4  -1  -1  648.67  128.28   1 0.00000 0.22664 0.98418 0.82733 0.17712 0.51395
   4  -1  -1  851.26  122.40   1-0.18950 0.03910-0.82123-0.97856-0.53819-0.20219
  -4   1   018077.47  575.24   1 0.00000-0.21327 0.69414 0.89403 0.71983 0.39396
   4  -1   018366.48  659.20   1 0.00000 0.21304 0.95607 0.75619 0.29310 0.61869
   4  -1   018925.95  590.94   1-0.27740-0.06215-0.76362-0.96403-0.58302-0.25841
  -4   1  -1   24.88   93.40   1 0.00000-0.19965 0.61457 0.85746 0.78886 0.47422
   4  -1   1  129.49  101.08   1 0.00000 0.19965 0.91875 0.67585 0.39483 0.70947
   4  -1   1  156.94  104.55   1-0.36400-0.16210-0.69399-0.93748-0.62118-0.30796
  -4   1  -231082.45  752.88   1 0.00000-0.18604 0.53327 0.81918 0.84594 0.54252
   4  -1   230492.57  813.94   1 0.00000 0.18604 0.87611 0.59020 0.48210 0.78552
  -4   1  -231640.95  825.08   1-0.79439-0.98115-0.38862-0.10129 0.46679 0.16455
   4  -1   231904.47  922.45   1-0.21373-0.02657 0.80658 0.51949 0.55112 0.85405
   4  -1   230242.39  693.82   1-0.44581-0.25725-0.61454-0.90111-0.65083-0.34901
  -4   1  -3 1097.13  145.18   1 0.00000-0.17242 0.45268 0.78160 0.89166 0.59947
   4  -1   3 1183.95  141.03   1 0.00000 0.17242 0.83212 0.50320 0.55459 0.84679
  -4   1  -3 1038.23  129.10   1-0.80238-0.97544-0.30970 0.02068 0.51016 0.21928
   4  -1   3  962.77  132.00   1-0.35987-0.18638 0.69763 0.36743 0.61950 0.91118
   4  -1   3 1276.27  147.75   1-0.52002-0.34482-0.52834-0.85799-0.67113-0.38071
  -4   1  -3 1178.07  167.56   1-0.13026-0.30546-0.85332-0.52367-0.50484-0.79526
  -4   1  -4  791.50  137.76   1 0.00000-0.15685 0.37410 0.74651 0.92738 0.64662
   4  -1   4  947.22  143.56   1 0.00000 0.15880 0.78958 0.41766 0.61364 0.89461
  -4   1  -4  787.72  115.32   1-0.80384-0.96321-0.27268 0.10074 0.52865 0.24911
   4  -1   4  786.36  118.24   1-0.43467-0.27486 0.62623 0.25292 0.64720 0.92762
   4  -1   4  710.68  119.30   1-0.58556-0.42403-0.43771-0.81083-0.68229-0.40341
  -4   1  -4  535.74  125.84   1-0.19656-0.35841-0.81706-0.44432-0.54200-0.82104
  -4   1  -5  297.60   90.63   1 0.00000-0.14320 0.29929 0.71462 0.95416 0.68469
   4  -1   5  172.21   87.91   1 0.00000 0.14519 0.75032 0.33539 0.66107 0.93082
  -4   1  -5  174.67   72.26   1-0.80405-0.94974-0.25567 0.16080 0.53676 0.26857
   4  -1   5  174.71   86.61   1-0.47698-0.33084 0.58016 0.16373 0.66021 0.92937
   4  -1   5  132.28   76.70   1-0.64029-0.49211-0.34771-0.76389-0.68492-0.41748
  -4   1  -5   76.97   72.26   1-0.25471-0.40321-0.77969-0.36388-0.57200-0.83964
  -4   1  -6   96.03   87.59   1 0.00000-0.12956 0.22833 0.68657 0.97358 0.71541
   4  -1   6  126.12  101.12   1 0.00000 0.13157 0.71534 0.25740 0.69877 0.95730
  -4   1  -6  173.34   83.01   1-0.80406-0.93605-0.24994 0.20958 0.53944 0.28261
   4  -1   6   60.41   70.15   1-0.50193-0.36947 0.55078 0.09122 0.66685 0.92475
   4  -1   6   89.14   59.31   1-0.68519-0.55036-0.25972-0.71897-0.68047-0.42447
  -4   1  -6   84.96  109.24   1-0.30459-0.43974-0.74322-0.28432-0.59568-0.85192
  -4   1  -724348.32  590.13   1 0.00000-0.11592 0.16134 0.66250 0.98689 0.74003
   4  -1   723307.94  732.02   1 0.00000 0.11795 0.68505 0.18410 0.72849 0.97580
  -4   1  -724388.72  721.09   1-0.80406-0.92236-0.25123 0.25134 0.53884 0.29335
   4  -1   723709.11  768.05   1-0.51656-0.39777 0.53271 0.03004 0.67035 0.91698
   4  -1   723287.67  538.34   1-0.72103-0.59955-0.17537-0.67769-0.67033-0.42576
  -4   1  -721695.49  649.28   1-0.34661-0.46841-0.70909-0.20711-0.61404-0.85888
  -4   1  -8 9646.81  339.02   1 0.00000-0.10228 0.09821 0.64229 0.99516 0.75960
   4  -1   8 7465.14  379.74   1 0.00000 0.10434 0.65947 0.11551 0.75172 0.98781
  -4   1  -8 7580.48  307.86   1-0.80405-0.90866-0.25722 0.28841 0.53604 0.30190
   4  -1   8 7591.07  343.19   1-0.52451-0.41940 0.52261-0.02316 0.67212 0.90750
   4  -1   8 8210.12  287.19   1-0.74887-0.64073-0.09558-0.64095-0.65578-0.42265
  -4   1  -8 7406.39  413.99   1-0.38148-0.48992-0.67822-0.13316-0.62807-0.86153
  -4   1  -9178049.6 1471.40   1 0.00000-0.08863 0.03873 0.62572 0.99924 0.77499
   4  -1   9173432.1 1641.89   1 0.00000 0.09072 0.63842 0.05146 0.76968 0.99454
  -4   1  -9177627.0 1907.90   1-0.80395-0.89488-0.26649 0.32218 0.53163 0.30884
   4  -1   9179243.0 2107.66   1-0.52786-0.43643 0.51829-0.07060 0.67284 0.89696
   4  -1   9174321.7 1269.59   1-0.76982-0.67502-0.02073-0.60917-0.63792-0.41622
  -4   1  -9169847.7 1722.05   1-0.41001-0.50510-0.65112-0.06298-0.63869-0.86075
  -4   1 -1015288.82  486.77   1 0.00000-0.07499-0.01739 0.61251 0.99984 0.78689
   4  -1  1012696.10  472.87   1 0.00000 0.07711 0.62158-0.00839 0.78334 0.99698
  -4   1 -1013456.47  529.29   1-0.80371-0.88094-0.27819 0.35354 0.52597 0.31453
   4  -1  1012913.08  551.32   1-0.52786-0.45010 0.51829-0.11371 0.67284 0.88570
   4  -1  1012450.52  344.21   1-0.78493-0.70348 0.04913-0.58237-0.61762-0.40737
  -4   1 -1012974.96  505.33   1-0.43302-0.51476-0.62795 0.00326-0.64665-0.85732
  -4   1 -11 4139.94  260.50   1 0.00000-0.06135-0.07045 0.60236 0.99751 0.79585
   4  -1  11 3336.27  225.04   1 0.00000 0.06349 0.60859-0.06439 0.79348 0.99590
  -4   1 -11 3222.97  241.75   1-0.80326-0.86681-0.29171 0.38307 0.51929 0.31920
   4  -1  11 3410.45  268.50   1-0.52530-0.46122 0.52159-0.15353 0.67229 0.87389
   4  -1  11 3437.58  176.81   1-0.79514-0.72704 0.11421-0.56035-0.59556-0.39674
  -4   1 -11 3370.45  320.21   1-0.45129-0.51968-0.60868 0.06561-0.65256-0.85183
  -4   1 -12  699.19  123.24   1 0.00000-0.04771-0.12076 0.59497 0.99268 0.80232
   4  -1  12  571.92  153.59   1 0.00000 0.04987 0.59907-0.11691 0.80069 0.99188
  -4   1 -12  598.70  101.15   1-0.80255-0.85240-0.30665 0.41118 0.51173 0.32299
   4  -1  12  637.40  128.42   1-0.52071-0.47031 0.52746-0.19078 0.67129 0.86163
  -4   1 -12  573.46  111.68   1-0.46547-0.52051-0.59315 0.12423-0.65688-0.84476
  -4   1 -13 4327.09  295.87   1 0.00000-0.03406-0.16858 0.59006 0.98568 0.80663
  -4   1 -13 3774.72  274.18   1-0.80152-0.83769-0.32272 0.43816 0.50339 0.32600
   4  -1  13 3706.75  320.81   1-0.51444-0.47771 0.53536-0.22599 0.66986 0.84894
  -4   1 -13 3060.52  287.94   1-0.47615-0.51784-0.58111 0.17934-0.65998-0.83646
  -4   1 -14 7757.71  319.40   1 0.00000-0.02042-0.21417 0.58739 0.97679 0.80904
  -4   1 -1410256.00  422.62   1-0.80014-0.82262-0.33970 0.46423 0.49433 0.32829
   4  -1  14 8134.87  488.76   1-0.50674-0.48369 0.54491-0.25957 0.66804 0.83586
  -4   1 -14 7929.30  533.51   1-0.48379-0.51213-0.57232 0.23122-0.66211-0.82719
  -4   1 -15  -47.65  130.21   1 0.00000-0.00678-0.25776 0.58672 0.96620 0.80975
  -4   1 -15   45.09   97.88   1-0.79837-0.80715-0.35744 0.48954 0.48460 0.32991
  -4   1 -1622848.53  636.23   1 0.00000 0.00685-0.29954 0.58785 0.95408 0.80893
  -4   1 -1626782.90  916.84   1-0.79616-0.79125-0.37581 0.51422 0.47421 0.33088
  -4   0  1833483.22  883.04   1 0.00000-0.37792 0.97284 0.40037-0.23144-0.83478
  -4   0  17  551.12  176.54   1 0.00000-0.36432 0.97408 0.44464-0.22617-0.81826
  -4   0  16 6395.88  334.47   1 0.00000-0.35071 0.97607 0.48966-0.21742-0.79826
  -4   0  16 5765.35  413.61   1-0.63310-0.98651 0.36046-0.12645 0.68501 0.10386
  -4   0  15   36.05  105.37   1 0.00000-0.33052-0.44120-0.88602 0.89740 0.32514
  -4   0  15  111.70  119.90   1 0.00000-0.33711 0.97880 0.53541-0.20479-0.77439
  -4   0  15   26.87   84.42   1-0.64760-0.98734 0.33439-0.10940 0.68467 0.11478
  -4   0  14 7227.54  329.79   1 0.00000-0.31723-0.49516-0.89697 0.86879 0.30788
  -4   0  14 7924.02  393.30   1 0.00000-0.32350 0.98219 0.58183-0.18784-0.74619
  -4   0  14 7209.45  412.35   1-0.66171-0.98777 0.30768-0.09299 0.68371 0.12508
  -4   0  1312345.16  387.15   1 0.00000-0.30394-0.55009-0.90889 0.83510 0.28554
  -4   0  1311492.91  430.36   1 0.00000-0.30990 0.98611 0.62878-0.16605-0.71315
  -4   0  12 1077.84  142.85   1 0.00000-0.29066-0.60575-0.92154 0.79564 0.25743
  -4   0  12 2167.86  201.98   1 0.00000-0.29629 0.99031 0.67601-0.13885-0.67469
  -4   0  12 2430.54  237.34   1-0.68892-0.98763 0.25164-0.06280 0.67974 0.14363
  -4   0  11 7702.51  333.52   1 0.00000-0.27737-0.66179-0.93456 0.74968 0.22282
  -4   0  11 8148.48  379.64   1 0.00000-0.28269 0.99440 0.72313-0.10561-0.63020
  -4   0  11 9571.79  481.98   1-0.70238-0.98726 0.22125-0.04880 0.67653 0.15139
  -4   0  10  168.41  109.82   1 0.00000-0.26409-0.71762-0.94737 0.69643 0.18092
  -4   0  10  444.51  128.11   1 0.00000-0.26908 0.99783 0.76959-0.06572-0.57906
  -4   0  10  320.38  102.50   1-0.71543-0.98662 0.18967-0.03733 0.67243 0.15864
  -4   0   9 8141.04  328.28   1 0.00000-0.25080-0.77239-0.95913 0.63514 0.13099
  -4   0   9 8791.55  384.93   1 0.00000-0.25547 0.99982 0.81460-0.01861-0.52071
  -4   0   9 9508.36  430.15   1-0.72842-0.98593 0.15572-0.02823 0.66718 0.16474
  -4   0   8 3113.79  192.72   1 0.00000-0.23752-0.82495-0.96868 0.56520 0.07240
  -4   0   8 3097.12  232.47   1 0.00000-0.24187 0.99934 0.85715 0.03612-0.45472
  -4   0   8 3448.59  257.09   1-0.74148-0.98530 0.11843-0.02247 0.66043 0.16933
  -4   0   715300.39  527.91   1 0.00000-0.22423-0.87380-0.97452 0.48626 0.00482
  -4   0   714170.63  460.66   1 0.00000-0.22826 0.99512 0.89596 0.09862-0.38097
  -4   0   715156.69  557.55   1-0.75476-0.98489 0.07620-0.02164 0.65154 0.17180
  -4   0   6 1685.09  179.74   1 0.00000-0.21466 0.98568 0.92955 0.16859-0.29975
   4   0  -6 1735.69  185.35   1 0.00000 0.21459 0.91792 0.97407-0.39675 0.07163
  -4   0   6 1914.37  219.99   1-0.76842-0.98485 0.02633-0.02847 0.63939 0.17100
  -4   0   5 6706.39  323.71   1 0.00000-0.20105 0.96948 0.95637 0.24516-0.21194
   4   0  -5 6345.15  413.18   1 0.00000 0.20105 0.95384 0.96694-0.30030 0.15679
  -4   0   5 7077.15  356.74   1-0.78245-0.98519-0.03614-0.04790 0.62166 0.16462
  -4   0   4  380.62  129.09   1 0.00000-0.18745 0.94510 0.97502 0.32676-0.11908
   4   0  -4  479.23  102.48   1 0.00000 0.18745 0.98029 0.95037-0.19754 0.24830
  -4   0   4  375.84   86.67   1-0.79595-0.98501-0.12070-0.08941 0.59319 0.14750
  -4   0   3 1174.85  134.28   1 0.00000-0.17404 0.91143 0.98446 0.41143-0.02334
   4   0  -3  911.32  137.44   1 0.00000 0.17384 0.99584 0.92289-0.09103 0.34356
  -4   0   3 1124.91  146.08   1-0.80404-0.97940-0.24540-0.17105 0.54155 0.10721
  -4   0   210165.29  430.86   1 0.00000-0.16042 0.86835 0.98439 0.49593 0.07237
   4   0  -2 9855.56  465.52   1 0.00000 0.16024 0.99987 0.88389 0.01602 0.43938
  -4   0   2 9534.13  386.37   1-0.78633-0.94800-0.43527-0.31787 0.43842 0.01543
  -4   0   2 9425.99  484.71   1-0.25164-0.41360 0.78179 0.89851 0.57049 0.14697
  -4   0   112166.58  424.93   1 0.00000-0.14681 0.81619 0.97523 0.57778 0.16544
   4   0  -111894.30  490.64   1 0.00000 0.14663 0.99274 0.83373 0.12022 0.53233
  -4   0   111893.77  562.67   1-0.47711-0.62539 0.58002 0.73985 0.66025 0.24799
   4   0  -111683.26  450.24   1-0.16894-0.02016-0.83296-0.99312-0.52689-0.11532
  -4   0   021100.83  602.77   1 0.00000-0.13319 0.75612 0.95817 0.65443 0.25331
   4   0   020556.48  617.41   1 0.00000 0.13303 0.97585 0.77381 0.21842 0.61927
  -4   0   018943.39  663.53   1-0.60447-0.73907 0.40834 0.61129 0.68401 0.28300
   4   0   020429.92  604.12   1-0.26517-0.12975-0.77239-0.97562-0.57714-0.17696
  -4   0  -114963.73  490.79   1 0.00000-0.11957 0.68989 0.93495 0.72391 0.33401
   4   0   113650.81  520.36   1 0.00000 0.11942 0.95132 0.70625 0.30820 0.69780
  -4   0  -113202.37  506.93   1-0.67032-0.79125 0.29063 0.53670 0.68278 0.29303
   4   0   113867.14  482.43   1-0.36071-0.23864-0.69690-0.94321-0.61985-0.23106
  -4   0  -2 6218.83  391.01   1 0.00000-0.10596 0.61949 0.90756 0.78500 0.40632
   4   0   2 6015.89  409.26   1 0.00000 0.10596 0.92185 0.63378 0.38754 0.76621
  -4   0  -2 6241.12  382.98   1-0.70803-0.81494 0.20786 0.49746 0.67489 0.29730
   4   0   2 5816.83  370.23   1-0.45094-0.34222-0.60905-0.89845-0.65245-0.27506
  -4   0  -3 3086.68  247.13   1 0.00000-0.09234 0.54687 0.87794 0.83721 0.46976
   4   0   3 3027.56  274.40   1 0.00000 0.09234 0.88948 0.55841 0.45695 0.82440
  -4   0  -3 2630.21  208.07   1-0.73165-0.82487 0.14684 0.47949 0.66567 0.29943
   4   0   3 2992.78  325.06   1-0.07026 0.02310 0.88060 0.54830 0.46861 0.83595
   4   0   3 2856.87  220.47   1-0.53307-0.43809-0.51151-0.84447-0.67393-0.30811
  -4   0  -4  562.26  121.32   1 0.00000-0.07872 0.47370 0.84779 0.88068 0.52445
   4   0   4  435.89  140.56   1 0.00000 0.07872 0.85648 0.48239 0.51618 0.87240
  -4   0  -4  506.76   85.77   1-0.74825-0.82778 0.09756 0.47326 0.65620 0.30131
   4   0   4  388.13   94.12   1-0.17354-0.09386 0.83039 0.45498 0.52945 0.88553
   4   0   4  408.88   83.24   1-0.60252-0.52088-0.41144-0.78747-0.68386-0.32949
  -4   0  -4  390.89   97.35   1-0.11764-0.19966-0.85949-0.48393-0.49742-0.85202
  -4   0  -5 1482.44  149.50   1 0.00000-0.06511 0.40131 0.81840 0.91593 0.57093
   4   0   5 1269.03  145.65   1 0.00000 0.06511 0.82444 0.40735 0.56594 0.91094
  -4   0  -5 1451.20  156.88   1-0.76071-0.82655 0.05546 0.47422 0.64671 0.30317
   4   0   5 1659.47  201.86   1-0.24660-0.18039 0.78522 0.36669 0.56798 0.91268
   4   0   5 1295.26  127.33   1-0.65964-0.59135-0.31169-0.73078-0.68389-0.34095
  -4   0  -5 1306.68  178.22   1-0.18388-0.25255-0.82450-0.40586-0.53513-0.87834
  -4   0  -658715.18 1154.02   1 0.00000-0.04907 0.32961 0.78989 0.94411 0.61127
   4   0   658543.30 1113.87   1 0.00000 0.05149 0.79452 0.33442 0.60723 0.94101
  -4   0  -658369.29  979.75   1-0.77048-0.82264 0.01801 0.47981 0.63719 0.30500
   4   0   658414.81 1189.45   1-0.29788-0.24534 0.74837 0.28672 0.59261 0.92606
   4   0   660732.82  974.93   1-0.70490-0.64995-0.21534-0.67749-0.67582-0.34432
  -4   0  -658713.36 1114.14   1-0.24150-0.29681-0.78865-0.32693-0.56541-0.89722
  -4   0  -732833.41  757.45   1 0.00000-0.03543 0.26122 0.76442 0.96527 0.64373
   4   0   733930.64  869.37   1 0.00000 0.03788 0.76743 0.26432 0.64112 0.96368
  -4   0  -732036.09  630.17   1-0.77836-0.81682-0.01630 0.48855 0.62759 0.30676
   4   0   734206.69  822.51   1-0.33417-0.29530 0.71953 0.21477 0.60876 0.93094
   4   0   732319.84  626.82   1-0.73951-0.69791-0.12429-0.62951-0.66156-0.34149
  -4   0  -731685.89  817.26   1-0.29049-0.33245-0.75396-0.24916-0.58919-0.90960
  -4   0  -8 4630.20  270.85   1 0.00000-0.02179 0.19551 0.74162 0.98070 0.67046
   4   0   8 5996.08  364.49   1 0.00000 0.02426 0.74355 0.19743 0.66867 0.98001
  -4   0  -8 5822.67  274.52   1-0.78479-0.80957-0.04840 0.49949 0.61785 0.30836
   4   0   8 5833.58  329.70   1-0.35974-0.33455 0.69775 0.14986 0.61945 0.93038
   4   0   8 5366.62  236.09   1-0.76503-0.73677-0.03951-0.58779-0.64278-0.33415
  -4   0  -8 6031.72  382.77   1-0.33140-0.36001-0.72182-0.17394-0.60756-0.91658
  -4   0  -9 1202.61  139.44   1 0.00000-0.00814 0.13259 0.72162 0.99116 0.69223
   4   0   9 1254.49  166.71   1 0.00000 0.01064 0.72302 0.13389 0.69082 0.99093
  -4   0  -9 1210.13  135.81   1-0.79007-0.80115-0.07891 0.51204 0.60791 0.30977
   4   0   9 1103.99  175.95   1-0.37746-0.36594 0.68190 0.09090 0.62651 0.92618
   4   0   9 1269.44  115.60   1-0.78296-0.76805 0.03878-0.55256-0.62085-0.32366
  -4   0  -9 1253.87  177.01   1-0.36501-0.38027-0.69310-0.10213-0.62158-0.91921
  -4   0 -10 1225.56  209.41   1 0.00000 0.00549 0.07250 0.70444 0.99736 0.70973
   4   0  10 2036.45  232.35   1 0.00000-0.00296 0.70582 0.07369 0.70838 0.99727
  -4   0 -10 2384.31  217.71   1-0.79436-0.79176-0.10823 0.52577 0.59772 0.31093
   4   0  10 2205.95  241.87   1-0.38927-0.39143 0.67099 0.03687 0.63105 0.91946
   4   0  10 2228.06  164.82   1-0.79470-0.79314 0.11079-0.52361-0.59680-0.31104
  -4   0 -10 2397.82  251.41   1-0.39224-0.39415-0.66820-0.03415-0.63217-0.91841
  -4   0 -1116983.21  523.46   1 0.00000 0.01913 0.01514 0.69000 0.99988 0.72355
   4   0  1116098.04  639.28   1 0.00000-0.01658 0.69183 0.01669 0.72205 0.99972
  -4   0 -1117347.54  583.29   1-0.79779-0.78149-0.13665 0.54040 0.58724 0.31180
   4   0  1116109.32  580.18   1-0.39652-0.41236 0.66415-0.01308 0.63377 0.91092
  -4   0 -1116982.29  698.73   1-0.41393-0.40249-0.64724 0.02987-0.64009-0.91493
  -4   0 -12  -22.58   80.46   1 0.00000 0.03277-0.03961 0.67815 0.99921 0.73418
  -4   0 -12   65.23   79.63   1-0.80042-0.77044-0.16437 0.55573 0.57645 0.31236
   4   0  12   98.24  150.54   1-0.40015-0.42967 0.66067-0.05967 0.63512 0.90101
  -4   0 -12    7.52   89.34   1-0.43088-0.40608-0.63015 0.09005-0.64594-0.90938
  -4   0 -13 2018.57  201.44   1 0.00000 0.04642-0.09194 0.66875 0.99576 0.74203
  -4   0 -13 2951.72  249.89   1-0.80233-0.75865-0.19154 0.57161 0.56531 0.31257
   4   0  13 2358.33  255.05   1-0.40085-0.44404 0.66000-0.10346 0.63537 0.89000
  -4   0 -13 2358.31  236.15   1-0.44375-0.40560-0.61673 0.14655-0.65017-0.90222
  -4   0 -14   97.05   96.62   1 0.00000 0.06006-0.14200 0.66160 0.98986 0.74743
  -4   0 -14 -120.40  106.96   1-0.80352-0.74616-0.21829 0.58791 0.55379 0.31240
   4   0  14  -23.44  117.43   1-0.39912-0.45598 0.66167-0.14491 0.63473 0.87810
  -4   0 -14   18.47  109.54   1-0.45310-0.40160-0.60672 0.19964-0.65313-0.89378
  -4   0 -15 7070.70  398.91   1 0.00000 0.07370-0.18996 0.65655 0.98179 0.75066
  -4   0 -15 6225.35  341.52   1-0.80404-0.73298-0.24471 0.60455 0.54187 0.31184
  -4   0 -16   85.32   91.59   1 0.00000 0.08734-0.23600 0.65343 0.97175 0.75192
  -4   0 -16  -27.52  145.36   1-0.80388-0.71913-0.27085 0.62145 0.52953 0.31085
  -4  -1  17  287.32  170.60   1 0.00000-0.28431 0.98451 0.45721-0.17531-0.84268
  -4  -1  1610537.85  446.93   1 0.00000-0.27070 0.98624 0.50197-0.16530-0.82142
  -4  -1  16 8324.78  454.02   1-0.69553-0.96902 0.23697-0.24606 0.67828 0.02104
  -4  -1  15 3643.93  257.36   1 0.00000-0.25710 0.98843 0.54719-0.15167-0.79654
  -4  -1  15 3281.48  321.93   1-0.71083-0.97063 0.20107-0.23891 0.67400 0.02811
  -4  -1  14  262.97   86.68   1 0.00000-0.23654-0.55186-0.95115 0.83393 0.19837
  -4  -1  14  693.05  132.77   1 0.00000-0.24349 0.99097 0.59276-0.13406-0.76768
  -4  -1  14  505.54  110.47   1-0.72561-0.97173 0.16330-0.23363 0.66843 0.03389
  -4  -1  13 7013.57  391.38   1 0.00000-0.22326-0.60289-0.95917 0.79781 0.17361
  -4  -1  1310581.00  419.48   1 0.00000-0.22989 0.99369 0.63851-0.11209-0.73446
  -4  -1  13 9525.90  515.11   1-0.73986-0.97229 0.12326-0.23063 0.66136 0.03817
  -4  -1  1221325.68  668.73   1 0.00000-0.20997-0.65381-0.96707 0.75665 0.14380
  -4  -1  1224194.12  802.20   1 0.00000-0.21628 0.99634 0.68419-0.08536-0.69648
  -4  -1  1222570.16  733.24   1-0.75351-0.97224 0.08043-0.23040 0.65249 0.04065
  -4  -1  11 4722.77  280.33   1 0.00000-0.19669-0.70419-0.97444 0.71000 0.10850
  -4  -1  11 6127.74  331.00   1 0.00000-0.20268 0.99857 0.72944-0.05344-0.65332
  -4  -1  11 6054.71  374.79   1-0.76642-0.97146 0.03417-0.23361 0.64142 0.04093
  -4  -1  10   79.48   98.95   1 0.00000-0.18340-0.75349-0.98073 0.65745 0.06730
  -4  -1  10  134.33  111.85   1 0.00000-0.18907 0.99987 0.77377-0.01595-0.60458
  -4  -1  10   85.26   65.27   1-0.77838-0.96973-0.01637-0.24111 0.62757 0.03843
  -4  -1   920511.60  590.16   1 0.00000-0.17012-0.80100-0.98522 0.59865 0.01986
  -4  -1   921115.20  566.02   1 0.00000-0.17546 0.99962 0.81655 0.02742-0.54994
  -4  -1   921538.85  658.23   1-0.78900-0.96666-0.07230-0.25399 0.61012 0.03233
  -4  -1   8 2131.75  179.93   1 0.00000-0.15683-0.84583-0.98703 0.53344-0.03399
  -4  -1   8 2428.30  190.04   1 0.00000-0.16186 0.99703 0.85700 0.07689-0.48923
  -4  -1   8 2018.46  203.76   1-0.79761-0.96158-0.13502-0.27366 0.58785 0.02142
  -4  -1   7  898.48  113.22   1 0.00000-0.14355-0.88695-0.98514 0.46185-0.09423
  -4  -1   7 1122.29  133.74   1 0.00000-0.14825 0.99119 0.89418 0.13243-0.42244
  -4  -1   7 1186.80  170.30   1-0.80307-0.95335-0.20623-0.30182 0.55905 0.00396
  -4  -1   6 4029.50  251.94   1 0.00000-0.13465 0.98105 0.92706 0.19375-0.34987
   4   1  -6 4012.36  256.80   1 0.00000 0.13465 0.92378 0.97777-0.38290 0.16072
  -4  -1   6 4179.85  275.09   1-0.80341-0.94000-0.28787-0.34041 0.52120-0.02253
  -4  -1   546102.95  953.82   1 0.00000-0.12104 0.96555 0.95460 0.26019-0.27217
   4   1  -543496.08  953.50   1 0.00000 0.12104 0.95403 0.96499-0.29969 0.23268
  -4  -1   544795.27  962.39   1-0.79539-0.91829-0.38160-0.39109 0.47088-0.06150
  -4  -1   426427.04  682.44   1 0.00000-0.10744 0.94373 0.97580 0.33071-0.19041
   4   1  -426209.91  768.44   1 0.00000 0.10744 0.97716 0.94509-0.21248 0.30864
  -4  -1   3 2979.14  275.77   1 0.00000-0.09396 0.91473 0.98991 0.40405-0.10598
   4   1  -3 3018.55  311.61   1 0.00000 0.09383 0.99241 0.91731-0.12292 0.38695
  -4  -1   214105.87  492.38   1 0.00000-0.08034 0.87835 0.99654 0.47800-0.02081
   4   1  -213179.90  548.62   1 0.00000 0.08023 0.99945 0.88132-0.03298 0.46564
  -4  -1   213527.92  639.79   1-0.11189-0.19372 0.86222 0.98104 0.49400-0.00518
  -4  -1   121766.89  623.92   1 0.00000-0.06673 0.83455 0.99575 0.55091 0.06332
   4   1  -124911.25  791.78   1 0.00000 0.06662 0.99847 0.83731 0.05526 0.54264
  -4  -1   122677.89  872.93   1-0.25142-0.31977 0.78195 0.94388 0.57038 0.08256
   4   1  -124544.79  674.23   1-0.17301-0.10406-0.83069-0.99368-0.52915-0.04201
  -4  -1   0 4596.58  321.04   1 0.00000-0.05311 0.78385 0.98806 0.62093 0.14456
   4   1   0 4481.23  360.63   1 0.00000 0.05302 0.99017 0.78598 0.13983 0.61596
  -4  -1   0 4063.66  302.27   1-0.37107-0.42575 0.68769 0.89274 0.62400 0.14745
   4   1   0 4503.12  314.44   1-0.27857-0.22298-0.76277-0.96883-0.58358-0.10784
  -4  -1  -122183.10  573.97   1 0.00000-0.03950 0.72719 0.97440 0.68643 0.22128
   4   1   122537.78  639.20   1 0.00000 0.03941 0.97571 0.72850 0.21902 0.68390
  -4  -1  -120781.53  601.74   1-0.46687-0.50787 0.59158 0.83975 0.65730 0.19201
   4   1   123553.21  597.62   1-0.38359-0.34135-0.67627-0.92541-0.62889-0.16454
  -4  -1  -210002.94  434.82   1 0.00000-0.02588 0.66577 0.95599 0.74615 0.29223
   4   1   2 8866.38  473.19   1 0.00000 0.02581 0.95653 0.66629 0.29161 0.74524
  -4  -1  -2 9125.31  418.13   1-0.54076-0.56809 0.50133 0.79262 0.67545 0.22141
   4   1   2 9517.38  368.81   1-0.48189-0.45300-0.57452-0.86675-0.66158-0.20863
  -4  -1  -3 2233.53  196.38   1 0.00000-0.01226 0.60094 0.93418 0.79928 0.35658
   4   1   3 2552.49  245.94   1 0.00000 0.01220 0.93415 0.60088 0.35685 0.79924
  -4  -1  -3 2777.12  229.48   1-0.59713-0.61078 0.41993 0.75433 0.68343 0.24066
   4   1   3 2707.89  199.06   1-0.56962-0.55452-0.46124-0.79711-0.68027-0.23897
   4   1   4   84.05   87.42   1 0.00000-0.00134 0.91028 0.53404 0.41397 0.84545
  -4  -1  -4  225.85   84.31   1-0.64037-0.64034 0.34755 0.72507 0.68492 0.25340
   4   1   4  145.00   73.72   1-0.64088-0.63913-0.34664-0.72557-0.68491-0.25503
  -4  -1  -5 2804.99  215.17   1 0.00000 0.01496 0.46624 0.88550 0.88465 0.46439
   4   1   5 2293.98  213.65   1 0.00000-0.01496 0.88576 0.46651 0.46412 0.88438
  -4  -1  -5 2786.35  227.12   1-0.67401-0.66030 0.28316 0.70379 0.68229 0.26203
   4   1   5 3098.81  273.42   1-0.06024-0.07419 0.88465 0.46403 0.46233 0.88270
   4   1   5 3066.51  211.61   1-0.69660-0.70819-0.23455-0.65655-0.67803-0.25959
  -4  -1  -6  702.03  157.62   1 0.00000 0.03141 0.39714 0.85945 0.91775 0.51023
   4   1   6  853.04  127.98   1 0.00000-0.02858 0.86181 0.39954 0.50723 0.91626
  -4  -1  -6  895.47  116.70   1-0.70100-0.67332 0.22445 0.68853 0.67690 0.26937
   4   1   6  992.29  152.07   1-0.11811-0.14575 0.85926 0.39552 0.49770 0.90681
   4   1   6  959.79   97.61   1-0.73796-0.76290-0.12884-0.59390-0.66242-0.25542
  -4  -1  -6  865.97  162.36   1-0.13647-0.11195-0.85021-0.38565-0.50844-0.91582
  -4  -1  -717853.15  835.48   1 0.00000 0.04505 0.33024 0.83547 0.94389 0.54768
   4   1   717518.30  604.97   1 0.00000-0.04219 0.83918 0.33391 0.54384 0.94165
  -4  -1  -719342.08  581.75   1-0.72224-0.68086 0.17223 0.67935 0.66984 0.27366
   4   1   718368.26  642.96   1-0.16367-0.20499 0.83587 0.32901 0.52395 0.92180
   4   1   718779.38  414.57   1-0.76710-0.80539-0.03152-0.53965-0.64074-0.24518
  -4  -1  -718412.68  706.07   1-0.19577-0.15790-0.81753-0.30990-0.54158-0.93756
  -4  -1  -834553.03  840.59   1 0.00000 0.05870 0.26478 0.81293 0.96430 0.57939
   4   1   838128.61  958.25   1 0.00000-0.05581 0.81842 0.27015 0.57460 0.96119
  -4  -1  -837921.41  767.61   1-0.73950-0.68444 0.12433 0.67450 0.66156 0.27673
   4   1   838910.18  995.79   1-0.19946-0.25419 0.81532 0.26534 0.54356 0.93004
   4   1   838657.85  625.41   1-0.78633-0.83796 0.05679-0.49439-0.61518-0.23106
  -4  -1  -838439.63  981.86   1-0.24606-0.19484-0.78559-0.23488-0.56770-0.95229
  -4  -1  -941780.03 1076.37   1 0.00000 0.07234 0.20114 0.79220 0.97956 0.60594
   4   1   943114.62 1208.58   1 0.00000-0.06942 0.79987 0.20858 0.60016 0.97553
  -4  -1  -942590.80 1004.53   1-0.75366-0.68491 0.07990 0.67313 0.65237 0.27889
   4   1   940817.09 1130.83   1-0.22679-0.29520 0.79830 0.20520 0.55791 0.93313
   4   1   944379.58 1006.98   1-0.79776-0.86274 0.13643-0.45781-0.58732-0.21464
  -4  -1  -943630.82 1385.84   1-0.28788-0.22331-0.75591-0.16211-0.58797-0.96117
  -4  -1 -10 3304.39  300.76   1 0.00000 0.08598 0.13954 0.77352 0.99021 0.62790
   4   1  10 3769.84  263.70   1 0.00000-0.08304 0.78370 0.14940 0.62113 0.98528
  -4  -1 -10 3480.18  241.44   1-0.76534-0.68290 0.03829 0.67457 0.64247 0.28033
   4   1  10 3660.20  328.99   1-0.24750-0.32958 0.78462 0.14840 0.56842 0.93238
  -4  -1 -10 3691.38  256.84   1-0.32209-0.24416-0.72940-0.09253-0.60351-0.96530
  -4  -1 -11   37.42   82.10   1 0.00000 0.09962 0.08010 0.75699 0.99678 0.64577
  -4  -1 -11  -24.03   79.85   1-0.77498-0.67885-0.00102 0.67830 0.63197 0.28118
   4   1  11 -105.29  163.18   1-0.26280-0.35856 0.77406 0.09473 0.57598 0.92868
  -4  -1 -11   19.42  113.89   1-0.34960-0.25833-0.70653-0.02658-0.61528-0.96569
  -4  -1 -12  250.68  116.66   1 0.00000 0.11327 0.02283 0.74264 0.99973 0.66003
  -4  -1 -12   36.87  110.57   1-0.78290-0.67308-0.03848 0.68389 0.62094 0.28150
   4   1  12  -25.25  119.01   1-0.27364-0.38308 0.76634 0.04389 0.58122 0.92267
  -4  -1 -12   25.52   76.82   1-0.37134-0.26671-0.68745 0.03558-0.62410-0.96311
  -4  -1 -13  373.86  126.95   1 0.00000 0.12691-0.03228 0.73044 0.99947 0.67107
  -4  -1 -13  150.57  102.27   1-0.78934-0.66583-0.07440 0.69102 0.60942 0.28133
   4   1  13   63.03  110.68   1-0.28076-0.40387 0.76117-0.00438 0.58462 0.91480
  -4  -1 -13  113.28   95.01   1-0.38809-0.27011-0.67209 0.09402-0.63060-0.95822
  -4  -1 -14 5296.53  341.47   1 0.00000 0.14055-0.08532 0.72032 0.99635 0.67925
  -4  -1 -14 6404.94  412.29   1-0.79447-0.65726-0.10904 0.69943 0.59742 0.28069
  -4  -1 -14 4922.64  385.51   1-0.40056-0.26923-0.66028 0.14891-0.63527-0.95149
  -4  -1 -15   29.71  127.11   1 0.00000 0.15419-0.13638 0.71217 0.99065 0.68485
  -4  -1 -15  201.39   95.36   1-0.79841-0.64752-0.14262 0.70890 0.58496 0.27958
  -4  -2  1612682.80  551.60   1 0.00000-0.19069 0.99436 0.51225-0.10600-0.83739
  -4  -2  15 2296.81  339.98   1 0.00000-0.17709 0.99580 0.55672-0.09145-0.81160
  -4  -2  15 1435.54  250.36   1-0.75264-0.93260 0.08331-0.35440 0.65313-0.06810
  -4  -2  14 3477.70  261.97   1 0.00000-0.16348 0.99731 0.60125-0.07325-0.78215
  -4  -2  14 2245.77  253.06   1-0.76546-0.93173 0.03786-0.35680 0.64236-0.06752
  -4  -2  13 3374.65  255.23   1 0.00000-0.14988 0.99869 0.64566-0.05112-0.74876
  -4  -2  13 2947.23  277.61   1-0.77705-0.92964-0.01028-0.36190 0.62934-0.06919
  -4  -2  12  547.29  123.46   1 0.00000-0.12929-0.67980-0.99054 0.73339 0.04590
  -4  -2  12  354.44  108.56   1 0.00000-0.13627 0.99969 0.68969-0.02476-0.71116
  -4  -2  12  263.68  110.72   1-0.78717-0.92606-0.06155-0.37012 0.61365-0.07353
  -4  -2  1110281.38  372.51   1 0.00000-0.11600-0.72544-0.99317 0.68827 0.01214
  -4  -2  1111081.71  440.64   1 0.00000-0.12266 0.99998 0.73300 0.00608-0.66906
  -4  -2  1110417.50  427.25   1-0.79542-0.92062-0.11640-0.38192 0.59476-0.08107
  -4  -2  10   89.70   70.85   1 0.00000-0.10272-0.76964-0.99436 0.63846-0.02631
  -4  -2  10  109.84   94.36   1 0.00000-0.10906 0.99913 0.77518 0.04165-0.62224
  -4  -2  10   67.14   84.46   1-0.80127-0.91279-0.17534-0.39781 0.57201-0.09247
  -4  -2   9  471.20  114.73   1 0.00000-0.08943-0.81186-0.99355 0.58385-0.06958
  -4  -2   9  729.02  129.68   1 0.00000-0.09545 0.99662 0.81570 0.08211-0.57053
  -4  -2   9  912.24  166.49   1-0.80398-0.90180-0.23885-0.41826 0.54456-0.10857
  -4  -2   811570.68  405.06   1 0.00000-0.07615-0.85144-0.99013 0.52443-0.11764
  -4  -2   812713.39  438.61   1 0.00000-0.08185 0.99183 0.85395 0.12752-0.51387
  -4  -2   811494.16  405.95   1-0.80251-0.88665-0.30730-0.44367 0.51139-0.13039
  -4  -2   7 2338.40  181.09   1 0.00000-0.06286-0.88770-0.98338 0.46040-0.17032
  -4  -2   7 2484.41  222.32   1 0.00000-0.06824 0.98407 0.88921 0.17777-0.45237
  -4  -2   7 2425.42  205.33   1-0.79549-0.86593-0.38084-0.47416 0.47132-0.15911
  -4  -2   6 5335.83  280.05   1 0.00000-0.05464 0.97257 0.92074 0.23258-0.38631
   4   2  -6 5048.34  355.57   1 0.00000 0.05455 0.92034 0.97217-0.39111 0.22783
  -4  -2   5 1593.55  191.77   1 0.00000-0.04103 0.95659 0.94779 0.29141-0.31623
   4   2  -5 1711.87  187.66   1 0.00000 0.04103 0.94775 0.95655-0.31900 0.28864
  -4  -2   4  603.97  130.72   1 0.00000-0.02743 0.93543 0.96966 0.35349-0.24290
   4   2  -4  446.07  122.50   1 0.00000 0.02743 0.96973 0.93550-0.24416 0.35223
  -4  -2   3 1100.12  159.74   1 0.00000-0.01388 0.90846 0.98580 0.41796-0.16732
   4   2  -3 1497.95  177.60   1 0.00000 0.01382 0.98584 0.90858-0.16768 0.41746
  -4  -2   239708.55 1046.26   1 0.00000-0.00027 0.87551 0.99586 0.48319-0.09086
   4   2  -239810.75  978.61   1 0.00000 0.00022 0.99586 0.87558-0.09083 0.48306
  -4  -2   240087.10 1061.50   1-0.09439-0.09628 0.87025 0.99116 0.48347-0.09126
   4   2  -241018.69 1031.68   1-0.09770-0.09523-0.86877-0.99150-0.48547 0.08861
  -4  -2   1  579.30  135.58   1 0.00000 0.01334 0.83644 0.99980 0.54805-0.01478
   4   2  -1  601.56  158.31   1 0.00000-0.01338 0.99988 0.83657-0.01496 0.54768
  -4  -2   1  447.51  141.46   1-0.19308-0.18128 0.81913 0.98315 0.54013-0.02334
   4   2  -1  604.03  119.02   1-0.20876-0.21965-0.80966-0.97547-0.54850 0.01419
  -4  -2   051929.85  995.50   1 0.00000 0.02696 0.79149 0.99786 0.61117 0.05955
   4   2   051334.11 1012.18   1 0.00000-0.02698 0.99828 0.79194 0.05859 0.60999
  -4  -2   052076.77 1205.73   1-0.28533-0.26008 0.75781 0.96496 0.58677 0.03467
   4   2   051987.06 1028.78   1-0.32606-0.35030-0.72618-0.93507-0.60525-0.05394
  -4  -2  -1 2604.87  215.81   1 0.00000 0.04057 0.74118 0.99056 0.67129 0.13089
   4   2   1 2688.54  212.11   1 0.00000-0.04059 0.99168 0.74232 0.12865 0.66881
  -4  -2  -1 2888.01  247.36   1-0.36795-0.32903 0.69049 0.94075 0.62276 0.08191
   4   2   1 2519.26  213.62   1-0.44188-0.47947-0.61870-0.87067-0.64957-0.10965
  -4  -2  -2  483.77  101.46   1 0.00000 0.05419 0.68628 0.97867 0.72733 0.19815
   4   2   2  459.57  133.20   1 0.00000-0.05420 0.98095 0.68855 0.19424 0.72315
  -4  -2  -2  286.05  112.29   1-0.43986-0.38727 0.62082 0.91421 0.64891 0.11933
   4   2   2  324.02  101.03   1-0.54936-0.60080-0.48970-0.78542-0.67703-0.14879
  -4  -2  -3 8836.55  384.28   1 0.00000 0.06780 0.62769 0.96308 0.77846 0.26050
   4   2   3 8406.20  428.44   1 0.00000-0.06780 0.96702 0.63160 0.25466 0.77231
  -4  -2  -3 9075.00  398.82   1-0.50122-0.43495 0.55164 0.88814 0.66667 0.14835
   4   2   3 9073.90  338.00   1-0.63715-0.70194-0.35331-0.69208-0.68498-0.16817
  -4  -2  -4 5976.34  281.11   1 0.00000 0.08142 0.56638 0.94478 0.82414 0.31741
   4   2   4 5108.03  367.60   1 0.00000-0.08141 0.95090 0.57245 0.30947 0.81588
  -4  -2  -4 5444.88  274.99   1-0.55296-0.47302 0.48475 0.86437 0.67766 0.17060
   4   2   4 5619.69  290.03   1-0.70403-0.78217-0.21737-0.59922-0.67607-0.17070
  -4  -2  -5 3454.12  248.95   1 0.00000 0.09504 0.50330 0.92471 0.86410 0.36859
   4   2   5 3031.95  258.57   1 0.00000-0.09501 0.93351 0.51203 0.35853 0.85369
  -4  -2  -5 3025.52  241.85   1-0.59639-0.50277 0.42109 0.84382 0.68337 0.18756
   4   2   5 2948.09  180.60   1-0.75063-0.84211-0.08990-0.51481-0.65457-0.16064
  -4  -2  -615150.94  494.08   1 0.00000 0.10865 0.43933 0.90375 0.89832 0.41403
   4   2   613590.42  481.98   1 0.00000-0.10865 0.91592 0.45150 0.40133 0.88562
  -4  -2  -613193.98  515.33   1-0.63280-0.52550 0.36098 0.82683 0.68501 0.20046
   4   2   614205.22  411.02   1-0.78013-0.88496 0.02468-0.44328-0.62512-0.14263
  -4  -2  -711978.41  783.12   1 0.00000 0.12554 0.37341 0.88067 0.92766 0.45677
   4   2   713076.46  609.58   1 0.00000-0.12227 0.89839 0.39096 0.43917 0.91224
  -4  -2  -713463.42  527.39   1-0.66339-0.54242 0.30440 0.81336 0.68355 0.21026
   4   2   713795.76  614.53   1-0.01976-0.14103 0.89959 0.39064 0.43627 0.90967
   4   2   715227.18  463.41   1-0.79650-0.91467 0.12521-0.38582-0.59153-0.12047
  -4  -2  -8  137.31  119.10   1 0.00000 0.13919 0.30963 0.85981 0.95085 0.49126
   4   2   8  190.44  144.84   1 0.00000-0.13589 0.88166 0.33123 0.47187 0.93371
  -4  -2  -8  169.28  114.66   1-0.68916-0.55451 0.25112 0.80320 0.67969 0.21766
   4   2   8  391.96  172.52   1-0.05763-0.19258 0.88569 0.33362 0.46068 0.92282
  -4  -2  -8  293.54   95.03   1-0.10434 0.02670-0.86574-0.31220-0.48948-0.94963
  -4  -2  -9  540.60  132.81   1 0.00000 0.15283 0.24680 0.83990 0.96906 0.52077
   4   2   9  612.02  166.10   1 0.00000-0.14950 0.86614 0.27269 0.49979 0.95041
  -4  -2  -9  626.66  124.35   1-0.71129-0.56269 0.19995 0.79544 0.67385 0.22502
   4   2   9  526.05  152.56   1-0.08875-0.23739 0.87274 0.27756 0.48003 0.93091
  -4  -2  -9  375.03  113.75   1-0.15930-0.01489-0.83825-0.24162-0.52149-0.97025
  -4  -2 -10 1380.06  204.10   1 0.00000 0.16647 0.18526 0.82127 0.98268 0.54570
  -4  -2 -10 1451.16  178.16   1-0.72964-0.56736 0.15239 0.79094 0.66662 0.22914
   4   2  10 1152.40  255.74   1-0.11396-0.27628 0.86125 0.22295 0.49523 0.93485
  -4  -2 -10 1507.68  224.97   1-0.20507-0.04732-0.81192-0.17221-0.54655-0.98392
  -4  -2 -11  713.11  161.34   1 0.00000 0.18011 0.12524 0.80417 0.99212 0.56643
  -4  -2 -11  833.23  155.33   1-0.74518-0.56921 0.10716 0.78876 0.65818 0.23205
   4   2  11  540.62  145.42   1-0.13403-0.31003 0.85144 0.17002 0.50703 0.93539
  -4  -2 -11  669.68  129.08   1-0.24248-0.07138-0.78799-0.10521-0.56591-0.99188
  -4  -2 -12  392.09  123.03   1 0.00000 0.19375 0.06690 0.78875 0.99775 0.58337
  -4  -2 -12  469.65  103.28   1-0.75832-0.56866 0.06395 0.78860 0.64872 0.23394
  -4  -2 -12  271.84  114.24   1-0.27250-0.08804-0.76716-0.04130-0.58068-0.99526
  -4  -2 -13  434.68  108.71   1 0.00000 0.20740 0.01030 0.77507 0.99994 0.59686
  -4  -2 -13  517.48  154.48   1-0.76938-0.56603 0.02249 0.79019 0.63838 0.23495
  -4  -3  1510240.15  446.55   1 0.00000-0.09707 0.99967 0.56274-0.02549-0.82091
  -4  -3  14    5.14  124.12   1 0.00000-0.08347 0.99997 0.60607-0.00685-0.79101
  -4  -3  13   76.06  135.56   1 0.00000-0.06986 0.99988 0.64900 0.01534-0.75756
  -4  -3  12 4968.32  293.47   1 0.00000-0.05626 0.99914 0.69129 0.04129-0.72037
  -4  -3  12 4062.06  294.22   1-0.80076-0.85981-0.16852-0.47482 0.57478-0.18775
  -4  -3  11 7000.58  421.24   1 0.00000-0.04265 0.99746 0.73264 0.07114-0.67927
  -4  -3  11 5770.10  404.22   1-0.80373-0.84909-0.22542-0.48868 0.55063-0.20056
  -4  -3  10 6201.11  334.27   1 0.00000-0.02905 0.99446 0.77267 0.10503-0.63413
  -4  -3  10 5844.43  376.30   1-0.80351-0.83518-0.28504-0.50524 0.52260-0.21723
  -4  -3   911354.31  513.54   1 0.00000-0.00875-0.81058-0.98976 0.58561-0.14245
  -4  -3   911295.80  441.76   1 0.00000-0.01544 0.98971 0.81095 0.14301-0.58490
  -4  -3   911012.36  543.24   1-0.79942-0.81741-0.34730-0.52445 0.49019-0.23829
  -4  -3   814822.08  503.91   1 0.00000 0.00453-0.84664-0.98281 0.53215-0.18456
  -4  -3   815725.01  570.92   1 0.00000-0.00184 0.98272 0.84699 0.18506-0.53160
  -4  -3   816291.04  535.52   1-0.79069-0.79499-0.41194-0.54603 0.45288-0.26425
  -4  -3   7 6216.04  353.06   1 0.00000 0.01781-0.87985-0.97299 0.47525-0.23011
  -4  -3   7 7662.35  413.46   1 0.00000 0.01176 0.97294 0.88023 0.23103-0.47438
  -4  -3   6   -5.24   90.62   1 0.00000 0.02536 0.95981 0.91013 0.28063-0.41353
   4   3  -6   24.35   93.12   1 0.00000-0.02545 0.91006 0.95973-0.41446 0.27975
  -4  -3   5 1465.77  160.96   1 0.00000 0.03897 0.94277 0.93612 0.33342-0.34949
   4   3  -5 1289.38  165.79   1 0.00000-0.03897 0.93610 0.94275-0.35172 0.33120
  -4  -3   430823.21  805.71   1 0.00000 0.05257 0.92124 0.95774 0.38897-0.28278
   4   3  -430278.81  721.55   1 0.00000-0.05257 0.95793 0.92155-0.28699 0.38467
  -4  -3   316548.74  524.91   1 0.00000 0.06619 0.89498 0.97448 0.44609-0.21445
   4   3  -315656.73  603.07   1 0.00000-0.06618 0.97526 0.89585-0.22104 0.43938
  -4  -3   316083.48  623.69   1-0.03132 0.03305 0.89556 0.97545 0.44382-0.21771
  -4  -3   2 3676.77  232.08   1 0.00000 0.07980 0.86366 0.98617 0.50407-0.14524
   4   3  -2 3684.57  307.09   1 0.00000-0.07978 0.98795 0.86552-0.15470 0.49446
  -4  -3   2 3506.24  296.43   1-0.10831-0.03024 0.86390 0.98690 0.49186-0.15841
   4   3  -2 3582.18  274.99   1-0.16122-0.23859-0.83721-0.96276-0.52257 0.12708
  -4  -3   163781.93 1084.61   1 0.00000 0.09342 0.82718 0.99270 0.56192-0.07617
   4   3  -162331.80 1261.51   1 0.00000-0.09339 0.99603 0.83057-0.08890 0.54901
  -4  -3   160260.21 1198.58   1-0.18446-0.09271 0.82417 0.99029 0.53545-0.10356
   4   3  -164364.44 1252.01   1-0.28889-0.37961-0.75516-0.92380-0.58844 0.04982
  -4  -3   021872.00  609.30   1 0.00000 0.10703 0.78569 0.99422 0.61861-0.00825
   4   3   019953.87  597.72   1 0.00000-0.10700 0.99969 0.79120-0.02456 0.60211
  -4  -3   019987.52  725.47   1-0.25781-0.15265 0.77754 0.98679 0.57354-0.05411
   4   3   020710.62  651.06   1-0.42365-0.52772-0.63753-0.84925-0.64348-0.01660
  -4  -3  -118365.97  514.24   1 0.00000 0.12065 0.73948 0.99102 0.67316 0.05751
   4   3   116761.68  625.89   1 0.00000-0.12060 0.99929 0.74777 0.03747 0.65290
  -4  -3  -116969.62  696.99   1-0.32660-0.20776 0.72575 0.97811 0.60548-0.01090
   4   3   117620.29  534.20   1-0.55613-0.67411-0.48037-0.73592-0.67820-0.06302
  -4  -3  -2 1227.48  150.53   1 0.00000 0.13427 0.68907 0.98361 0.72469 0.12026
   4   3   2 1044.23  147.72   1 0.00000-0.13421 0.99533 0.70078 0.09644 0.70062
  -4  -3  -2 1111.64  181.17   1-0.38980-0.25728 0.67049 0.96598 0.63125 0.02611
   4   3   2 1165.68  129.05   1-0.66542-0.79675-0.30041-0.59903-0.68334-0.07960
  -4  -3  -3 1131.58  137.66   1 0.00000 0.14788 0.63507 0.97262 0.77245 0.17924
   4   3   3  910.52  140.04   1 0.00000-0.14781 0.98841 0.65084 0.15175 0.74468
  -4  -3  -3  795.45  134.96   1-0.44689-0.30070 0.61339 0.95199 0.65117 0.05729
   4   3   3 1235.18  129.82   1-0.74302-0.88770-0.11379-0.45548-0.65951-0.06721
  -4  -3  -4 1255.09  142.52   1 0.00000 0.16150 0.57818 0.95874 0.81590 0.23392
   4   3   4 1098.16  156.90   1 0.00000-0.16142 0.97918 0.59858 0.20294 0.78462
  -4  -3  -4  895.55  141.31   1-0.49780-0.33794 0.55576 0.93748 0.66581 0.08319
   4   3   4  876.43  103.06   1-0.78661-0.94464 0.05839-0.32635-0.61467-0.03380
  -4  -3  -5 5298.14  324.98   1 0.00000 0.17512 0.51914 0.94272 0.85468 0.28392
   4   3   5 4710.67  308.70   1 0.00000-0.17502 0.96831 0.54467 0.24974 0.82017
  -4  -3  -5 4850.60  292.56   1-0.54280-0.36926 0.49860 0.92343 0.67583 0.10447
  -4  -3  -6   45.37  101.45   1 0.00000 0.18873 0.45867 0.92525 0.88860 0.32906
   4   3   6  253.47  141.61   1 0.00000-0.18863 0.95640 0.48974 0.29203 0.85121
  -4  -3  -6  -79.41   84.84   1-0.58233-0.39511 0.44257 0.91051 0.68192 0.12182
  -4  -3  -715457.32  973.36   1 0.00000 0.20603 0.39538 0.90468 0.91851 0.37294
   4   3   722967.55  760.32   1 0.00000-0.20223 0.94404 0.43435 0.32980 0.87774
  -4  -3  -724605.57  787.01   1-0.61690-0.41601 0.38808 0.89915 0.68469 0.13585
  -4  -3  -821044.45 1069.66   1 0.00000 0.21968 0.33376 0.88597 0.94265 0.40838
  -4  -3  -826836.63 1047.07   1-0.64708-0.43251 0.33536 0.88954 0.68470 0.14711
  -4  -3  -9 1710.00  252.06   1 0.00000 0.23332 0.27242 0.86755 0.96217 0.43921
  -4  -3  -9 1646.04  212.15   1-0.67337-0.44512 0.28446 0.88176 0.68238 0.15606
  -4  -3 -10  217.40  126.45   1 0.00000 0.24696 0.21175 0.84980 0.97732 0.46565
  -4  -3 -10  376.95  134.99   1-0.69664-0.45451 0.23447 0.87528 0.67802 0.16518
  -4  -3 -11 1119.78  227.93   1 0.00000 0.26060 0.15205 0.83302 0.98837 0.48800
  -4  -3 -11 1260.65  224.11   1-0.71642-0.46061 0.18718 0.87105 0.67208 0.17059
  -4  -3 -12 1492.70  182.82   1 0.00000 0.27425 0.09354 0.81742 0.99561 0.50655
  -4  -3 -12 1544.34  193.88   1-0.73355-0.46405 0.14151 0.86843 0.66473 0.17459
  -4  -4  13  -74.94  139.20   1 0.00000 0.01014 0.99627 0.64755 0.08623-0.76195
  -4  -4  12   37.62   96.61   1 0.00000 0.02374 0.99374 0.68804 0.11166-0.72527
  -4  -4  11 5740.79  367.04   1 0.00000 0.03735 0.99007 0.72741 0.14050-0.68518
  -4  -4  11 4429.72  340.03   1-0.80297-0.76850-0.29841-0.55939 0.51592-0.31061
  -4  -4  10 1223.04  233.96   1 0.00000 0.05095 0.98495 0.76531 0.17280-0.64163
  -4  -4  10 1435.63  231.31   1-0.79862-0.75046-0.35510-0.57304 0.48589-0.32929
  -4  -4   9   58.41  128.11   1 0.00000 0.06456 0.97801 0.80139 0.20855-0.59463
  -4  -4   9    6.36   79.34   1-0.79053-0.72868-0.41287-0.58775 0.45231-0.35152
  -4  -4   8 7080.95  410.20   1 0.00000 0.07816 0.96884 0.83526 0.24767-0.54426
  -4  -4   7  408.55  155.41   1 0.00000 0.09177 0.95703 0.86647 0.28998-0.49070
  -4  -4   616227.55  526.77   1 0.00000 0.10537 0.94214 0.89461 0.33521-0.43423
  -4  -4   5  307.77  116.52   1 0.00000 0.11903 0.92367 0.91932 0.38316-0.37506
   4   4  -5  202.86  131.67   1 0.00000-0.11907 0.91914 0.92362-0.39391 0.36433
  -4  -4   4 2649.86  225.06   1 0.00000 0.13265 0.90142 0.94008 0.43292-0.31408
   4   4  -4 2324.07  238.54   1 0.00000-0.13259 0.94125 0.90272-0.33768 0.40926
  -4  -4   3 2151.59  217.89   1 0.00000 0.14626 0.87502 0.95668 0.48407-0.25171
   4   4  -3 1760.31  202.61   1 0.00000-0.14619 0.95985 0.87829-0.28048 0.45521
  -4  -4   3 2073.19  243.86   1-0.07350 0.07082 0.87926 0.96124 0.47063-0.26645
   4   4  -3 1751.21  200.44   1-0.14546-0.28931-0.84559-0.93089-0.51362 0.22299
  -4  -4   238133.50  899.79   1 0.00000 0.15988 0.84427 0.96894 0.53591-0.18865
   4   4  -235517.52 1073.25   1 0.00000-0.15980 0.97483 0.85025-0.22291 0.50153
  -4  -4   234695.16 1067.28   1-0.13564 0.02236 0.85062 0.97572 0.50796-0.21785
   4   4  -238534.14 1058.05   1-0.28596-0.44316-0.75734-0.88572-0.58707 0.13815
  -4  -4   1 4187.30  308.05   1 0.00000 0.17350 0.80910 0.97678 0.58766-0.12568
   4   4  -1 3450.84  275.34   1 0.00000-0.17340 0.98619 0.81857-0.16560 0.54759
  -4  -4   1 3962.33  306.95   1-0.19744-0.02575 0.81653 0.98474 0.54248-0.17208
   4   4  -1 3667.31  269.80   1-0.44936-0.61991-0.61075-0.78222-0.65196 0.06188
  -4  -4   067285.28 1427.58   1 0.00000 0.18711 0.76959 0.98027 0.63853-0.06358
   4   4   062814.69 1468.52   1 0.00000-0.18701 0.99401 0.78337-0.10920 0.59274
  -4  -4   060674.26 1465.77   1-0.25783-0.07274 0.77753 0.98888 0.57354-0.12965
   4   4   067111.91 1524.45   1-0.63428-0.81881-0.35839-0.57380-0.68501 0.01712
  -4  -4  -1 5292.37  293.04   1 0.00000 0.20073 0.72594 0.97964 0.68775-0.00314
   4   4   1 4853.90  338.23   1 0.00000-0.20061 0.99852 0.74484-0.05434 0.63635
  -4  -4  -1 5540.80  446.67   1-0.31576-0.11700 0.73446 0.98893 0.60071-0.09123
  -4  -4  -2  -44.31   88.42   1 0.00000 0.21435 0.67850 0.97521 0.73459 0.05491
   4   4   2  -84.19  129.27   1 0.00000-0.21422 0.99999 0.70329-0.00160 0.67784
  -4  -4  -2   19.15  105.86   1-0.37050-0.15807 0.68820 0.98578 0.62377-0.05691
  -4  -4  -3 1554.04  209.31   1 0.00000 0.22796 0.62772 0.96743 0.77843 0.10997
   4   4   3 1420.74  225.52   1 0.00000-0.22782 0.99882 0.65909 0.04851 0.71672
  -4  -4  -3 1726.35  219.93   1-0.42154-0.19543 0.63965 0.98035 0.64275-0.02667
  -4  -4  -4 3199.34  289.00   1 0.00000 0.24158 0.57411 0.95684 0.81877 0.16153
  -4  -4  -4 3156.97  271.15   1-0.46860-0.22882 0.58965 0.97346 0.65781-0.00035
  -4  -4  -5 1421.24  192.09   1 0.00000 0.25519 0.51825 0.94398 0.85522 0.20921
  -4  -4  -5 1446.99  187.88   1-0.51160-0.25813 0.53891 0.96585 0.66920 0.02229
  -4  -4  -6  301.89  140.99   1-0.55058-0.28344 0.48803 0.95808 0.67725 0.04160
  -4  -4  -712526.87  569.15   1-0.58573-0.30491 0.43744 0.95061 0.68231 0.05792
  -4  -4  -8 1000.55  287.25   1 0.00000 0.30017 0.34021 0.89446 0.94034 0.33140
  -4  -4  -8 2191.12  336.94   1-0.61727-0.32278 0.38748 0.94376 0.68471 0.07157
  -4  -4  -9  148.27  129.99   1 0.00000 0.31381 0.28051 0.87768 0.95985 0.36220
  -4  -4  -9  181.18   98.91   1-0.64545-0.33729 0.33834 0.93774 0.68476 0.08289
  -4  -5   9  292.91  139.51   1 0.00000 0.14457 0.96067 0.78621 0.27766-0.60079
  -4  -5   8 7370.71  389.96   1 0.00000 0.15818 0.94938 0.81795 0.31411-0.55310
  -4  -5   6 3297.48  265.54   1 0.00000 0.18549 0.91878 0.87357 0.39476-0.44994
  -4  -5   5 3210.31  274.80   1 0.00000 0.19911 0.89889 0.89670 0.43816-0.39532
  -4  -5   4 1349.51  248.00   1 0.00000 0.21273 0.87555 0.91636 0.48312-0.33914
  -4  -5   4 1465.91  277.35   1-0.06702 0.14356 0.88192 0.92288 0.46658-0.35730
   4   5  -4 1697.38  283.34   1-0.17409-0.38442-0.83008-0.87514-0.52975 0.29383
  -4  -5   310624.87  547.60   1 0.00000 0.22634 0.84853 0.93235 0.52913-0.28191
  -4  -5   311484.70  562.51   1-0.11835 0.10592 0.85915 0.94323 0.49783-0.31479
   4   5  -311778.50  599.45   1-0.34686-0.57054-0.70888-0.79702-0.61414 0.19807
  -4  -5   2 1463.41  257.96   1 0.00000 0.23996 0.81770 0.94454 0.57563-0.22419
  -4  -5   2 1862.23  332.04   1-0.17027 0.06768 0.83222 0.95942 0.52763-0.27373
  -4  -5   123383.68  662.81   1 0.00000 0.25357 0.78302 0.95285 0.62199-0.16660
  -4  -5   124075.11  960.15   1-0.22206 0.02925 0.80133 0.97166 0.55547-0.23454
  -4  -5   057501.69 1220.12   1 0.00000 0.26719 0.74452 0.95736 0.66759-0.10977
  -4  -5   058617.67 1369.34   1-0.27307-0.00807 0.76675 0.98020 0.58095-0.19780
  -4  -5  -1   83.75  119.09   1 0.00000 0.28081 0.70236 0.95822 0.71181-0.05434
  -4  -5  -1  222.67  120.39   1-0.32264-0.04396 0.72895 0.98552 0.60375-0.16374
  -4  -5  -2 2669.69  405.26   1-0.37025-0.07790 0.68842 0.98810 0.62368-0.13256
  -4  -5  -3 1163.37  232.49   1-0.41550-0.10947 0.64569 0.98849 0.64064-0.10433
  -4  -5  -4 1582.62  318.01   1-0.45808-0.13838 0.60130 0.98721 0.65466-0.07905
  -4  -5  -5  629.60  161.18   1-0.49784-0.16446 0.55572 0.98475 0.66582-0.05663
  -4  -5  -6   19.83  137.47   1-0.53469-0.18763 0.50939 0.98154 0.67425-0.03694
   5  -8  -8  224.11  169.95   1-0.51795 0.39906 0.53096 0.63900 0.67067 0.65758
   5  -8  -8  140.67  121.45   1-0.39066 0.52408-0.66968-0.55645-0.63158-0.64473
   5  -8  -7 3891.82  324.04   1-0.47813 0.42521 0.57885 0.64378 0.66054 0.63619
   5  -8  -7 4097.19  273.04   1-0.42148 0.47992-0.63971-0.56957-0.64273-0.66728
   5  -8  -6  314.10  133.70   1-0.43523 0.45442 0.62565 0.64746 0.64739 0.61178
   5  -8  -6  274.86  125.13   1-0.45310 0.43494-0.60672-0.57965-0.65313-0.68907
   5  -8  -5 2895.20  459.95   1-0.38942 0.48656 0.67085 0.64954 0.63111 0.58424
   5  -8  -5 2668.38  387.62   1-0.48507 0.38962-0.57082-0.58684-0.66246-0.70979
   5  -8  -4 1257.67  250.63   1-0.34095 0.52135 0.71388 0.64945 0.61165 0.55352
   5  -8  -4 1379.20  238.89   1-0.51693 0.34441-0.53225-0.59134-0.67044-0.72916
   5  -8  -3  122.54  126.37   1-0.29023 0.55840 0.75415 0.64661 0.58907 0.51968
   5  -8  -3  261.35  119.08   1-0.54776 0.30014-0.49189-0.59415-0.67675-0.74624
   5  -8  -2 8078.09  527.24   1-0.23778 0.59717 0.79112 0.64046 0.56353 0.48289
   5  -8  -2 8380.30  427.20   1-0.57810 0.25646-0.44885-0.59418-0.68141-0.76234
   5  -8  -1 2116.16  350.25   1-0.18434 0.63695 0.82424 0.63042 0.53539 0.44368
   5  -8  -1 1993.85  301.74   1-0.60708 0.21413-0.40414-0.59254-0.68418-0.77655
   5  -8   0  637.19  182.95   1-0.13043 0.67718 0.85324 0.61631 0.50493 0.40197
   5  -8   0  885.20  164.60   1-0.63440 0.17347-0.35818-0.58963-0.68500-0.78881
   5  -8   1 1869.77  297.16   1-0.07691 0.71701 0.87783 0.59778 0.47274 0.35852
   5  -8   1 1680.06  251.61   1-0.65982 0.13470-0.31135-0.58587-0.68388-0.79912
   5  -8   2  105.94  112.95   1-0.02455 0.75569 0.89795 0.57478 0.43941 0.31392
   5  -8   2  184.90   86.35   1-0.68317 0.09800-0.26404-0.58162-0.68084-0.80752
   5  -8   3 3376.97  203.77   1-0.70436 0.06346-0.21659-0.57724-0.67598-0.81410
   5  -8   4 2861.18  372.93   1-0.72335 0.03113-0.16930-0.57301-0.66939-0.81895
   5  -8   517650.82  824.57   1 0.00000 0.73835 0.95800 0.50752-0.28676-0.44412
   5  -8   516332.02  545.40   1-0.74015 0.00099-0.12242-0.56920-0.66120-0.82219
   5  -8   6 1139.59  184.90   1 0.00000 0.72474 0.93177 0.43827-0.36304-0.53165
   5  -8   6  903.80  118.62   1-0.75478-0.02698-0.07615-0.56599-0.65153-0.82396
   5  -8   710385.25  452.92   1 0.00000 0.71112 0.90923 0.37278-0.41629-0.59609
   5  -8   7 9597.37  340.26   1-0.76733-0.05287-0.03064-0.56354-0.64051-0.82438
   5  -7 -11  120.02  129.95   1-0.64284 0.23527 0.34309 0.57838 0.68485 0.78109
   5  -7 -11   67.70  125.09   1-0.19149 0.68348-0.82006-0.58042-0.53927-0.44267
   5  -7 -10 1004.86  213.03   1-0.61282 0.25162 0.39482 0.58699 0.68451 0.76949
   5  -7 -10 1024.83  202.25   1-0.21946 0.64216-0.80298-0.60641-0.55412-0.46891
   5  -7  -9  482.54  161.38   1-0.57908 0.27169 0.44740 0.59646 0.68153 0.75525
   5  -7  -9  373.61  151.42   1-0.25000 0.59826-0.78292-0.62943-0.56967-0.49586
   5  -7  -8 1139.80  210.62   1-0.54134 0.29575 0.50056 0.60650 0.67556 0.73802
   5  -7  -8 1012.58  185.11   1-0.28286 0.55205-0.75962-0.64922-0.58561-0.52320
   5  -7  -7 1854.35  210.65   1-0.49938 0.32403 0.55386 0.61669 0.66621 0.71741
   5  -7  -7 2053.43  213.53   1-0.31771 0.50385-0.73291-0.66559-0.60157-0.55055
   5  -7  -6    6.82   86.86   1-0.45308 0.35666 0.60674 0.62645 0.65312 0.69306
   5  -7  -6   72.15  115.83   1-0.35411 0.45410-0.70265-0.67841-0.61715-0.57752
   5  -7  -5 6525.89  513.89   1-0.40244 0.39362 0.65847 0.63506 0.63596 0.66464
   5  -7  -5 6831.00  391.62   1-0.39156 0.40329-0.66883-0.68768-0.63192-0.60369
   5  -7  -417444.13  783.85   1-0.34768 0.43470 0.70817 0.64165 0.61448 0.63191
   5  -7  -419602.78  747.57   1-0.42952 0.35198-0.63155-0.69347-0.64548-0.62864
   5  -7  -319384.75  815.64   1-0.28925 0.47946 0.75489 0.64525 0.58861 0.59478
   5  -7  -320805.89  558.15   1-0.46740 0.30075-0.59099-0.69600-0.65745-0.65201
   5  -7  -216967.40  667.24   1-0.22785 0.52719 0.79762 0.64486 0.55846 0.55336
   5  -7  -215509.75  505.97   1-0.50463 0.25017-0.54750-0.69558-0.66752-0.67347
   5  -7  -1   -2.70  125.99   1-0.16453 0.57680 0.83539 0.63948 0.52443 0.50827
   5  -7  -1  -11.26   98.20   1-0.54040 0.20092-0.50181-0.69311-0.67538-0.69225
   5  -7   0 2556.12  321.67   1-0.10025 0.62740 0.86761 0.62858 0.48702 0.45960
   5  -7   0 2687.03  206.94   1-0.57481 0.15317-0.45369-0.68806-0.68098-0.70930
   5  -7   1  149.06  112.82   1-0.03638 0.67759 0.89374 0.61160 0.44710 0.40842
   5  -7   1  168.41  105.52   1-0.60717 0.10747-0.40401-0.68144-0.68419-0.72394
   5  -7   2   20.00   77.45   1 0.00000 0.69981 0.84271 0.51924 0.53836 0.49054
   5  -7   2    9.38   77.60   1 0.00000 0.69916 0.96175 0.63820-0.27391-0.32225
   5  -7   2  -13.88   78.60   1-0.63718 0.06411-0.35326-0.67375-0.68498-0.73616
   5  -7   3  378.62  119.99   1 0.00000 0.68619 0.71834 0.35187 0.69568 0.63664
   5  -7   3  424.25  112.43   1-0.66465 0.02329-0.30192-0.66548-0.68342-0.74605
  -5   7  -4 1732.10  262.65   1 0.00000-0.67571-0.85527-0.45039 0.51817 0.58357
   5  -7   4 2210.48  282.60   1 0.00000 0.67257 0.62985 0.22037 0.77671 0.70645
   5  -7   4 2245.45  185.71   1-0.68947-0.01487-0.25043-0.65705-0.67963-0.75369
  -5   7  -4 1811.31  233.76   1-0.11037-0.78507-0.86294-0.45637-0.49309-0.41878
  -5   7  -5  127.64   84.50   1 0.00000-0.66242-0.81876-0.37086 0.57412 0.65088
   5  -7   5  105.19   98.78   1 0.00000 0.65895 0.56480 0.11231 0.82522 0.74374
   5  -7   5  128.50   89.89   1-0.71161-0.05035-0.19916-0.64884-0.67375-0.75925
  -5   7  -5   11.54  126.72   1-0.15087-0.81222-0.84275-0.39310-0.51671-0.43100
  -5   7  -6  810.97  132.39   1 0.00000-0.64913-0.79209-0.30118 0.61039 0.69850
   5  -7   6 1719.75  258.64   1 0.00000 0.64534 0.51646 0.02096 0.85630 0.76360
   5  -7   6 1230.32  169.79   1-0.78729-0.14269-0.43041-0.92721 0.44148 0.34629
   5  -7   6 1881.82  157.25   1-0.73108-0.08317-0.14841-0.64116-0.66594-0.76288
  -5   7  -716152.24  654.92   1 0.00000-0.63585-0.77302-0.23909 0.63438 0.73384
   5  -7   715700.74  706.86   1 0.00000 0.63172 0.48058-0.05792 0.87695 0.77302
   5  -7   714111.17  703.48   1-0.79625-0.16534-0.37513-0.91497 0.47460 0.36807
   5  -7   716617.84  437.24   1-0.74797-0.11340-0.09844-0.63425-0.65638-0.76476
  -5   7  -816679.14  565.04   1 0.00000-0.62256-0.75987-0.18293 0.65007 0.76088
   5  -7   815464.27  742.38   1 0.00000 0.61811 0.45425-0.12725 0.89087 0.77572
   5  -7   813666.11  534.71   1-0.80166-0.18444-0.32074-0.90363 0.50443 0.38654
   5  -7   815374.22  425.72   1-0.76237-0.14115-0.04942-0.62830-0.64524-0.76505
  -5   7  -9 2087.98  323.50   1 0.00000-0.60928-0.75142-0.13147 0.65981 0.78197
   5  -7   9 1569.08  211.35   1-0.77440-0.16653-0.00149-0.62343-0.63268-0.76393
  -5   7 -10 2563.76  224.04   1 0.00000-0.59599-0.74676-0.08380 0.66508 0.79860
   5  -7  10 3228.38  199.72   1-0.78420-0.18968 0.04525-0.61975-0.61884-0.76153
   5  -6 -13  322.58  146.19   1-0.72256 0.10230 0.17138 0.49029 0.66971 0.86553
   5  -6 -12 5151.50  385.94   1-0.70247 0.10870 0.22104 0.49689 0.67651 0.86097
   5  -6 -11  355.00  106.22   1-0.67842 0.11978 0.27405 0.50724 0.68164 0.85343
   5  -6 -10 1380.80  198.29   1-0.65118 0.13334 0.32775 0.51782 0.68449 0.84502
   5  -6 -10 1145.51  167.56   1-0.11615 0.66563-0.86020-0.66647-0.49653-0.33576
   5  -6  -9  698.03  130.11   1-0.61962 0.15123 0.38356 0.53052 0.68479 0.83407
   5  -6  -9  963.40  164.83   1-0.14786 0.62057-0.84433-0.69368-0.51500-0.36562
   5  -6  -8  719.95  114.97   1-0.58313 0.17404 0.44136 0.54520 0.68201 0.82003
   5  -6  -8  989.05  161.92   1-0.18258 0.57250-0.82525-0.71768-0.53442-0.39644
   5  -6  -7  393.83  115.65   1-0.54110 0.20239 0.50087 0.56160 0.67551 0.80227
   5  -6  -7  315.20  127.00   1-0.22006 0.52166-0.80260-0.73810-0.55443-0.42785
   5  -6  -6 2620.12  272.33   1-0.49298 0.23684 0.56153 0.57914 0.66456 0.78006
   5  -6  -6 3047.18  253.38   1-0.25993 0.46845-0.77607-0.75466-0.57458-0.45939
   5  -6  -513062.74  611.39   1-0.43832 0.27782 0.62244 0.59693 0.64841 0.75264
   5  -6  -513888.94  526.55   1-0.30169 0.41334-0.74546-0.76713-0.59436-0.49056
   5  -6  -4 3766.51  312.87   1-0.37698 0.32549 0.68234 0.61372 0.62632 0.71930
   5  -6  -4 3472.79  236.68   1-0.34473 0.35694-0.71068-0.77543-0.61325-0.52084
   5  -6  -3 3262.56  261.26   1-0.30924 0.37955 0.73960 0.62786 0.59779 0.67950
   5  -6  -3 3292.76  243.74   1-0.38839 0.29993-0.67181-0.77964-0.63072-0.54971
   5  -6  -226124.57  950.76   1-0.23597 0.43914 0.79232 0.63746 0.56261 0.63307
   5  -6  -226783.00  626.21   1-0.43194 0.24303-0.62906-0.77998-0.64629-0.57668
   5  -6  -1  358.42  116.75   1-0.15876 0.50263 0.83854 0.64053 0.52119 0.58058
   5  -6  -1  187.43  107.70   1-0.47466 0.18696-0.58281-0.77680-0.65956-0.60134
   5  -6   0 2062.52  240.12   1 0.00000 0.64641 0.99988 0.76022 0.01541 0.06485
   5  -6   0 2129.50  246.65   1-0.07936 0.56834 0.87679 0.63567 0.47426 0.52239
   5  -6   0 2102.89  205.44   1-0.51589 0.13238-0.53355-0.77063-0.67020-0.62337
  -5   6  -1   67.21   66.55   1 0.00000-0.63488-0.76671-0.48834 0.64199 0.59869
   5  -6   1   45.41   77.52   1 0.00000 0.63335 0.91026 0.62765 0.41401 0.45267
   5  -6   1  121.50   75.00   1-0.55497 0.07978-0.48198-0.76232-0.67800-0.64226
  -5   6  -2   57.68   60.18   1 0.00000-0.62159-0.69162-0.37024 0.72225 0.69031
   5  -6   2  105.38   94.80   1 0.00000 0.61973 0.80383 0.47821 0.59485 0.62229
   5  -6   2   94.34   74.19   1-0.59161 0.02979-0.42848-0.75188-0.68292-0.65861
  -5   6  -3  240.66   93.92   1 0.00000-0.60830-0.64747-0.28307 0.76209 0.74150
   5  -6   3  381.31  127.31   1 0.00000 0.60611 0.71377 0.34514 0.70037 0.71658
   5  -6   3  542.47  113.53   1-0.62538-0.01732-0.37381-0.74027-0.68494-0.67207
  -5   6  -3  496.01  157.11   1-0.09839-0.70662-0.86845-0.50213-0.48590-0.49854
  -5   6  -414709.30  546.91   1 0.00000-0.59502-0.62055-0.21314 0.78416 0.77492
   5  -6   414839.24  690.31   1 0.00000 0.59249 0.64156 0.22992 0.76707 0.77206
   5  -6   415436.63  514.31   1-0.65606-0.06135-0.31854-0.72807-0.68418-0.68274
  -5   6  -413804.03  669.72   1-0.14332-0.73819-0.84670-0.43730-0.51240-0.51365
  -5   6  -511203.33  483.84   1 0.00000-0.58173-0.60462-0.15421 0.79650 0.79862
   5  -6   512918.99  640.44   1 0.00000 0.57888 0.58478 0.13013 0.81119 0.80496
   5  -6   512350.96  480.21   1-0.79005-0.21160-0.41560-0.87161 0.45064 0.44216
   5  -6   511776.27  399.67   1-0.68356-0.10219-0.26321-0.71580-0.68077-0.69077
  -5   6  -511971.84  580.47   1-0.18396-0.76548-0.82446-0.37197-0.53518-0.52503
  -5   6  -6 3415.93  242.49   1 0.00000-0.56845-0.59625-0.10282 0.80279 0.81626
   5  -6   6 3266.64  288.67   1 0.00000 0.56526 0.54066 0.04300 0.84123 0.82378
   5  -6   6 3563.94  260.08   1-0.79876-0.23400-0.35378-0.85284 0.48663 0.46679
   5  -6   6 3022.04  184.63   1-0.70787-0.13984-0.20825-0.70391-0.67494-0.69638
  -5   6  -6 2606.70  272.96   1-0.22031-0.78848-0.80244-0.30688-0.55456-0.53302
  -5   6  -7   45.63   58.89   1 0.00000-0.55516-0.59331-0.05686 0.80497 0.82979
   5  -6   7   57.78   78.52   1 0.00000 0.55164 0.50680-0.03386 0.86206 0.83338
   5  -6   7   74.00   72.77   1-0.80316-0.25209-0.29419-0.83631 0.51804 0.48686
   5  -6   7  -51.45   84.07   1-0.72905-0.17437-0.15402-0.69274-0.66690-0.69978
  -5   6  -7  101.20  111.98   1-0.25248-0.80730-0.78122-0.24258-0.57090-0.53797
  -5   6  -8 5035.50  313.83   1 0.00000-0.54188-0.59442-0.01496 0.80414 0.84032
   5  -6   8 6154.27  404.20   1 0.00000 0.53803 0.48126-0.10241 0.87657 0.83668
   5  -6   8 5855.30  462.04   1-0.80396-0.26657-0.23708-0.82224 0.54537 0.50283
   5  -6   8 6851.33  317.55   1-0.74722-0.20589-0.10081-0.68259-0.65688-0.70119
  -5   6  -911163.51  555.37   1 0.00000-0.52859-0.59864 0.02382 0.80101 0.84853
   5  -6   911273.45  598.77   1 0.00000 0.52441 0.46252-0.16415 0.88660 0.83548
   5  -6   910177.80  523.45   1-0.80177-0.27807-0.18249-0.81070 0.56908 0.51519
   5  -6   910973.06  459.82   1-0.76254-0.23455-0.04879-0.67364-0.64509-0.70084
  -5   6 -10  695.05  138.69   1 0.00000-0.51531-0.60528 0.06020 0.79600 0.85488
   5  -6  10  709.34  165.34   1 0.00000 0.51079 0.44939-0.22030 0.89333 0.83099
   5  -6  10  818.96  171.63   1-0.79709-0.28709-0.13036-0.80163 0.58961 0.52437
   5  -6  10 1276.40  188.80   1-0.77517-0.26053 0.00186-0.66604-0.63173-0.69893
  -5   6 -11   27.85  113.88   1 0.00000-0.50202-0.61384 0.09465 0.78942 0.85965
   5  -6  11    5.34   96.38   1 0.00000 0.49718 0.44092-0.27177 0.89754 0.82398
   5  -6  11   27.03   93.67   1-0.79033-0.29402-0.08056-0.79488 0.60735 0.53076
   5  -6  11   47.52   83.37   1-0.78529-0.28400 0.05109-0.65987-0.61700-0.69563
  -5   6 -12  201.63  106.76   1 0.00000-0.48874-0.62394 0.12757 0.78146 0.86305
   5  -6  12  190.10   72.34   1-0.79307-0.30512 0.09885-0.65517-0.60104-0.69111
   5  -5 -15 9366.55  411.77   1-0.77811-0.00570-0.01512 0.38760 0.62794 0.92180
   5  -5 -14 5017.51  350.52   1-0.76822-0.00950 0.02711 0.38679 0.63960 0.92211
  -5   5  14 3506.60  527.77   1-0.07440-0.83374 0.87888 0.51847 0.47119 0.18988
  -5   5  13 3161.42  309.92   1 0.00000-0.74322 0.98174 0.66415 0.19022-0.08072
   5  -5 -13 3095.08  258.35   1-0.75620-0.01116 0.07133 0.38797 0.65043 0.92160
  -5   5  13 2211.53  383.53   1-0.05428-0.79993 0.88700 0.56971 0.45855 0.18851
  -5   5  12 4957.15  358.04   1 0.00000-0.72962 0.95785 0.68329 0.28725 0.02755
   5  -5 -12 5527.35  340.14   1-0.74167-0.01033 0.11787 0.39146 0.66032 0.92013
  -5   5  12 4625.85  454.12   1-0.02907-0.76104 0.89636 0.62218 0.44235 0.18357
  -5   5  11 2112.05  242.78   1 0.00000-0.71667 0.90713 0.67579 0.42084 0.17225
   5  -5 -11 2183.74  238.02   1-0.72418-0.00653 0.16712 0.39765 0.66904 0.91751
  -5   5  1016087.79  649.36   1 0.00000-0.70308 0.80013 0.61180 0.59981 0.36244
   5  -5 -1016081.17  623.01   1-0.70314 0.00082 0.21948 0.40696 0.67632 0.91344
   5  -5  -9   32.17   70.34   1-0.67712 0.01381 0.27675 0.42161 0.68184 0.90666
   5  -5  -8  156.29   74.49   1-0.64642 0.03083 0.33656 0.43831 0.68472 0.89829
   5  -5  -8  217.03   96.65   1-0.09193 0.58332-0.87134-0.76660-0.48197-0.26842
   5  -5  -711812.88  453.75   1-0.60924 0.05433 0.40066 0.45928 0.68431 0.88662
   5  -5  -712799.04  487.26   1-0.13092 0.53097-0.85299-0.79133-0.50522-0.30307
   5  -5  -616188.94  529.83   1-0.56415 0.08575 0.46908 0.48459 0.67947 0.87052
   5  -5  -616532.25  508.33   1-0.17313 0.47541-0.83062-0.81204-0.52922-0.33846
   5  -5  -523214.85  692.05   1-0.50959 0.12663 0.54140 0.51379 0.66872 0.84851
   5  -5  -523834.93  748.71   1-0.21812 0.41707-0.80382-0.82832-0.55342-0.37406
   5  -5  -4 9594.38  398.70   1-0.44412 0.17842 0.61633 0.54561 0.65029 0.81882
   5  -5  -4 9350.55  431.84   1-0.26530 0.35654-0.77230-0.83988-0.57720-0.40923
   5  -5  -383023.56 1375.47   1-0.36685 0.24202 0.69147 0.57763 0.62232 0.77959
   5  -5  -380200.44 1274.40   1-0.31392 0.29457-0.73592-0.84658-0.59989-0.44331
   5  -5  -2 5937.67  467.96   1 0.00000 0.59352 0.92910 0.77343-0.36981-0.22255
   5  -5  -2 6347.22  413.90   1-0.27805 0.31714 0.76315 0.60619 0.58333 0.72934
  -5   5   110381.59  459.97   1 0.00000-0.57976-0.33443-0.13404 0.94242 0.80368
   5  -5  -1 7532.04  402.45   1 0.00000 0.57995 0.99993 0.80117 0.01159 0.14755
   5  -5  -1 7719.34  477.74   1-0.17998 0.40146 0.82674 0.62664 0.53300 0.66793
   5  -5  -1 6653.11  356.43   1-0.41210 0.16968-0.64905-0.84587-0.63944-0.50566
  -5   5   0  313.50   97.03   1 0.00000-0.56611-0.31687-0.07356 0.94846 0.82103
   5  -5   0  625.54  128.03   1 0.00000 0.56634 0.96027 0.71848 0.27905 0.40376
   5  -5   0  658.15  130.05   1-0.07613 0.49162 0.87816 0.63494 0.47226 0.59593
   5  -5   0  546.55  114.97   1-0.45988 0.10855-0.59933-0.83923-0.65521-0.53282
  -5   5  -1  897.00  123.97   1 0.00000-0.55247-0.31475-0.02853 0.94917 0.83304
   5  -5   1  595.74  128.32   1 0.00000 0.55326 0.88719 0.60241 0.46140 0.57531
   5  -5   1  732.06  128.21   1-0.50569 0.04939-0.54619-0.82918-0.66778-0.55678
  -5   5  -2   61.75   59.36   1 0.00000-0.53882-0.32064 0.00849 0.94720 0.84237
   5  -5   2  217.81  111.70   1 0.00000 0.53965 0.80855 0.48077 0.58841 0.69110
   5  -5   2  357.26  111.12   1-0.54893-0.00741-0.49029-0.81659-0.67696-0.57716
  -5   5  -3 1082.00  121.58   1 0.00000-0.52518-0.33127 0.04078 0.94353 0.85000
   5  -5   3  934.37  143.64   1 0.00000 0.52603 0.73664 0.36585 0.67628 0.76774
   5  -5   3  827.95  145.44   1-0.78597-0.25998-0.43701-0.80919 0.43732 0.52688
   5  -5   3  883.96  128.63   1-0.58894-0.06076-0.43258-0.80195-0.68265-0.59429
  -5   5  -3 1051.93  154.41   1-0.11714-0.64553-0.85973-0.49058-0.49712-0.58533
  -5   5  -4 2850.84  187.90   1 0.00000-0.51154-0.34494 0.07002 0.93862 0.85639
   5  -5   4 2964.81  241.04   1 0.00000 0.51241 0.67502 0.26122 0.73779 0.81803
   5  -5   4 3760.56  311.51   1-0.79779-0.28549-0.36254-0.77778 0.48174 0.55995
   5  -5   4 3158.99  221.78   1-0.62542-0.11059-0.37374-0.78617-0.68495-0.60802
  -5   5  -4 3020.05  250.72   1-0.16300-0.67804-0.83623-0.42400-0.52357-0.60039
  -5   5  -5  551.37  113.91   1 0.00000-0.49790-0.36067 0.09720 0.93269 0.86176
   5  -5   5   67.85  108.99   1 0.00000 0.49880 0.62401 0.16721 0.78140 0.85043
   5  -5   5  102.31   90.47   1-0.80321-0.30460-0.29296-0.75124 0.51866 0.58552
   5  -5   5   99.46   93.65   1-0.65819-0.15671-0.31448-0.76997-0.68401-0.61852
  -5   5  -5   61.74   83.16   1-0.20434-0.70602-0.81237-0.35706-0.54616-0.61158
  -5   5  -6  645.94  129.06   1 0.00000-0.48776-0.37738 0.11856 0.92605 0.86488
   5  -5   6  205.62   99.41   1 0.00000 0.48518 0.58272 0.08290 0.81267 0.87047
   5  -5   6  198.87   77.17   1-0.80380-0.31888-0.22840-0.72974 0.54929 0.60480
   5  -5   6  260.15   88.49   1-0.68720-0.19906-0.25539-0.75395-0.68009-0.62603
  -5   5  -6  178.63  105.94   1-0.24113-0.72946-0.78890-0.29051-0.56523-0.61925
  -5   5  -7   86.99   82.10   1 0.00000-0.47448-0.39575 0.14321 0.91835 0.86853
   5  -5   7  257.76   90.45   1 0.00000 0.47156 0.54991 0.00708 0.83522 0.88180
   5  -5   7  126.42  122.55   1-0.80076-0.32953-0.16860-0.71298 0.57475 0.61891
   5  -5   7  404.53   78.34   1-0.71249-0.23770-0.19697-0.73860-0.67345-0.63083
  -5   5  -7  276.67  148.93   1-0.27352-0.74850-0.76643-0.22496-0.58117-0.62380
  -5   5  -815739.04  508.43   1 0.00000-0.46119-0.41486 0.16711 0.90988 0.87141
   5  -5   814035.45  510.56   1 0.00000 0.45795 0.52436-0.06146 0.85149 0.88684
   5  -5   814232.16  598.54   1-0.79500-0.33746-0.11311-0.70054 0.59596 0.62877
   5  -5   815667.21  496.43   1-0.73422-0.27277-0.13962-0.72431-0.66439-0.63321
  -5   5  -813890.32  778.83   1-0.30173-0.76336-0.74543-0.16088-0.59438-0.62561
  -5   5  -9  515.83  108.35   1 0.00000-0.44791-0.43451 0.19048 0.90066 0.87355
   5  -5   9   20.66   92.12   1 0.00000 0.44433 0.50499-0.12384 0.86312 0.88725
   5  -5   9  -15.37   92.74   1-0.78714-0.34329-0.06141-0.69189 0.61369 0.63515
   5  -5   9    1.18   62.61   1-0.75255-0.30445-0.08361-0.71136-0.65319-0.63345
  -5   5 -10 1143.12  156.39   1 0.00000-0.43462-0.45456 0.21344 0.89071 0.87495
   5  -5  10 1473.65  178.48   1 0.00000 0.43072 0.49086-0.18099 0.87123 0.88415
   5  -5  10 2056.65  220.07   1-0.77765-0.34749-0.01301-0.68655 0.62855 0.63866
   5  -5  10 1990.99  156.19   1-0.76771-0.33296-0.02913-0.69995-0.64012-0.63182
  -5   5 -11 6228.39  307.15   1 0.00000-0.42134-0.47490 0.23611 0.88003 0.87562
   5  -5  11 4344.02  323.67   1 0.00000 0.41710 0.48119-0.23367 0.87661 0.87830
   5  -5  11 4296.47  292.76   1-0.76684-0.35037 0.03252-0.68406 0.64100 0.63976
   5  -5  11 4886.92  251.96   1-0.77992-0.35851 0.02367-0.69020-0.62542-0.62855
  -5   5 -12 1829.00  275.18   1 0.00000-0.40805-0.49546 0.25857 0.86863 0.87557
   5  -5  12 1533.77  244.42   1-0.75494-0.35216 0.07561-0.68402 0.65141 0.63882
   5  -5  12 1816.37  270.85   1-0.78940-0.38134 0.07477-0.68217-0.60930-0.62387
  -5   5 -13 4767.50  323.35   1 0.00000-0.39477-0.51615 0.28089 0.85649 0.87478
   5  -5  13 6082.97  291.48   1-0.79637-0.40165 0.12412-0.67588-0.59193-0.61794
  -5   4  16  351.66  129.54   1 0.00000-0.70402 0.99787 0.55335-0.06517-0.44513
   5  -4 -16  545.35  139.65   1-0.80059-0.09433-0.16641 0.27710 0.57563 0.95619
  -5   4  15 5423.71  354.12   1 0.00000-0.69041 0.99924 0.59776-0.03871-0.40743
   5  -4 -15 5436.59  312.79   1-0.79738-0.10481-0.13298 0.26748 0.58863 0.95784
  -5   4  15 3911.04  318.03   1-0.20033-0.89341 0.81479 0.41336 0.54403 0.17591
  -5   4  14 1560.97  255.37   1 0.00000-0.67661-0.00930-0.36479 0.99995 0.63962
  -5   4  14 1152.40  206.78   1 0.00000-0.67681 0.99999 0.64153-0.00358-0.36105
   5  -4 -14 1411.33  218.15   1-0.79300-0.11412-0.09834 0.25907 0.60122 0.95909
  -5   4  14  908.72  202.15   1-0.18795-0.86734 0.82214 0.46382 0.53735 0.18050
  -5   4  13  626.65  118.17   1 0.00000-0.66297-0.06036-0.37293 0.99817 0.64914
  -5   4  13  271.46  104.03   1 0.00000-0.66320 0.99912 0.68369 0.04172-0.30449
   5  -4 -13  386.82  114.37   1-0.78728-0.12209-0.06221 0.25215 0.61343 0.95995
  -5   4  13  358.70  157.38   1-0.17079-0.83650 0.83193 0.51673 0.52792 0.18233
  -5   4  12 5179.20  372.24   1 0.00000-0.64933-0.11589-0.38554 0.99326 0.65553
  -5   4  12 8865.00  475.02   1 0.00000-0.64960 0.99509 0.72269 0.09889-0.23607
   5  -4 -12 8389.86  493.78   1-0.78003-0.12853-0.02421 0.24709 0.62526 0.96042
  -5   4  12 8193.54  476.35   1-0.14792-0.79994 0.84430 0.57222 0.51503 0.18070
  -5   4  11  198.10   78.85   1 0.00000-0.63568-0.17738-0.40411 0.98414 0.65771
  -5   4  11   -9.23   99.37   1 0.00000-0.63599 0.98551 0.75614 0.16958-0.15414
   5  -4 -11   61.09   63.71   1-0.77095-0.13314 0.01610 0.24436 0.63668 0.96049
  -5   4  11   27.25   95.83   1-0.11812-0.75645 0.85926 0.63029 0.49770 0.17463
  -5   4  10 2855.35  249.88   1 0.00000-0.62238 0.96694 0.78059 0.25500-0.05747
   5  -4 -10 2698.15  234.08   1-0.75962-0.13550 0.05937 0.24459 0.64764 0.96011
  -5   4  10 2611.35  225.27   1-0.07991-0.70456 0.87656 0.69071 0.47460 0.16278
  -5   4   9 1346.50  168.60   1 0.00000-0.60840-0.32653-0.46744 0.94518 0.64135
  -5   4   9 1733.14  196.52   1 0.00000-0.60878 0.93482 0.79150 0.35512 0.05389
   5  -4  -9 1622.50  196.07   1-0.74542-0.13499 0.10644 0.24860 0.65803 0.95915
  -5   4   9 1298.47  200.90   1-0.03151-0.64248 0.89549 0.75276 0.44394 0.14339
  -5   4   8   -7.03   57.41   1 0.00000-0.59307-0.41682-0.52053 0.90898 0.61424
  -5   4   8   33.76   77.66   1 0.00000-0.59573 0.88313 0.78299 0.46911 0.17894
   5  -4  -8  -35.79   80.34   1-0.72744-0.13070 0.15839 0.25750 0.66763 0.95739
  -5   4   7 2570.08  215.71   1 0.00000-0.57979-0.52179-0.58249 0.85307 0.56968
  -5   4   7 2788.47  251.62   1 0.00000-0.58212 0.80967 0.75253 0.58687 0.30793
   5  -4  -7 2771.15  216.02   1-0.70432-0.12127 0.21670 0.27276 0.67599 0.95440
  -5   4   6 1016.41  133.40   1 0.00000-0.56650-0.64033-0.65802 0.76809 0.49605
  -5   4   6 2044.73  193.21   1 0.00000-0.56850 0.71398 0.69985 0.70016 0.43243
   5  -4  -6 1897.85  184.38   1-0.67336-0.10337 0.28448 0.29789 0.68238 0.94898
   5  -4  -6 2113.15  212.61   1-0.09599 0.47273-0.86954-0.85378-0.48444-0.21811
  -5   4   511514.42  422.59   1 0.00000-0.55322-0.76477-0.73945 0.64429 0.38361
  -5   4   514859.87  552.35   1 0.00000-0.55488 0.60273 0.63161 0.79793 0.54143
   5  -4  -513641.22  524.56   1-0.63267-0.07636 0.36121 0.33151 0.68501 0.94035
   5  -4  -514849.96  559.93   1-0.14332 0.41204-0.84670-0.87402-0.51240-0.25747
   5  -4  -446060.70  993.17   1-0.57711-0.03447 0.45032 0.37749 0.68128 0.92536
   5  -4  -446443.28  931.26   1-0.19378 0.34823-0.81871-0.88912-0.54051-0.29697
  -5   4   3  599.12  101.73   1 0.00000-0.52765 0.37826 0.49316 0.92569 0.69164
   5  -4  -3  237.49   92.56   1 0.00000 0.52715 0.96401 0.84916-0.26584-0.03211
   5  -4  -3  337.03   89.37   1-0.50078 0.02817 0.55217 0.43623 0.66656 0.89938
   5  -4  -3  414.30  122.94   1-0.24663 0.28203-0.78521-0.89869-0.56799-0.33585
  -5   4   275341.10 1446.44   1 0.00000-0.51290 0.28688 0.44639 0.95796 0.73325
   5  -4  -278946.59 1479.47   1 0.00000 0.51354 0.99868 0.84080-0.05125 0.17122
   5  -4  -275020.67 1382.39   1-0.39799 0.11728 0.66274 0.50369 0.63432 0.85588
   5  -4  -278677.78 1330.06   1-0.30093 0.21437-0.74604-0.90261-0.59401-0.37327
  -5   4   1 2117.92  177.32   1 0.00000-0.49926 0.20293 0.40535 0.97919 0.76578
   5  -4  -1 1528.59  169.46   1 0.00000 0.49994 0.98900 0.78809 0.14788 0.35911
   5  -4  -1 1591.27  188.50   1-0.26735 0.23425 0.77085 0.56867 0.57819 0.78849
   5  -4  -1 1664.04  166.57   1-0.35563 0.14632-0.70133-0.90098-0.61777-0.40842
  -5   4   0 5860.13  272.65   1 0.00000-0.48562 0.13023 0.37557 0.99148 0.78937
   5  -4   0 6010.15  314.88   1 0.00000 0.48633 0.94848 0.70454 0.31683 0.51681
   5  -4   0 5973.96  428.63   1-0.11677 0.37104 0.85991 0.61460 0.49690 0.69612
   5  -4   0 6285.37  302.10   1-0.40963 0.07897-0.65148-0.89421-0.63856-0.44060
  -5   4  -111135.24  422.89   1 0.00000-0.47198 0.06677 0.35503 0.99776 0.80696
   5  -4   111661.46  487.34   1 0.00000 0.47318 0.89287 0.60593 0.45031 0.63947
   5  -4   112174.89  508.39   1-0.79110-0.31757-0.40953-0.69788 0.45434 0.64195
   5  -4   111628.23  428.48   1-0.46186 0.01339-0.59715-0.88296-0.65581-0.46924
  -5   4  -2 4151.46  230.26   1 0.00000-0.45833 0.01059 0.34176 0.99994 0.82043
   5  -4   2 3739.95  275.07   1 0.00000 0.45957 0.83212 0.50218 0.55459 0.73253
   5  -4   2 3556.68  252.67   1-0.80232-0.34248-0.31058-0.64198 0.50971 0.68597
   5  -4   2 3364.87  227.59   1-0.51140-0.04949-0.53916-0.86805-0.66915-0.49398
  -5   4  -3  541.75   98.83   1 0.00000-0.44469-0.03989 0.33419 0.99920 0.83100
   5  -4   3  411.89  126.41   1 0.00000 0.44595 0.77362 0.40067 0.63364 0.80036
   5  -4   3  414.31   98.60   1-0.80374-0.35759-0.22591-0.60036 0.55041 0.71532
   5  -4   3  210.79  118.56   1-0.55773-0.10944-0.47813-0.85041-0.67846-0.51460
  -5   4  -3  522.14  114.49   1-0.12079-0.56934-0.85797-0.48600-0.49928-0.66305
  -5   4  -4 6091.06  288.92   1 0.00000-0.43105-0.08594 0.33106 0.99629 0.83939
   5  -4   4 6545.98  387.83   1 0.00000 0.43234 0.72083 0.30487 0.69310 0.84860
   5  -4   4 6495.69  350.30   1-0.79948-0.36702-0.15357-0.57107 0.58072 0.73428
   5  -4   4 6724.32  284.00   1-0.59984-0.16490-0.41567-0.83101-0.68366-0.53123
  -5   4  -4 5986.91  419.48   1-0.16823-0.60343-0.83336-0.41830-0.52650-0.67888
  -5   4  -5 5359.45  245.78   1 0.00000-0.41741-0.12847 0.33144 0.99171 0.84611
   5  -4   5 7450.59  338.93   1 0.00000 0.41872 0.67507 0.21610 0.73774 0.88202
   5  -4   5 7587.96  440.62   1-0.79194-0.37316-0.09104-0.55159 0.60377 0.74598
   5  -4   5 6991.44  274.66   1-0.63767-0.21608-0.35238-0.81079-0.68497-0.54398
  -5   4  -5 6642.73  504.94   1-0.21091-0.63276-0.80833-0.35019-0.54964-0.69062
  -5   4  -6 5911.93  278.96   1 0.00000-0.40376-0.16818 0.33464 0.98575 0.85145
   5  -4   6 6836.21  350.76   1 0.00000 0.40510 0.63651 0.13454 0.77126 0.90431
   5  -4   6 5688.16  292.44   1-0.78244-0.37735-0.03611-0.53971 0.62167 0.75253
   5  -4   6 6833.06  299.42   1-0.67110-0.26285-0.28907-0.79053-0.68268-0.55313
  -5   4  -6 6101.40  443.90   1-0.24880-0.65730-0.78374-0.28252-0.56907-0.69866
  -5   4  -7 5829.89  303.95   1 0.00000-0.39012-0.20562 0.34012 0.97863 0.85563
   5  -4   7 4625.06  295.78   1 0.00000 0.39149 0.60476 0.05977 0.79640 0.91823
   5  -4   7 4315.95  274.90   1-0.77170-0.38031 0.01298-0.53366 0.63584 0.75535
   5  -4   7 4889.08  245.57   1-0.70017-0.30527-0.22638-0.77091-0.67712-0.55901
  -5   4  -7 3801.75  293.64   1-0.28202-0.67717-0.76024-0.21594-0.58522-0.70341
  -5   4  -8  831.59  128.90   1 0.00000-0.37648-0.24118 0.34748 0.97048 0.85878
   5  -4   8  527.67  105.56   1 0.00000 0.37787 0.57917-0.00882 0.81520 0.92581
   5  -4   8  542.29  117.94   1-0.76012-0.38242 0.05757-0.53212 0.64721 0.75537
   5  -4   8  437.13   85.50   1-0.72504-0.34348-0.16484-0.75243-0.66868-0.56200
  -5   4  -8  536.67  122.84   1-0.31083-0.69263-0.73835-0.15097-0.59850-0.70530
  -5   4  -9   39.56  114.71   1 0.00000-0.36284-0.27518 0.35640 0.96139 0.86100
   5  -4   9  120.80  116.82   1 0.00000 0.36425 0.55905-0.07194 0.82912 0.92851
   5  -4   9  285.97   85.88   1-0.74790-0.38389 0.09866-0.53409 0.65643 0.75324
   5  -4   9  300.76  106.87   1-0.74594-0.37772-0.10483-0.73549-0.65771-0.56247
  -5   4  -9  413.28  118.54   1-0.33553-0.70398-0.71841-0.08794-0.60934-0.70475
  -5   4 -10  235.23  113.48   1 0.00000-0.34920-0.30785 0.36664 0.95143 0.86234
   5  -4  10   -4.18  107.27   1 0.00000 0.35064 0.54375-0.13025 0.83924 0.92740
   5  -4  10   29.96   94.25   1-0.73515-0.38482 0.13697-0.53883 0.66391 0.74937
   5  -4  10  -55.48   54.16   1-0.76314-0.40827-0.04660-0.72032-0.64455-0.56075
  -5   4 -10   20.63  145.25   1-0.35644-0.71154-0.70063-0.02708-0.61811-0.70212
  -5   4 -11   15.69  102.61   1 0.00000-0.33555-0.33940 0.37800 0.94063 0.86285
   5  -4  11  126.15  104.26   1 0.00000 0.33702 0.53266-0.18435 0.84632 0.92326
   5  -4  11   93.65   90.58   1-0.72192-0.38528 0.17306-0.54578 0.66997 0.74409
   5  -4  11  269.97  102.36   1-0.77692-0.43540 0.00968-0.70710-0.62951-0.55715
  -5   4 -12 2185.96  179.84   1 0.00000-0.32736-0.36897 0.38758 0.92944 0.86174
   5  -4  12 1599.01  193.14   1-0.70823-0.38529 0.20737-0.55453 0.67483 0.73759
   5  -4  12 1927.40  141.61   1-0.78758-0.45941 0.06394-0.69590-0.61287-0.55194
  -5   4 -13   37.60   89.90   1 0.00000-0.31408-0.39884 0.40073 0.91702 0.86067
   5  -4  13   49.25  100.65   1-0.69409-0.38484 0.24020-0.56475 0.67862 0.73003
   5  -4  13   66.00   71.69   1-0.79539-0.48056 0.11616-0.68675-0.59485-0.54536
  -5   4 -14 9515.73  371.20   1 0.00000-0.30080-0.42792 0.41466 0.90381 0.85882
   5  -4  14 8962.10  311.11   1-0.80059-0.49911 0.16636-0.67961-0.57565-0.53759
  -5   3  16 1636.62  260.83   1 0.00000-0.62340-0.13222-0.57151 0.99121 0.53360
  -5   3  16 2137.86  311.27   1 0.00000-0.62401 0.99529 0.55292-0.09692-0.55216
   5  -3 -16 2236.06  321.84   1-0.80311-0.17669-0.29533 0.14590 0.51747 0.97339
  -5   3  16 1575.95  314.55   1-0.31895-0.94577 0.73192 0.28944 0.60212 0.14738
  -5   3  15   44.83   93.52   1 0.00000-0.60976-0.18753-0.58390 0.98225 0.53594
  -5   3  15  296.87  139.88   1 0.00000-0.61040 0.99713 0.59779-0.07566-0.51965
   5  -3 -15  252.74  121.25   1-0.80385-0.19112-0.27221 0.12598 0.52888 0.97344
  -5   3  15  165.28  143.66   1-0.31583-0.92898 0.73441 0.33505 0.60074 0.15725
  -5   3  14 2269.42  243.88   1 0.00000-0.59612-0.24585-0.59930 0.96930 0.53429
  -5   3  14 3124.49  263.54   1 0.00000-0.59679 0.99885 0.64254-0.04784-0.48058
   5  -3 -14 2861.04  262.53   1-0.80406-0.20502-0.24921 0.10593 0.53979 0.97300
  -5   3  14 2998.12  265.61   1-0.30913-0.90860 0.73969 0.38344 0.59774 0.16551
  -5   3  1311652.74  559.60   1 0.00000-0.58248-0.30764-0.61818 0.95150 0.52779
  -5   3  1312482.00  614.18   1 0.00000-0.58319 0.99992 0.68664-0.01256-0.43405
   5  -3 -1310782.70  492.30   1-0.80375-0.21840-0.22634 0.08574 0.55022 0.97208
  -5   3  1311337.36  649.68   1-0.29804-0.88383 0.74826 0.43513 0.59268 0.17172
  -5   3  12 2330.60  236.85   1 0.00000-0.56553-0.37222-0.64548 0.92814 0.51335
  -5   3  12 1779.96  186.82   1 0.00000-0.56958 0.99951 0.72926 0.03111-0.37913
   5  -3 -12 1576.72  216.42   1-0.80295-0.23129-0.20364 0.06539 0.56016 0.97068
  -5   3  12 1526.68  194.92   1-0.28141-0.85353 0.76070 0.49069 0.58492 0.17522
  -5   3  11  131.21   75.65   1 0.00000-0.55224-0.44141-0.67165 0.89730 0.49386
  -5   3  11  148.43   94.22   1 0.00000-0.55598 0.99645 0.76923 0.08409-0.31489
   5  -3 -11  328.83   80.44   1-0.80168-0.24371-0.18113 0.04486 0.56964 0.96881
  -5   3  11  199.09   96.41   1-0.25765-0.81610 0.77765 0.55076 0.57346 0.17501
  -5   3  1051318.66 1046.18   1 0.00000-0.53896-0.51509-0.70231 0.85713 0.46504
  -5   3  1051179.06  885.54   1 0.00000-0.54237 0.98912 0.80492 0.14708-0.24065
   5  -3 -1052174.83  957.00   1-0.79995-0.25567-0.15884 0.02409 0.57864 0.96646
  -5   3  1052064.88 1329.94   1-0.22452-0.76928 0.79976 0.61599 0.55674 0.16955
  -5   3   914050.93  498.84   1 0.00000-0.52567-0.59301-0.73722 0.80519 0.42445
  -5   3   912770.77  518.71   1 0.00000-0.52877 0.97543 0.83426 0.22029-0.15619
   5  -3  -913349.28  481.42   1-0.79781-0.26721-0.13685 0.00303 0.58716 0.96363
  -5   3   912379.06  600.47   1-0.17888-0.70990 0.82737 0.68673 0.53239 0.15629
  -5   3   8   51.54   69.64   1 0.00000-0.51239-0.67412-0.77531 0.73861 0.36923
  -5   3   8  127.14   85.98   1 0.00000-0.51516 0.95296 0.85483 0.30306-0.06217
   5  -3  -8   78.30   55.81   1-0.79528-0.27837-0.11527-0.01842 0.59518 0.96029
  -5   3   8   86.57  113.76   1-0.11566-0.63300 0.86044 0.76291 0.49624 0.13140
  -5   3   7 1020.25  139.35   1 0.00000-0.49910-0.75606-0.81424 0.65449 0.29646
  -5   3   7 1287.93  148.52   1 0.00000-0.50204 0.91888 0.86390 0.39453 0.04033
   5  -3  -7 1345.97  150.97   1-0.79241-0.28920-0.09428-0.04049 0.60264 0.95640
  -5   3   7 1318.54  190.42   1-0.02809-0.53175 0.89671 0.84230 0.44172 0.08814
  -5   3   649542.69  852.56   1 0.00000-0.48581-0.83476-0.84993 0.55059 0.20392
  -5   3   657852.34  998.63   1 0.00000-0.48842 0.87226 0.86029 0.48903 0.14606
   5  -3  -660866.27 1089.14   1-0.78932-0.29979-0.07425-0.06351 0.60947 0.95188
  -5   3   5 6815.90  342.34   1 0.00000-0.47480 0.81239 0.84342 0.58311 0.25136
   5  -3  -5 6768.05  331.28   1-0.78618-0.31035-0.05598-0.08829 0.61544 0.94651
  -5   3   410054.08  407.71   1 0.00000-0.46119 0.74078 0.81483 0.67174 0.35121
   5  -3  -410352.70  475.12   1 0.00000 0.46074 0.96051 0.88653-0.27823 0.04201
   5  -3  -4 9029.78  432.15   1-0.78350-0.32135-0.04154-0.11690 0.62000 0.93971
   5  -3  -410111.34  408.30   1-0.13259 0.32959-0.85216-0.92539-0.50619-0.18709
  -5   3   3218421.1 2574.63   1 0.00000-0.44757 0.66068 0.77773 0.75066 0.44136
   5  -3  -3215265.3 2897.25   1 0.00000 0.44714 0.99222 0.87522-0.12446 0.18454
   5  -3  -3215728.1 2803.83   1-0.78305-0.33459-0.03925-0.15766 0.62070 0.92908
   5  -3  -3221570.3 2575.81   1-0.18905 0.25977-0.82150-0.93781-0.53795-0.23024
  -5   3   234472.82  771.89   1 0.00000-0.43395 0.57619 0.73626 0.81731 0.51922
   5  -3  -233063.23  841.05   1 0.00000 0.43353 0.99955 0.83952 0.02973 0.32748
   5  -3  -228159.64  701.58   1-0.24790 0.18757-0.78434-0.94374-0.56862-0.27231
  -5   3   1 6626.91  294.68   1 0.00000-0.42034 0.49123 0.69430 0.87102 0.58416
   5  -3  -1 7137.43  391.56   1 0.00000 0.41992 0.98458 0.78153 0.17487 0.46138
   5  -3  -1 6250.15  307.76   1-0.30794 0.11418-0.74062-0.94310-0.59720-0.31228
  -5   3   0 6068.70  302.50   1 0.00000-0.40672 0.40873 0.65481 0.91265 0.63701
   5  -3   0 6464.26  342.05   1 0.00000 0.40632 0.95262 0.70653 0.30415 0.57940
   5  -3   0 6228.92  375.29   1-0.73531-0.32791 0.13651-0.11105 0.66383 0.93815
   5  -3   0 5728.79  494.79   1-0.38933 0.01869 0.67093 0.42354 0.63107 0.90568
   5  -3   0 5838.20  306.54   1-0.36783 0.04094-0.69059-0.93615-0.62271-0.34919
  -5   3  -1  494.61   95.13   1 0.00000-0.39149 0.33210 0.62239 0.94324 0.67775
   5  -3   1  540.26  105.67   1 0.00000 0.39311 0.91065 0.62156 0.41317 0.67758
   5  -3   1  536.07  108.45   1-0.73629-0.34259 0.13369-0.15692 0.66332 0.92628
   5  -3   1  419.10  120.04   1-0.42623-0.03081-0.63490-0.92354-0.64437-0.38224
  -5   3  -2  637.32  114.64   1 0.00000-0.37784 0.25901 0.59222 0.96587 0.71169
   5  -3   2  481.67  115.56   1 0.00000 0.37949 0.86367 0.53157 0.50404 0.75723
   5  -3   2  534.51  105.97   1-0.73168-0.35168 0.14674-0.18692 0.66565 0.91726
   5  -3   2  453.04  114.22   1-0.48192-0.09984-0.57449-0.90621-0.66159-0.41086
  -5   3  -3 4386.87  261.68   1 0.00000-0.36420 0.19103 0.56716 0.98158 0.73870
   5  -3   3 4836.24  310.10   1 0.00000 0.36587 0.81648 0.44137 0.57737 0.81934
   5  -3   3 4648.25  274.07   1-0.72526-0.35895 0.16424-0.21247 0.66858 0.90884
   5  -3   3 5208.64  287.44   1-0.53428-0.16588-0.50992-0.88510-0.67417-0.43481
  -5   3  -3 4266.59  313.86   1-0.10725-0.47598-0.86439-0.48959-0.49123-0.73057
  -5   3  -410854.00  366.31   1 0.00000-0.35056 0.12795 0.54698 0.99177 0.76020
   5  -3   412164.87  460.86   1 0.00000 0.35226 0.77194 0.35382 0.63568 0.86644
   5  -3   411409.55  482.90   1-0.71782-0.36520 0.18362-0.23614 0.67156 0.90047
   5  -3   411427.24  373.96   1-0.58172-0.22667-0.44347-0.86172-0.68185-0.45393
  -5   3  -410856.52  548.91   1-0.15700-0.51237-0.83949-0.42160-0.52019-0.74814
  -5   3  -5 2888.80  202.62   1 0.00000-0.33692 0.06932 0.53128 0.99759 0.77731
   5  -3   5 2245.98  237.40   1 0.00000 0.33864 0.73167 0.27055 0.68164 0.90117
   5  -3   5 1778.31  196.60   1-0.70964-0.37070 0.20397-0.25884 0.67439 0.89195
   5  -3   5 1997.76  184.12   1-0.62422-0.28251-0.37579-0.83710-0.68492-0.46844
  -5   3  -5 1397.90  175.49   1-0.20181-0.54382-0.81390-0.35294-0.54481-0.76136
  -5   3  -6  238.82  106.30   1 0.00000-0.32327 0.01468 0.51955 0.99989 0.79091
   5  -3   6   39.41  123.11   1 0.00000 0.32503 0.69640 0.19227 0.71764 0.92595
   5  -3   6   81.93   68.74   1-0.70082-0.37557 0.22488-0.28098 0.67695 0.88317
   5  -3   6  -13.21   59.29   1-0.66159-0.33322-0.30792-0.81229-0.68372-0.47867
  -5   3  -6  132.54   94.86   1-0.24157-0.57024-0.78860-0.28455-0.56545-0.77061
  -5   3  -719304.50  533.48   1 0.00000-0.30963-0.03645 0.51133 0.99933 0.80166
   5  -3   717971.74  599.42   1 0.00000 0.31141 0.66629 0.11914 0.74569 0.94277
   5  -3   719182.17  682.03   1-0.69071-0.37843 0.24772-0.30148 0.67937 0.87515
   5  -3   719408.40  489.40   1-0.69387-0.37885-0.24070-0.78814-0.67867-0.48506
  -5   3  -719099.87  754.42   1-0.27641-0.59173-0.76434-0.21721-0.58255-0.77631
  -5   3  -8 6720.99  327.69   1 0.00000-0.29599-0.08453 0.50616 0.99642 0.81005
   5  -3   8 8655.70  430.27   1 0.00000 0.29779 0.64116 0.05101 0.76740 0.95326
   5  -3   8 8120.01  429.99   1-0.68072-0.38212 0.26923-0.32308 0.68126 0.86579
   5  -3   8 8068.86  315.58   1-0.72124-0.41957-0.17482-0.76533-0.67025-0.48807
  -5   3  -8 7940.66  434.63   1-0.30655-0.60852-0.74170-0.15149-0.59657-0.77894
  -5   3  -9 2327.29  168.75   1 0.00000-0.28235-0.12994 0.50366 0.99152 0.81645
   5  -3   9 2428.83  209.57   1 0.00000 0.28418 0.62069-0.01246 0.78405 0.95868
   5  -3   9 2528.67  219.26   1-0.67020-0.38528 0.29088-0.34455 0.68279 0.85605
   5  -3   9 2883.41  188.64   1-0.74402-0.45569-0.11075-0.74432-0.65891-0.48817
  -5   3  -9 2894.43  252.11   1-0.33231-0.62092-0.72107-0.08778-0.60796-0.77893
  -5   3 -10 6598.75  337.47   1 0.00000-0.26870-0.17303 0.50349 0.98491 0.82114
   5  -3  10 5770.40  332.32   1 0.00000 0.27056 0.60448-0.07168 0.79661 0.96003
   5  -3  10 5807.18  448.74   1-0.65916-0.38791 0.31262-0.36593 0.68393 0.84594
   5  -3  10 6224.78  261.02   1-0.76253-0.48756-0.04882-0.72545-0.64509-0.48580
  -5   3 -10 5234.85  448.87   1-0.35405-0.62931-0.70271-0.02633-0.61712-0.77670
  -5   3 -11 4025.43  260.87   1 0.00000-0.25506-0.21409 0.50536 0.97681 0.82434
   5  -3  11 2260.97  222.47   1 0.00000 0.25694 0.59212-0.12705 0.80584 0.95803
   5  -3  11 2530.93  242.34   1-0.64758-0.39001 0.33443-0.38724 0.68467 0.83542
   5  -3  11 2734.04  200.90   1-0.77717-0.51554 0.01079-0.70889-0.62919-0.48133
  -5   3 -11 2427.56  257.30   1-0.37213-0.63404-0.68674 0.03271-0.62442-0.77260
  -5   3 -12  272.77   81.64   1 0.00000-0.24142-0.25335 0.50901 0.96737 0.82621
   5  -3  12  120.91  109.92   1-0.63548-0.39158 0.35627-0.40851 0.68500 0.82448
   5  -3  12  256.04   71.19   1-0.78828-0.53999 0.06801-0.69474-0.61154-0.47511
  -5   3 -13 1951.86  296.55   1 0.00000-0.22778-0.29104 0.51423 0.95670 0.82684
   5  -3  13 1453.48  256.71   1-0.62283-0.39261 0.37814-0.42975 0.68489 0.81311
   5  -3  13 2557.82  342.91   1-0.79621-0.56127 0.12283-0.68299-0.59241-0.46742
  -5   3 -14  662.72  157.66   1 0.00000-0.21414-0.32734 0.52085 0.94490 0.82634
  -5   3 -15 5214.76  294.90   1 0.00000-0.20049-0.36238 0.52872 0.93202 0.82476
  -5   2  17 7504.34  412.86   1 0.00000-0.55760 0.99360 0.51036-0.11291-0.65468
  -5   2  16  826.20  152.40   1 0.00000-0.54291-0.28661-0.72385 0.95804 0.42575
  -5   2  16 1387.80  250.64   1 0.00000-0.54399 0.99509 0.55488-0.09890-0.62941
   5  -2 -16 1103.34  210.89   1-0.78666-0.24008-0.43361 0.00536 0.43947 0.97073
  -5   2  16 1016.68  249.26   1-0.42754-0.97445 0.63357 0.19319 0.64481 0.11452
  -5   2  15  214.66  108.33   1 0.00000-0.52927-0.34402-0.73835 0.93896 0.41797
  -5   2  15  387.70  107.24   1 0.00000-0.53039 0.99679 0.59960-0.08002-0.59929
   5  -2 -15  393.70  132.80   1-0.78880-0.25591-0.42248-0.02655 0.44642 0.96633
  -5   2  15   83.98  114.91   1-0.43097-0.96420 0.63006 0.23280 0.64597 0.12693
  -5   2  14  838.87  126.55   1 0.00000-0.51141-0.40193-0.75869 0.91566 0.40353
  -5   2  14  900.20  161.52   1 0.00000-0.51678 0.99844 0.64428-0.05574-0.56375
   5  -2 -14  771.12  118.07   1-0.79045-0.27125-0.41332-0.06044 0.45204 0.96060
  -5   2  14  704.04  151.05   1-0.43186-0.95141 0.62915 0.27500 0.64626 0.13849
  -5   2  13   30.41   76.95   1 0.00000-0.49813-0.46288-0.77662 0.88641 0.38563
  -5   2  13   68.41   77.19   1 0.00000-0.50318 0.99967 0.68855-0.02544-0.52221
   5  -2 -13   57.91   92.59   1-0.79159-0.28608-0.40665-0.09682 0.45608 0.95330
  -5   2  13  117.52  126.01   1-0.42959-0.93547 0.63147 0.32045 0.64550 0.14899
  -5   2  1211363.69  453.40   1 0.00000-0.48484-0.52581-0.79654 0.85060 0.36117
  -5   2  1215398.09  533.94   1 0.00000-0.48957 0.99993 0.73183 0.01145-0.47405
   5  -2 -1214576.33  598.47   1-0.79216-0.30033-0.40319-0.13642 0.45816 0.94402
  -5   2  1213885.59  639.81   1-0.42327-0.91548 0.63790 0.36999 0.64335 0.15809
  -5   2  11  295.38   98.26   1 0.00000-0.47156-0.59044-0.81816 0.80707 0.32900
  -5   2  11  159.35  112.41   1 0.00000-0.47597 0.99845 0.77338 0.05554-0.41871
   5  -2 -11  186.56   94.81   1-0.79202-0.31389-0.40402-0.18029 0.45766 0.93218
  -5   2  11   80.02  107.97   1-0.41154-0.89006 0.64961 0.42482 0.63924 0.16524
  -5   2  10  363.34  103.21   1 0.00000-0.45827-0.65620-0.84090 0.75458 0.28786
  -5   2  10   83.31   95.28   1 0.00000-0.46236 0.99423 0.81219 0.10725-0.35576
   5  -2 -10   33.17   73.62   1-0.79090-0.32646-0.41072-0.23005 0.45362 0.91678
  -5   2  10  132.44   99.57   1-0.39221-0.85706 0.66823 0.48655 0.63216 0.16942
  -5   2   9 1911.29  188.40   1 0.00000-0.44499-0.72206-0.86375 0.69182 0.23645
  -5   2   9 2715.66  198.55   1 0.00000-0.44876 0.98599 0.84698 0.16675-0.28501
   5  -2  -9 2861.58  209.96   1-0.78817-0.33741-0.42585-0.28823 0.44432 0.89614
  -5   2   9 2777.33  281.73   1-0.36166-0.81284 0.69606 0.55750 0.62023 0.16875
  -5   2   811495.76  459.09   1 0.00000-0.43170-0.78647-0.88515 0.61761 0.17359
  -5   2   811201.95  402.67   1 0.00000-0.43515 0.97228 0.87630 0.23379-0.20672
  -5   2   811801.15  647.25   1-0.31338-0.75087 0.73635 0.64091 0.59964 0.15942
  -5   2   7  544.39  106.78   1 0.00000-0.41841-0.84723-0.90289 0.53122 0.09855
  -5   2   7  478.06  131.39   1 0.00000-0.42155 0.95154 0.89859 0.30749-0.12177
  -5   2   7  470.85  141.74   1-0.23432-0.65814 0.79340 0.74108 0.56177 0.13281
  -5   2   6  121.48   68.62   1 0.00000-0.40513-0.90153-0.91418 0.43269 0.01138
  -5   2   6   77.64   90.44   1 0.00000-0.40834 0.92210 0.91229 0.38694-0.03127
  -5   2   6   80.23   84.01   1-0.09390-0.50392 0.87047 0.86127 0.48317 0.06530
  -5   2   510180.70  436.24   1 0.00000-0.39473 0.88354 0.91674 0.46833 0.06133
   5  -2  -510784.47  425.99   1 0.00000 0.39433 0.94783 0.91474-0.31874 0.08802
  -5   2   4108441.6 1537.29   1 0.00000-0.38111 0.83543 0.91164 0.54958 0.15380
   5  -2  -4112276.0 1669.31   1 0.00000 0.38073 0.97984 0.90372-0.19974 0.19578
  -5   2   3 1274.34  153.79   1 0.00000-0.36749 0.77846 0.89768 0.62768 0.24312
   5  -2  -3 1298.75  154.16   1 0.00000 0.36712 0.99704 0.87788-0.07682 0.30745
   5  -2  -3 1183.19  145.06   1-0.14367 0.22532-0.84651-0.96566-0.51260-0.12933
  -5   2   2147691.8 1870.51   1 0.00000-0.35388 0.71417 0.87640 0.69996 0.32662
   5  -2  -2147411.4 1998.55   1 0.00000 0.35352 0.99898 0.83680 0.04505 0.41807
   5  -2  -2147751.4 2141.48   1-0.20672 0.14892-0.81091-0.97314-0.54743-0.17555
  -5   2   145999.61  940.56   1 0.00000-0.34026 0.64467 0.84990 0.76446 0.40234
   5  -2  -142113.18  991.80   1 0.00000 0.33991 0.98694 0.78173 0.16105 0.52282
   5  -2  -143512.17  937.56   1-0.27180 0.07049-0.76767-0.97298-0.58034-0.21986
  -5   2   0 7257.52  341.03   1 0.00000-0.32664 0.57220 0.82044 0.82011 0.46922
   5  -2   0 6904.88  346.91   1 0.00000 0.32631 0.96359 0.71535 0.26736 0.61788
   5  -2   0 6836.50  382.59   1-0.33734-0.00839-0.71690-0.96529-0.61011-0.26103
  -5   2  -110321.81  402.52   1 0.00000-0.31303 0.49885 0.79010 0.86668 0.52701
   5  -2   110220.52  512.22   1 0.00000 0.31270 0.93232 0.64105 0.36162 0.70090
   5  -2   110320.42  419.01   1-0.40168-0.08608-0.65921-0.95068-0.63568-0.29798
  -5   2  -215106.37  498.60   1 0.00000-0.29941 0.42626 0.76052 0.90459 0.57615
   5  -2   214920.34  550.73   1 0.00000 0.29941 0.89698 0.56272 0.44206 0.77051
   5  -2   214631.84  666.66   1-0.20270 0.09785 0.81336 0.47762 0.54529 0.87309
   5  -2   214644.02  493.28   1-0.46324-0.16100-0.59562-0.93017-0.65622-0.32992
  -5   2  -3  158.02  111.59   1 0.00000-0.28371 0.35591 0.73407 0.93451 0.61696
   5  -2   3  104.69   83.54   1 0.00000 0.28580 0.85972 0.48245 0.51075 0.82798
   5  -2   3  153.43   77.09   1-0.40643-0.11937 0.65461 0.27577 0.63741 0.95378
   5  -2   3  -56.17   63.47   1-0.52069-0.23179-0.52749-0.90513-0.67128-0.35638
  -5   2  -4  194.52  100.36   1 0.00000-0.27007 0.28798 0.70905 0.95763 0.65138
   5  -2   4  160.01   85.80   1 0.00000 0.27218 0.82312 0.40285 0.56785 0.87385
   5  -2   4  164.04   83.91   1-0.47977-0.20639 0.57696 0.15500 0.66100 0.96611
   5  -2   4  209.44   74.68   1-0.57358-0.29842-0.45548-0.87664-0.68082-0.37740
  -5   2  -4  153.91  126.70   1-0.12628-0.40182-0.85529-0.43458-0.50251-0.80602
  -5   2  -518410.97  576.82   1 0.00000-0.25643 0.22306 0.68705 0.97480 0.67984
   5  -2   517500.96  631.48   1 0.00000 0.25856 0.78872 0.32544 0.61474 0.90952
   5  -2   517484.92  614.53   1-0.51625-0.25654 0.53310 0.06803 0.67028 0.96413
   5  -2   517659.48  459.02   1-0.62012-0.35830-0.38271-0.84693-0.68481-0.39283
  -5   2  -516927.27  589.27   1-0.17410-0.43629-0.83008-0.36629-0.52976-0.82187
  -5   2  -614463.11  445.99   1 0.00000-0.24278 0.16129 0.66819 0.98690 0.70325
   5  -2   615262.12  518.37   1 0.00000 0.24495 0.75746 0.25116 0.65287 0.93643
   5  -2   613805.72  501.94   1-0.53584-0.28981 0.50786-0.00032 0.67448 0.95708
   5  -2   614189.22  406.70   1-0.66067-0.41219-0.30970-0.81698-0.68380-0.40326
  -5   2  -615120.51  575.61   1-0.21670-0.46553-0.80472-0.29785-0.55268-0.83340
  -5   2  -710257.46  438.10   1 0.00000-0.22914 0.10261 0.65243 0.99472 0.72237
   5  -2   7 7757.36  463.01   1 0.00000 0.23133 0.72981 0.18051 0.68364 0.95598
   5  -2   7 7693.99  383.71   1-0.54610-0.31374 0.49414-0.05715 0.67645 0.94778
   5  -2   7 8399.87  343.63   1-0.69527-0.46014-0.23755-0.78789-0.67834-0.40924
  -5   2  -7 7597.74  427.72   1-0.25409-0.48957-0.78012-0.23016-0.57170-0.84103
  -5   2  -8   89.97   74.98   1 0.00000-0.21550 0.04689 0.63963 0.99890 0.73785
   5  -2   8  114.33  156.64   1 0.00000 0.21771 0.70595 0.11364 0.70826 0.96937
   5  -2   8  183.45  118.36   1-0.55053-0.33185 0.48810-0.10631 0.67724 0.93731
   5  -2   8  158.93   89.17   1-0.72420-0.50241-0.16708-0.76049-0.66904-0.41137
  -5   2  -8  261.88  137.87   1-0.28647-0.50860-0.75696-0.16392-0.58731-0.84524
  -5   2  -917587.57  536.25   1 0.00000-0.20186-0.00605 0.62960 0.99998 0.75023
   5  -2   916753.77  617.16   1 0.00000 0.20410 0.68583 0.05051 0.72775 0.97764
   5  -2   916561.73  694.86   1-0.55102-0.34601 0.48744-0.15009 0.67733 0.92614
   5  -2   916201.24  481.33   1-0.74783-0.53939-0.09887-0.73535-0.65647-0.41024
  -5   2  -915884.64  752.80   1-0.31415-0.52293-0.73574-0.09962-0.59999-0.84653
  -5   2 -10 1246.13  144.98   1 0.00000-0.18821-0.05645 0.62211 0.99840 0.75996
   5  -2  10 1443.22  203.37   1 0.00000 0.19048 0.66931-0.00901 0.74297 0.98164
   5  -2  10 1245.25  178.78   1-0.54863-0.35731 0.49070-0.18995 0.67690 0.91446
   5  -2  10 1780.99  131.69   1-0.76664-0.57155-0.03331-0.71284-0.64120-0.40641
  -5   2 -10 1345.08  229.91   1-0.33749-0.53292-0.71678-0.03758-0.61018-0.84532
  -5   2 -11  391.67  130.29   1 0.00000-0.17457-0.10451 0.61696 0.99452 0.76738
   5  -2  11  274.54  127.18   1 0.00000 0.17687 0.65615-0.06518 0.75462 0.98207
   5  -2  11  449.12  102.92   1-0.54406-0.36641 0.49690-0.22686 0.67607 0.90237
   5  -2  11  518.67  102.47   1-0.78110-0.59936 0.02943-0.69317-0.62370-0.40034
  -5   2 -11  470.09  134.35   1-0.35688-0.53896-0.70024 0.02203-0.61829-0.84204
  -5   2 -12 1762.18  154.60   1 0.00000-0.16093-0.15046 0.61393 0.98861 0.77277
   5  -2  12 1273.82  208.65   1-0.53773-0.37375 0.50537-0.26151 0.67486 0.88989
   5  -2  12 1388.52  162.80   1-0.79167-0.62327 0.08928-0.67638-0.60437-0.39246
  -5   2 -13 1378.11  224.12   1 0.00000-0.14729-0.19448 0.61282 0.98090 0.77636
   5  -2  13 1597.86  289.44   1-0.52992-0.37962 0.51563-0.29437 0.67328 0.87705
   5  -2  13 1871.57  249.84   1-0.79878-0.64373 0.14626-0.66246-0.58356-0.38308
  -5   2 -14 5749.45  316.53   1 0.00000-0.13365-0.23676 0.61346 0.97156 0.77833
   5  -2  14 4439.38  390.43   1-0.52084-0.38422 0.52730-0.32581 0.67132 0.86383
  -5   2 -15  167.22  112.79   1 0.00000-0.12000-0.27746 0.61568 0.96073 0.77880
  -5   1  1720011.89  633.74   1 0.00000-0.47759 0.99545 0.51436-0.09523-0.71227
  -5   1  16 2435.73  340.90   1 0.00000-0.46398 0.99665 0.55859-0.08173-0.68752
  -5   1  16 1601.88  299.56   1-0.52752-0.99450 0.51874 0.08046 0.67277 0.06692
  -5   1  15  589.97  134.29   1 0.00000-0.44401-0.44860-0.84585 0.89373 0.29560
  -5   1  15 1189.36  202.74   1 0.00000-0.45038 0.99795 0.60292-0.06397-0.65851
  -5   1  15  719.25  200.70   1-0.53729-0.99060 0.50595 0.11079 0.67477 0.08018
  -5   1  14  236.07  105.75   1 0.00000-0.43072-0.50486-0.85910 0.86319 0.27642
  -5   1  14  370.88  111.24   1 0.00000-0.43677 0.99913 0.64713-0.04156-0.62485
  -5   1  14  277.56  112.12   1-0.54576-0.98540 0.49460 0.14256 0.67638 0.09306
  -5   1  13 4535.52  287.66   1 0.00000-0.41744-0.56190-0.87312 0.82720 0.25178
  -5   1  13 4318.26  328.48   1 0.00000-0.42317 0.99990 0.69092-0.01409-0.58612
  -5   1  13 4316.51  359.36   1-0.55272-0.97868 0.48509 0.17616 0.67762 0.10555
  -5   1  12 3438.49  235.60   1 0.00000-0.40415-0.61937-0.88758 0.78509 0.22102
  -5   1  12 2976.59  249.38   1 0.00000-0.40956 0.99982 0.73387 0.01886-0.54192
  -5   1  12 2714.24  267.32   1-0.55783-0.97011 0.47799 0.21218 0.67848 0.11767
  -5   1  11 4604.44  261.62   1 0.00000-0.39087-0.67677-0.90197 0.73618 0.18347
  -5   1  11 5993.30  329.17   1 0.00000-0.39596 0.99833 0.77541 0.05766-0.49187
  -5   1  11 5632.02  433.80   1-0.56057-0.95918 0.47414 0.25145 0.67892 0.12937
  -5   1  1030495.88  759.67   1 0.00000-0.37758-0.73338-0.91556 0.67981 0.13845
  -5   1  1032444.91  752.00   1 0.00000-0.38235 0.99472 0.81483 0.10257-0.43571
  -5   1  1034653.88 1028.79   1-0.56009-0.94502 0.47482 0.29525 0.67884 0.14055
  -5   1   952144.60 1054.89   1 0.00000-0.36430-0.78818-0.92735 0.61543 0.08542
  -5   1   953486.32 1038.17   1 0.00000-0.36875 0.98811 0.85125 0.15369-0.37334
  -5   1   950627.85 1018.05   1-0.55489-0.92614 0.48209 0.34563 0.67799 0.15096
  -5   1   8 5795.04  327.95   1 0.00000-0.35101-0.83990-0.93605 0.54273 0.02407
  -5   1   8 5804.74  318.56   1 0.00000-0.35514 0.97751 0.88368 0.21086-0.30492
  -5   1   8 5240.90  327.49   1-0.54209-0.89967 0.49955 0.40620 0.67570 0.15993
  -5   1   7 6070.55  290.09   1 0.00000-0.33773-0.88700-0.94014 0.46176-0.04553
  -5   1   7 6787.88  342.03   1 0.00000-0.34153 0.96185 0.91104 0.27357-0.23096
  -5   1   7 6584.12  383.11   1-0.51536-0.85926 0.53422 0.48399 0.67008 0.16556
  -5   1   619474.02  612.99   1 0.00000-0.32793 0.94010 0.93232 0.34088-0.15240
   5  -1  -617333.78  586.53   1 0.00000 0.32793 0.92888 0.93666-0.37035 0.12294
  -5   1   616486.33  581.17   1-0.45659-0.78681 0.60293 0.59582 0.65420 0.16095
  -5   1   5 1481.72  154.22   1 0.00000-0.31465 0.91123 0.94659 0.41188-0.07037
   5  -1  -5 1583.41  192.65   1 0.00000 0.31432 0.96159 0.92634-0.27447 0.20757
  -5   1   441818.88  925.75   1 0.00000-0.30103 0.87515 0.95352 0.48383 0.01280
   5  -1  -445125.73 1046.11   1 0.00000 0.30072 0.98470 0.90642-0.17422 0.29657
  -5   1   3143950.6 1957.99   1 0.00000-0.28742 0.83165 0.95303 0.55528 0.09547
   5  -1  -3144585.1 2124.33   1 0.00000 0.28711 0.99739 0.87608-0.07219 0.38735
   5  -1  -3146403.8 2154.15   1-0.11295 0.17621-0.86172-0.98370-0.49463-0.03579
  -5   1   2240657.6 1867.61   1 0.00000-0.27380 0.78122 0.94560 0.62425 0.17566
   5  -1  -2235131.1 2792.52   1 0.00000 0.27351 0.99958 0.83525 0.02872 0.47701
   5  -1  -2233460.0 2799.67   1-0.18012 0.09568-0.82666-0.99172-0.53308-0.08563
  -5   1   127233.66  651.91   1 0.00000-0.26018 0.72481 0.93220 0.68894 0.25157
   5  -1  -128119.47  780.85   1 0.00000 0.25990 0.99206 0.78470 0.12570 0.56275
   5  -1  -127885.26  723.18   1-0.25016 0.01229-0.78280-0.99094-0.56975-0.13370
  -5   1   017967.12  523.81   1 0.00000-0.24657 0.66372 0.91412 0.74797 0.32183
   5  -1   016927.29  553.05   1 0.00000 0.24630 0.97631 0.72592 0.21636 0.64216
   5  -1   016872.49  523.70   1-0.32125-0.07214-0.73007-0.98129-0.60314-0.17848
  -5   1  -1 4094.39  245.26   1 0.00000-0.23295 0.59939 0.89280 0.80045 0.38553
   5  -1   1 3816.24  257.06   1 0.00000 0.23269 0.95425 0.66083 0.29899 0.71354
   5  -1   1 3813.94  254.55   1-0.39136-0.15559-0.66903-0.96333-0.63184-0.21858
  -5   1  -2 1447.18  158.81   1 0.00000-0.21933 0.53322 0.86964 0.84597 0.44227
   5  -1   2 1411.22  176.74   1 0.00000 0.21909 0.92797 0.59152 0.37265 0.77595
   5  -1   2 1345.34  145.34   1-0.45849-0.23608-0.60086-0.93823-0.65478-0.25292
  -5   1  -3   16.30   90.64   1 0.00000-0.20572 0.46647 0.84590 0.88453 0.49205
   5  -1   3    8.44  122.53   1 0.00000 0.20572 0.89979 0.52036 0.43631 0.82879
  -5   1  -3    8.25   66.37   1-0.79096-0.99759-0.41040-0.02914 0.45381 0.06285
   5  -1   3   50.59   82.98   1-0.04637 0.16054 0.89003 0.50909 0.45352 0.84560
   5  -1   3   71.31   68.42   1-0.52176-0.31313-0.52613-0.90713-0.67152-0.28117
  -5   1  -415892.86  465.98   1 0.00000-0.19210 0.40016 0.82259 0.91644 0.53519
   5  -1   414162.31  509.76   1 0.00000 0.19210 0.87074 0.44830 0.49173 0.87299
  -5   1  -414280.30  549.31   1-0.79878-0.99172-0.35361 0.07069 0.48672 0.10711
   5  -1   413227.53  600.50   1-0.18497 0.00825 0.82387 0.39981 0.53573 0.91655
   5  -1   415266.23  495.71   1-0.57813-0.38284-0.44881-0.87287-0.68141-0.30250
  -5   1  -511441.33  486.42   1 0.00000-0.17593 0.33462 0.80064 0.94235 0.57272
   5  -1   511138.35  461.87   1 0.00000 0.17849 0.84241 0.37696 0.53883 0.90886
  -5   1  -511353.89  483.41   1-0.80138-0.98064-0.32467 0.14268 0.50236 0.13410
   5  -1   511041.28  479.67   1-0.27061-0.09083 0.76852 0.30135 0.57977 0.94917
   5  -1   510302.07  349.49   1-0.62772-0.44578-0.36980-0.83693-0.68498-0.31751
  -5   1  -511646.73  501.07   1-0.12344-0.30579-0.85669-0.39006-0.50084-0.86852
  -5   1  -612396.55  519.26   1 0.00000-0.16229 0.27119 0.78013 0.96252 0.60419
   5  -1   613656.41  481.51   1 0.00000 0.16487 0.81574 0.30728 0.57841 0.93722
  -5   1  -612612.04  459.19   1-0.80231-0.96788-0.31073 0.19967 0.50963 0.15272
   5  -1   612327.89  587.67   1-0.32565-0.15954 0.72652 0.21623 0.60507 0.96321
   5  -1   612295.14  368.01   1-0.67025-0.50166-0.29078-0.80097-0.68279-0.32675
  -5   1  -612409.71  594.61   1-0.16992-0.33892-0.83242-0.32272-0.52744-0.88372
  -5   1  -748937.16 1153.02   1 0.00000-0.14865 0.20977 0.76163 0.97774 0.63072
   5  -1   749450.73  965.86   1 0.00000 0.15125 0.79135 0.23989 0.61135 0.95894
  -5   1  -748489.44  883.10   1-0.80259-0.95446-0.30595 0.24750 0.51209 0.16652
   5  -1   747839.88 1078.44   1-0.36224-0.20980 0.69555 0.14214 0.62046 0.96735
   5  -1   747468.05  756.25   1-0.70584-0.55059-0.21310-0.76636-0.67555-0.33095
  -5   1  -747342.79 1228.28   1-0.21100-0.36665-0.80827-0.25549-0.54969-0.89458
  -5   1  -8  572.90  114.13   1 0.00000-0.13501 0.15056 0.74533 0.98860 0.65287
   5  -1   8  960.19  151.93   1 0.00000 0.13764 0.76961 0.17514 0.63850 0.97487
  -5   1  -8 1135.66  139.56   1-0.80251-0.94070-0.30726 0.28925 0.51142 0.17721
   5  -1   8  929.49  155.15   1-0.38672-0.24796 0.67337 0.07684 0.63009 0.96571
   5  -1   8 1063.32  136.90   1-0.73487-0.59297-0.13776-0.73408-0.66406-0.33090
  -5   1  -8 1095.20  171.75   1-0.24676-0.38906-0.78512-0.18925-0.56805-0.90155
  -5   1  -9 3423.78  212.34   1 0.00000-0.12137 0.09359 0.73128 0.99561 0.67118
   5  -1   9 3305.04  240.20   1 0.00000 0.12402 0.75068 0.11320 0.66065 0.98580
  -5   1  -9 3307.87  294.06   1-0.80219-0.92668-0.31281 0.32674 0.50856 0.18570
   5  -1   9 2974.95  317.58   1-0.40284-0.27776 0.65809 0.01845 0.63610 0.96047
   5  -1   9 3199.31  179.85   1-0.75790-0.62935-0.06542-0.70480-0.64907-0.32734
  -5   1  -9 3008.15  340.17   1-0.27745-0.40640-0.76359-0.12464-0.58304-0.90515
  -5   1 -1016986.63  558.30   1 0.00000-0.10772 0.03885 0.71946 0.99924 0.68612
   5  -1  1013759.12  544.32   1 0.00000 0.11040 0.73460 0.05411 0.67848 0.99241
  -5   1 -1014954.51  555.81   1-0.80161-0.91242-0.32148 0.36112 0.50404 0.19253
   5  -1  1014255.50  613.38   1-0.41291-0.30150 0.64826-0.03449 0.63973 0.95283
   5  -1  1014005.63  440.89   1-0.77555-0.66035 0.00354-0.67890-0.63126-0.32097
  -5   1 -1014289.63  714.07   1-0.30340-0.41900-0.74414-0.06211-0.59514-0.90585
  -5   1 -11 4987.76  290.24   1 0.00000-0.09408-0.01371 0.70980 0.99990 0.69808
  -5   1 -11 4473.75  326.84   1-0.80076-0.89788-0.33250 0.39316 0.49820 0.19804
   5  -1  11 3708.05  317.51   1-0.41843-0.32070 0.64277-0.08309 0.64167 0.94352
   5  -1  11 4428.67  259.13   1-0.78844-0.68659 0.06898-0.65652-0.61122-0.31237
  -5   1 -11 3577.83  351.04   1-0.32503-0.42728-0.72702-0.00191-0.60480-0.90411
  -5   1 -12   52.94   86.64   1 0.00000-0.08044-0.06423 0.70220 0.99793 0.70741
  -5   1 -12   58.58  127.10   1-0.79961-0.88304-0.34534 0.42336 0.49126 0.20245
   5  -1  12   68.16  106.94   1-0.42043-0.33637 0.64077-0.12820 0.64237 0.93295
   5  -1  12  -74.22   51.92   1-0.79715-0.70864 0.13090-0.63766-0.58941-0.30199
  -5   1 -12    1.41  126.47   1-0.34272-0.43162-0.71238 0.05580-0.61240-0.90032
  -5   1 -13  303.51  108.33   1 0.00000-0.06680-0.11281 0.69654 0.99361 0.71440
  -5   1 -13  107.54  151.93   1-0.79812-0.86786-0.35964 0.45211 0.48337 0.20591
   5  -1  13  137.55  122.30   1-0.41958-0.34920 0.64162-0.17048 0.64207 0.92140
  -5   1 -14   68.37  101.72   1 0.00000-0.05315-0.15957 0.69269 0.98718 0.71927
  -5   1 -14  144.75  139.47   1-0.79625-0.85230-0.37512 0.47969 0.47461 0.20850
  -5   0  16 6736.53  428.26   1 0.00000-0.38397 0.99870 0.56279-0.05094-0.73200
  -5   0  16 5688.74  381.11   1-0.61212-0.99918 0.39597-0.04019 0.68447 0.00307
  -5   0  15   55.20  135.31   1 0.00000-0.37037 0.99943 0.60655-0.03369-0.70350
  -5   0  15   71.06  114.15   1-0.62628-0.99967 0.37227-0.02078 0.68496 0.01482
  -5   0  14   72.97  101.73   1 0.00000-0.35676 0.99992 0.65007-0.01235-0.67091
  -5   0  14   23.24  114.60   1-0.63994-0.99965 0.34833-0.00161 0.68493 0.02605
  -5   0  13 3346.08  253.33   1 0.00000-0.33676-0.62364-0.93234 0.78171 0.13165
  -5   0  13 5634.45  364.89   1 0.00000-0.34316 0.99991 0.69308 0.01337-0.63393
  -5   0  13 5208.08  396.28   1-0.65313-0.99917 0.32409 0.01726 0.68437 0.03675
  -5   0  12 4406.77  262.37   1 0.00000-0.32347-0.67538-0.94106 0.73746 0.09876
  -5   0  12 6581.24  327.32   1 0.00000-0.32955 0.99904 0.73524 0.04377-0.59228
  -5   0  12 6769.07  388.59   1-0.66589-0.99825 0.29948 0.03577 0.68329 0.04693
  -5   0  11 5013.91  272.43   1 0.00000-0.31018-0.72609-0.94876 0.68759 0.06024
  -5   0  11 4456.03  260.16   1 0.00000-0.31594 0.99686 0.77610 0.07906-0.54574
  -5   0  11 4057.51  258.43   1-0.67826-0.99694 0.27438 0.05379 0.68166 0.05656
  -5   0  10 1170.45  159.30   1 0.00000-0.29690-0.77511-0.95477 0.63181 0.01581
  -5   0  10  592.87  141.14   1 0.00000-0.30234 0.99284 0.81510 0.11941-0.49415
  -5   0  10  711.70  153.43   1-0.69029-0.99530 0.24864 0.07116 0.67946 0.06561
  -5   0   9  399.41  113.08   1 0.00000-0.28361-0.82166-0.95831 0.56997-0.03467
  -5   0   9   41.25   86.55   1 0.00000-0.28873 0.98632 0.85161 0.16483-0.43747
  -5   0   9  131.85   98.63   1-0.70224-0.99331 0.22158 0.08849 0.67657 0.07406
  -5   0   811105.43  439.94   1 0.00000-0.27033-0.86480-0.95843 0.50210-0.09119
  -5   0   812575.82  446.43   1 0.00000-0.27513 0.97657 0.88488 0.21520-0.37586
  -5   0   811126.07  461.56   1-0.71386-0.99125 0.19359 0.10356 0.67299 0.08182
  -5   0   7 7427.62  308.67   1 0.00000-0.25704-0.90352-0.95414 0.42853-0.15341
  -5   0   7 8594.27  360.60   1 0.00000-0.26152 0.96282 0.91416 0.27013-0.30967
  -5   0   7 8186.09  427.66   1-0.72551-0.98921 0.16358 0.11659 0.66848 0.08866
  -5   0   6  517.64  123.44   1 0.00000-0.24792 0.94432 0.93869 0.32902-0.23954
   5   0  -6  617.22  124.22   1 0.00000 0.24792 0.93762 0.94325-0.34764 0.22092
  -5   0   6  612.06  118.63   1-0.73750-0.98751 0.13019 0.12626 0.66267 0.09420
  -5   0   5 2551.42  215.12   1 0.00000-0.23457 0.92026 0.95778 0.39129-0.16621
   5   0  -5 2535.46  205.46   1 0.00000 0.23431 0.96439 0.92699-0.26444 0.29286
  -5   0   5 2318.27  193.50   1-0.75041-0.98673 0.09062 0.12974 0.65472 0.09761
  -5   0   4127432.0 1579.62   1 0.00000-0.22095 0.89047 0.97100 0.45502-0.09125
   5   0  -4129478.6 1560.34   1 0.00000 0.22071 0.98391 0.90348-0.17863 0.36743
  -5   0   4114143.1 1740.00   1-0.76538-0.98801 0.03814 0.12031 0.64243 0.09666
  -5   0   4111660.8 2017.57   1-0.12931-0.35207 0.85379 0.93502 0.50428-0.04216
  -5   0   3 5063.34  288.56   1 0.00000-0.20734 0.85460 0.97814 0.51927-0.01578
   5   0  -3 5293.45  339.50   1 0.00000 0.20710 0.99576 0.87230-0.09189 0.44292
  -5   0   3 5779.35  394.63   1-0.78436-0.99330-0.04606 0.07915 0.61859 0.08416
  -5   0   3 4661.61  354.80   1-0.38947-0.59875 0.67080 0.79514 0.63113 0.09609
   5   0  -3 5658.63  330.78   1-0.09943 0.10990-0.86798-0.99278-0.48652 0.04787
  -5   0   289234.46 1382.26   1 0.00000-0.19372 0.81274 0.97929 0.58261 0.05877
   5   0  -292177.60 1493.33   1 0.00000 0.19350 0.99998 0.83349-0.00603 0.51753
  -5   0   290298.46 1824.07   1-0.80326-0.99851-0.21085-0.04257 0.55705 0.03397
  -5   0   287382.03 1700.46   1-0.59249-0.78810 0.42713 0.59459 0.68301 0.15922
   5   0  -286827.10 1363.19   1-0.17105 0.02493-0.83179-0.99967-0.52807-0.00506
  -5   0   1109653.7 1672.01   1 0.00000-0.18010 0.76532 0.97488 0.64363 0.13102
   5   0  -1108711.4 1647.36   1 0.00000 0.17989 0.99702 0.78750 0.07714 0.58947
  -5   0   197677.28 1663.01   1-0.68892-0.87085 0.25165 0.46222 0.67974 0.16722
   5   0  -1112412.6 1773.85   1-0.24632-0.06368-0.78542-0.99638-0.56783-0.05622
  -5   0   030069.64  674.96   1 0.00000-0.16649 0.71304 0.96560 0.70112 0.19972
   5   0   028696.77  843.60   1 0.00000 0.16629 0.98774 0.73520 0.15606 0.65713
  -5   0   029374.57  870.68   1-0.72735-0.89522 0.15864 0.41301 0.66767 0.16730
   5   0   028311.00  700.81   1-0.32309-0.15381-0.72859-0.98264-0.60395-0.10373
  -5   0  -1 2781.13  223.30   1 0.00000-0.15287 0.65678 0.95235 0.75407 0.26390
   5   0   1 2521.79  238.85   1 0.00000 0.15268 0.97332 0.67774 0.22944 0.71926
  -5   0  -1 2585.58  194.13   1-0.74646-0.90064 0.10319 0.40062 0.65737 0.16835
   5   0   1 2450.90  197.69   1-0.39889-0.24296-0.66188-0.95901-0.63465-0.14583
  -5   0  -2 4675.28  260.23   1 0.00000-0.13926 0.59756 0.93614 0.80182 0.32287
   5   0   2 4389.14  332.79   1 0.00000 0.13908 0.95505 0.61645 0.29643 0.77501
  -5   0  -2 3759.04  280.15   1-0.75885-0.89934 0.06210 0.40257 0.64829 0.17062
   5   0   2 4614.38  271.96   1-0.47122-0.32864-0.58671-0.92692-0.65857-0.18114
  -5   0  -3   70.72   71.18   1 0.00000-0.12564 0.53636 0.91795 0.84398 0.37625
   5   0   3  -55.66  108.31   1 0.00000 0.12547 0.93425 0.55262 0.35660 0.82393
  -5   0  -3   21.13   68.07   1-0.76807-0.89487 0.02770 0.41123 0.63975 0.17344
   5   0   3  -85.38   81.60   1-0.53895-0.41021-0.50375-0.88765-0.67510-0.20925
  -5   0  -4  274.56  107.05   1 0.00000-0.11202 0.47413 0.89873 0.88045 0.42394
   5   0   4  -43.96  140.15   1 0.00000 0.11202 0.91244 0.48784 0.40920 0.86571
  -5   0  -4  106.28   65.45   1-0.77546-0.88857-0.00311 0.42346 0.63138 0.17642
   5   0   4   61.90   88.31   1-0.59821-0.48282-0.41824-0.84521-0.68352-0.22912
  -5   0  -518431.01  510.19   1 0.00000-0.09841 0.41166 0.87926 0.91133 0.46605
   5   0   517430.14  668.77   1 0.00000 0.09841 0.89012 0.42252 0.45570 0.90099
  -5   0  -516153.15  496.97   1-0.78159-0.88101-0.03185 0.43777 0.62296 0.17936
   5   0   517124.01  620.00   1-0.06358 0.03601 0.88332 0.41405 0.46443 0.90953
   5   0   518400.02  512.32   1-0.64927-0.54722-0.33131-0.80134-0.68459-0.24162
  -5   0  -625617.35  712.48   1 0.00000-0.08180 0.34871 0.85968 0.93722 0.50422
   5   0   627631.83  712.67   1 0.00000 0.08479 0.86838 0.35777 0.49588 0.92995
  -5   0  -630027.76  756.27   1-0.78677-0.87250-0.05928 0.45339 0.61438 0.18212
   5   0   627720.76  855.61   1-0.13103-0.04512 0.85294 0.34055 0.50529 0.93914
   5   0   627880.27  549.19   1-0.69190-0.60320-0.24509-0.75818-0.67911-0.24758
  -5   0  -625667.27  759.71   1-0.09483-0.18400-0.87005-0.35752-0.48374-0.91559
  -5   0  -731031.14  843.15   1 0.00000-0.06816 0.28752 0.84141 0.95777 0.53607
   5   0   729861.66  884.09   1 0.00000 0.07117 0.84784 0.29422 0.53024 0.95308
  -5   0  -731106.22  745.35   1-0.79115-0.86319-0.08583 0.46989 0.60556 0.18465
   5   0   729439.89  927.03   1-0.18171-0.10948 0.82575 0.27025 0.53395 0.95654
   5   0   731205.76  588.63   1-0.72639-0.65104-0.16122-0.71738-0.66809-0.24800
  -5   0  -726224.23 1024.56   1-0.14085-0.21667-0.84797-0.29236-0.51097-0.93143
  -5   0  -8 5546.66  348.07   1 0.00000-0.05452 0.22760 0.82441 0.97375 0.56335
   5   0   8 4446.86  326.79   1 0.00000 0.05756 0.82895 0.23232 0.55931 0.97093
  -5   0  -8 4869.13  301.51   1-0.79483-0.85318-0.11179 0.48698 0.59644 0.18688
   5   0   8 5277.44  410.47   1-0.22005-0.16121 0.80260 0.20398 0.55443 0.96560
   5   0   8 5025.19  226.10   1-0.75339-0.69138-0.08084-0.68006-0.65258-0.24392
  -5   0  -8 4406.05  379.11   1-0.18134-0.24381-0.82596-0.22727-0.53375-0.94281
  -5   0  -918924.71  623.31   1 0.00000-0.04087 0.16920 0.80892 0.98558 0.58648
   5   0   917070.77  651.18   1 0.00000 0.04394 0.81199 0.17236 0.58365 0.98405
  -5   0  -918218.80  639.82   1-0.79786-0.84252-0.13733 0.50449 0.58698 0.18877
   5   0   917551.68  805.16   1-0.24830-0.20314 0.78407 0.14233 0.56883 0.96874
   5   0   918891.22  507.19   1-0.77368-0.72502-0.00461-0.64690-0.63355-0.23633
  -5   0  -915651.54  659.62   1-0.21641-0.26552-0.80490-0.16313-0.55252-0.95020
  -5   0 -10 6953.04  349.34   1 0.00000-0.02723 0.11246 0.79510 0.99365 0.60585
  -5   0 -10 8477.90  423.46   1-0.80027-0.83124-0.16257 0.52231 0.57716 0.19031
   5   0  10 7026.53  447.79   1-0.26903-0.23754 0.76965 0.08480 0.57900 0.96766
   5   0  10 8011.59  346.70   1-0.78813-0.75282 0.06715-0.61819-0.61182-0.22603
  -5   0 -10 6711.55  494.14   1-0.24630-0.28207-0.78543-0.10057-0.56783-0.95410
  -5   0 -11 4685.18  310.13   1 0.00000-0.01359 0.05746 0.78301 0.99834 0.62185
  -5   0 -11 5067.90  348.57   1-0.80209-0.81937-0.18759 0.54034 0.56696 0.19145
   5   0  11 4300.05  345.91   1-0.28383-0.26602 0.75892 0.03094 0.58607 0.96347
   5   0  11 5018.47  285.43   1-0.79755-0.77558 0.13445-0.59396-0.58807-0.21373
  -5   0 -11 4038.66  359.84   1-0.27138-0.29380-0.76797-0.04003-0.58014-0.95502
  -5   0 -12 2120.99  320.31   1 0.00000 0.00004 0.00420 0.77267 0.99999 0.63479
  -5   0 -12 1945.28  298.66   1-0.80332-0.80691-0.21245 0.55852 0.55635 0.19219
   5   0  12 1298.63  234.50   1-0.29387-0.28973 0.75142-0.01966 0.59076 0.95690
  -5   0 -12 1420.30  280.54   1-0.29205-0.30112-0.75278 0.01823-0.58992-0.95341
  -5   0 -13 4176.34  298.83   1 0.00000 0.01368-0.04731 0.76406 0.99888 0.64498
  -5   0 -13 4939.06  365.89   1-0.80396-0.79386-0.23721 0.57682 0.54531 0.19250
   5   0  13 2860.58  431.48   1-0.30002-0.30956 0.74674-0.06746 0.59359 0.94848
  -5   0 -13 2943.32  440.00   1-0.30872-0.30443-0.74001 0.07408-0.59755-0.94964
  -5   0 -14 1608.95  160.98   1 0.00000 0.02733-0.09716 0.75714 0.99526 0.65267
  -5   0 -14 2164.69  244.42   1-0.80401-0.78022-0.26189 0.59518 0.53382 0.19236
  -5  -1  15  804.34  162.18   1 0.00000-0.29036 0.99997 0.60924 0.00717-0.73790
  -5  -1  15  631.62  247.38   1-0.69341-0.98679 0.24172-0.14739 0.67878-0.06718
  -5  -1  14 1973.37  285.90   1 0.00000-0.27675 0.99961 0.65191 0.02784-0.70598
  -5  -1  14 1680.23  300.31   1-0.70868-0.98836 0.20629-0.13977 0.67469-0.05992
  -5  -1  13  391.47  169.96   1 0.00000-0.26314 0.99862 0.69395 0.05237-0.67020
  -5  -1  13  268.94  142.97   1-0.72350-0.98949 0.16892-0.13409 0.66933-0.05393
  -5  -1  1216836.92  725.50   1 0.00000-0.24954 0.99671 0.73507 0.08094-0.63038
  -5  -1  1215154.45  647.27   1-0.73786-0.99017 0.12914-0.13082 0.66247-0.04943
  -5  -1  11 4699.52  278.12   1 0.00000-0.22950-0.75220-0.97235 0.65893-0.04306
  -5  -1  11 6340.41  312.21   1 0.00000-0.23593 0.99351 0.77490 0.11369-0.58639
  -5  -1  11 5640.08  358.54   1-0.75172-0.99033 0.08636-0.13055 0.65380-0.04676
  -5  -1  10 1567.56  165.56   1 0.00000-0.21621-0.79552-0.97266 0.60592-0.08471
  -5  -1  10 1414.02  160.08   1 0.00000-0.22233 0.98858 0.81299 0.15068-0.53815
  -5  -1  10 1526.04  179.38   1-0.76495-0.98988 0.03978-0.13408 0.64284-0.04636
  -5  -1   931341.01  887.70   1 0.00000-0.20293-0.83626-0.97039 0.54831-0.13097
  -5  -1   936941.05 1066.32   1 0.00000-0.20872 0.98141 0.84885 0.19191-0.48567
  -5  -1   933371.20 1029.04   1-0.77735-0.98859-0.01163-0.14245 0.62895-0.04891
  -5  -1   826005.03  704.47   1 0.00000-0.18964-0.87379-0.96490 0.48629-0.18164
  -5  -1   829319.42  734.68   1 0.00000-0.19512 0.97145 0.88192 0.23722-0.42911
  -5  -1   828324.47  793.37   1-0.78849-0.98604-0.06926-0.15702 0.61113-0.05538
  -5  -1   7 1283.23  153.45   1 0.00000-0.18151 0.95813 0.91162 0.28633-0.36875
  -5  -1   7 1180.39  160.22   1-0.79759-0.98145-0.13483-0.17954 0.58793-0.06723
  -5  -1   6  570.35  125.87   1 0.00000-0.16791 0.94087 0.93740 0.33875-0.30509
   5   1  -6  181.45  117.91   1 0.00000 0.16791 0.93716 0.94063-0.34887 0.29496
  -5  -1   6  338.68  107.01   1-0.80324-0.97341-0.21041-0.21207 0.55724-0.08656
  -5  -1   521448.65  626.65   1 0.00000-0.15449 0.91906 0.95873 0.39411-0.23864
   5   1  -521366.69  718.49   1 0.00000 0.15430 0.96108 0.92152-0.27625 0.35633
  -5  -1   520861.54  751.19   1-0.80299-0.95946-0.29806-0.25667 0.51610-0.11635
  -5  -1   432218.82  746.95   1 0.00000-0.14088 0.89253 0.97522 0.45097-0.17056
   5   1  -433037.00  753.97   1 0.00000 0.14070 0.97940 0.89681-0.20191 0.41942
  -5  -1   427104.92  757.65   1-0.79285-0.93563-0.39886-0.31442 0.46075-0.16036
  -5  -1   430197.83  939.68   1-0.06681-0.20962 0.88201 0.96533 0.46645-0.15553
  -5  -1   310443.55  400.37   1 0.00000-0.12726 0.86095 0.98664 0.50868-0.10163
   5   1  -3 9773.96  405.73   1 0.00000 0.12709 0.99190 0.86629-0.12699 0.48310
  -5  -1   310221.27  508.96   1-0.19834-0.32746 0.81599 0.94242 0.54296-0.06776
   5   1  -311284.88  448.95   1-0.10609 0.02340-0.86493-0.99256-0.49053 0.11943
  -5  -1   2168041.0 1561.20   1 0.00000-0.11364 0.82427 0.99297 0.56619-0.03289
   5   1  -2168981.6 1865.62   1 0.00000 0.11349 0.99861 0.82997-0.05270 0.54614
   5   1  -2178205.1 1753.58   1-0.18302-0.06687-0.82500-0.99571-0.53467 0.06390
  -5  -1   1181401.8 1582.17   1 0.00000-0.10003 0.78267 0.99438 0.62243 0.03456
   5   1  -1177513.6 2152.80   1 0.00000 0.09988 0.99980 0.78813 0.01974 0.60734
  -5  -1   1170938.4 2160.01   1-0.42719-0.52920 0.63393 0.84660 0.64469 0.05663
   5   1  -1184916.8 1698.25   1-0.26427-0.16147-0.77302-0.98682-0.57670 0.01048
  -5  -1   0  552.97  108.74   1 0.00000-0.08641 0.73653 0.99125 0.67640 0.09975
   5   1   0   18.57  129.45   1 0.00000 0.08627 0.99601 0.74131 0.08924 0.66558
  -5  -1   0  309.18   92.61   1-0.51161-0.59994 0.53889 0.79468 0.66920 0.09240
   5   1   0  531.86  105.95   1-0.34724-0.25779-0.70855-0.96543-0.61430-0.03851
  -5  -1  -110308.61  396.01   1 0.00000-0.07279 0.68640 0.98413 0.72721 0.16179
   5   1   1 9707.33  491.50   1 0.00000 0.07267 0.98793 0.69021 0.15485 0.71994
  -5  -1  -1 9399.72  465.75   1-0.57657-0.65123 0.45110 0.75001 0.68121 0.11567
   5   1   110199.38  386.02   1-0.42881-0.35272-0.63227-0.93222-0.64524-0.08085
  -5  -1  -2 1501.32  295.63   1 0.00000-0.05918 0.63297 0.97370 0.77417 0.21997
   5   1   2 1799.62  179.97   1 0.00000 0.05906 0.97642 0.63567 0.21584 0.76969
  -5  -1  -2 1610.57  187.88   1-0.62593-0.68690 0.37287 0.71489 0.68496 0.13067
   5   1   2 1623.74  172.44   1-0.50579-0.44304-0.54608-0.88911-0.66780-0.11481
  -5  -1  -3 1014.09  150.35   1 0.00000-0.04556 0.57696 0.96070 0.81677 0.27379
   5   1   3  987.84  177.30   1 0.00000 0.04546 0.96236 0.57858 0.27175 0.81435
  -5  -1  -3 1003.83  144.49   1-0.66362-0.71092 0.30394 0.68908 0.68352 0.14050
   5   1   3 1179.51  132.93   1-0.57670-0.52784-0.45092-0.83773-0.68123-0.13989
  -5  -1  -4 2452.57  198.03   1 0.00000-0.03195 0.51912 0.94588 0.85469 0.32293
   5   1   4 2038.02  219.90   1 0.00000 0.03185 0.94662 0.51981 0.32233 0.85368
  -5  -1  -4 2005.97  168.63   1-0.69327-0.72654 0.24202 0.67087 0.67881 0.14850
   5   1   4 2335.86  161.86   1-0.63678-0.60128-0.35396-0.78384-0.68498-0.15508
  -5  -1  -5 6508.42  293.65   1 0.00000-0.01833 0.46015 0.92992 0.88783 0.36730
   5   1   5 5366.61  348.15   1 0.00000 0.01825 0.93000 0.46016 0.36754 0.88764
  -5  -1  -5 5206.31  297.70   1-0.71618-0.73576 0.18777 0.65967 0.67216 0.15320
   5   1   5 5547.28  274.40   1-0.68660-0.66444-0.25668-0.72962-0.68020-0.16174
  -5  -1  -668599.99 1461.29   1 0.00000-0.00471 0.40068 0.91346 0.91621 0.40690
   5   1   664476.48 1362.97   1 0.00000 0.00471 0.91348 0.40070 0.40687 0.91619
  -5  -1  -666616.31 1100.72   1-0.73456-0.74044 0.13866 0.65361 0.66422 0.15661
   5   1   666938.53 1383.90   1-0.72618-0.71737-0.16179-0.67779-0.66819-0.16116
  -5  -1  -713161.06  849.03   1 0.00000 0.01232 0.33999 0.89591 0.94042 0.44405
   5   1   715394.06  659.87   1 0.00000-0.00889 0.89710 0.34132 0.44181 0.93990
  -5  -1  -718415.84  609.51   1-0.74949-0.74169 0.09359 0.65159 0.65536 0.15910
   5   1   717862.10  809.95   1-0.02845-0.03617 0.89658 0.33898 0.44195 0.94009
   5   1   719036.67  529.28   1-0.75623-0.76076-0.07122-0.63029-0.65041-0.15482
  -5  -1  -8  474.74  107.98   1 0.00000 0.02596 0.28095 0.87979 0.95972 0.47464
  -5  -1  -8  190.67   83.27   1-0.76174-0.74024 0.05174 0.65279 0.64581 0.16090
   5   1   8  361.59  167.73   1-0.07052-0.09192 0.88049 0.27978 0.46877 0.95565
   5   1   8  459.47   87.06   1-0.77784-0.79571 0.01387-0.58825-0.62830-0.14415
  -5  -1  -9  750.07  178.41   1 0.00000 0.03961 0.22271 0.86447 0.97488 0.50110
  -5  -1  -9  865.98  133.99   1-0.77183-0.73665 0.01244 0.65654 0.63569 0.16213
   5   1   9  895.60  152.38   1-0.10425-0.13933 0.86578 0.22195 0.48943 0.96504
   5   1   9  930.53  109.73   1-0.79223-0.82345 0.09299-0.55220-0.60309-0.13037
  -5  -1  -9  744.90  149.30   1-0.12129-0.09057-0.85773-0.21313-0.49957-0.97281
  -5  -1 -1011418.90  523.10   1 0.00000 0.05325 0.16554 0.85021 0.98620 0.52372
  -5  -1 -1011487.67  487.13   1-0.78016-0.73128-0.02481 0.66233 0.62508 0.16287
   5   1  10 8997.28  534.50   1-0.13095-0.17972 0.85298 0.16603 0.50524 0.96960
  -5  -1 -10 9635.19  576.30   1-0.15682-0.11276-0.83958-0.15189-0.52010-0.98194
  -5  -1 -11 5243.72  348.39   1 0.00000 0.06689 0.10960 0.83719 0.99397 0.54280
  -5  -1 -11 4541.99  315.27   1-0.78697-0.72441-0.06042 0.66977 0.61401 0.16315
   5   1  11 3843.94  344.01   1-0.15175-0.21420 0.84228 0.11223 0.51722 0.97031
  -5  -1 -11 3836.39  326.00   1-0.18702-0.12960-0.82269-0.09192-0.53684-0.98729
  -5  -1 -12  288.44  115.47   1 0.00000 0.08053 0.05499 0.82550 0.99848 0.55861
  -5  -1 -12  142.24  113.70   1-0.79247-0.71622-0.09468 0.67856 0.60250 0.16299
   5   1  12   89.62  164.14   1-0.16755-0.24368 0.83374 0.06056 0.52612 0.96796
  -5  -1 -12  126.28  113.42   1-0.21220-0.14142-0.80753-0.03369-0.55032-0.98937
  -5  -2  14 1070.27  163.44   1 0.00000-0.19674 0.99707 0.65152 0.07643-0.73266
  -5  -2  14  683.49  151.94   1-0.75272-0.95257 0.08304-0.26075 0.65307-0.15689
  -5  -2  13 5729.16  356.25   1 0.00000-0.18313 0.99498 0.69246 0.10003-0.69782
  -5  -2  13 4566.08  357.70   1-0.76567-0.95183 0.03704-0.26369 0.64215-0.15645
  -5  -2  12   50.33  120.80   1 0.00000-0.16953 0.99188 0.73239 0.12716-0.65944
  -5  -2  12  115.33   96.63   1-0.77740-0.94987-0.01185-0.26955 0.62888-0.15837
  -5  -2  11 3596.77  284.17   1 0.00000-0.15592 0.98745 0.77099 0.15790-0.61746
  -5  -2  11 3875.89  303.71   1-0.78762-0.94639-0.06414-0.27879 0.61281-0.16310
  -5  -2  10  388.95  141.36   1 0.00000-0.14232 0.98134 0.80791 0.19225-0.57185
  -5  -2  10   93.11   80.39   1-0.79591-0.94099-0.12030-0.29190 0.59334-0.17122
  -5  -2   9  522.71  118.94   1 0.00000-0.12871 0.97315 0.84274 0.23016-0.52269
  -5  -2   9  566.58   96.36   1-0.80166-0.93306-0.18087-0.30941 0.56975-0.18346
  -5  -2   8  505.97  119.32   1 0.00000-0.10896-0.87247-0.96106 0.48865-0.25392
  -5  -2   8  830.18  160.31   1 0.00000-0.11511 0.96244 0.87506 0.27149-0.47012
  -5  -2   8  566.28   96.83   1-0.80405-0.92175-0.24628-0.33177 0.54115-0.20071
  -5  -2   7 9256.31  368.68   1 0.00000-0.09567-0.90303-0.94860 0.42957-0.30164
  -5  -2   711194.25  416.07   1 0.00000-0.10150 0.94876 0.90442 0.31597-0.41439
  -5  -2   710456.09  517.55   1-0.80193-0.90595-0.31680-0.35924 0.50648-0.22402
  -5  -2   6 7178.99  343.51   1 0.00000-0.08790 0.93170 0.93038 0.36321-0.35589
   5   2  -6 6214.76  340.98   1 0.00000 0.08790 0.93036 0.93168-0.36663 0.35247
  -5  -2   6 6773.97  409.76   1-0.79385-0.88418-0.39231-0.39170 0.46463-0.25453
  -5  -2   5 4414.66  275.16   1 0.00000-0.07441 0.91074 0.95258 0.41296-0.29504
   5   2  -5 3952.15  277.50   1 0.00000 0.07429 0.95301 0.91131-0.30290 0.40495
  -5  -2   467596.47 1482.26   1 0.00000-0.06080 0.88579 0.97064 0.46407-0.23271
   5   2  -464058.30 1574.69   1 0.00000 0.06068 0.97127 0.88653-0.23796 0.45865
  -5  -2   462170.67 1604.32   1-0.07433-0.13719 0.87891 0.96432 0.47115-0.22638
  -5  -2   313455.66  507.97   1 0.00000-0.04718 0.85654 0.98440 0.51607-0.16949
   5   2  -312450.28  594.31   1 0.00000 0.04708 0.98499 0.85723-0.17259 0.51277
  -5  -2   312491.98  671.48   1-0.16579-0.21497 0.83470 0.96323 0.52514-0.16113
   5   2  -313372.27  591.09   1-0.13705-0.08738-0.84991-0.98036-0.50878 0.17674
  -5  -2   223473.61  587.79   1 0.00000-0.03356 0.82291 0.99378 0.56816-0.10618
   5   2  -224112.48  735.85   1 0.00000 0.03347 0.99418 0.82339-0.10764 0.56647
  -5  -2   221716.16  676.61   1-0.25474-0.29049 0.77967 0.95133 0.57202-0.10284
   5   2  -226472.92  836.63   1-0.22101-0.18469-0.80199-0.97553-0.55492 0.11921
  -5  -2   162336.36  973.47   1 0.00000-0.01995 0.78497 0.99884 0.61952-0.04359
   5   2  -162551.26 1088.80   1 0.00000 0.01987 0.99903 0.78521-0.04396 0.61890
  -5  -2   161944.05 1288.13   1-0.33742-0.35950 0.71683 0.93160 0.61015-0.05346
   5   2  -167421.57 1107.44   1-0.30979-0.28682-0.73917-0.95579-0.59803 0.06471
  -5  -2   047138.00 1016.13   1 0.00000-0.00633 0.74294 0.99982 0.66935 0.01745
   5   2   047217.82 1090.22   1 0.00000 0.00626 0.99984 0.74299 0.01764 0.66926
  -5  -2   046925.22 1083.21   1-0.41163-0.42004 0.64952 0.90740 0.63927-0.01307
   5   2   051533.14  971.74   1-0.40004-0.39042-0.66079-0.92049-0.63507 0.01627
  -5  -2  -1 7347.47  448.96   1 0.00000 0.00727 0.69717 0.99706 0.71690 0.07622
   5   2   1 5531.42  333.44   1 0.00000-0.00733 0.99707 0.69719 0.07647 0.71684
  -5  -2  -1 7704.94  426.22   1-0.47637-0.47110 0.58086 0.88187 0.66004 0.01894
   5   2   1 7964.50  376.65   1-0.48760-0.49133-0.56787-0.87066-0.66314-0.02318
  -5  -2  -2 1826.43  178.08   1 0.00000 0.02089 0.64811 0.99101 0.76153 0.13208
   5   2   2 1370.44  170.05   1 0.00000-0.02094 0.99125 0.64835 0.13192 0.76105
  -5  -2  -2 1489.31  162.28   1-0.53173-0.51278 0.51327 0.85739 0.67365 0.04381
   5   2   2 1800.58  180.25   1-0.56992-0.58761-0.46080-0.80746-0.68032-0.05204
  -5  -2  -3 1252.28  141.84   1 0.00000 0.03451 0.59631 0.98222 0.80274 0.18451
   5   2   3 1283.43  173.74   1 0.00000-0.03454 0.98300 0.59707 0.18357 0.80144
  -5  -2  -3 1631.55  186.31   1-0.57850-0.54588 0.44825 0.83549 0.68146 0.06288
   5   2   3 1369.03  153.49   1-0.63962-0.67065-0.34891-0.73863-0.68493-0.06810
  -5  -2  -4 1532.18  157.40   1 0.00000 0.04812 0.54233 0.97124 0.84016 0.23315
   5   2   4 1331.55  173.31   1 0.00000-0.04815 0.97293 0.54396 0.23109 0.83772
  -5  -2  -4 1671.23  170.13   1-0.61781-0.57152 0.38657 0.81692 0.68473 0.07741
   5   2   4 1682.42  172.27   1-0.69639-0.74077-0.23502-0.66780-0.67808-0.07268
  -5  -2  -510621.60  461.31   1 0.00000 0.06174 0.48673 0.95866 0.87354 0.27775
   5   2   5 8502.41  490.65   1 0.00000-0.06175 0.96162 0.48963 0.27436 0.86973
  -5  -2  -5 9572.55  496.60   1-0.65081-0.59083 0.32845 0.80192 0.68451 0.08845
   5   2   5 9871.11  417.08   1-0.73968-0.79741-0.12379-0.59964-0.66146-0.06750
  -5  -2  -611955.14  521.64   1 0.00000 0.07536 0.43008 0.94501 0.90279 0.31822
  -5  -2  -611596.82  552.63   1-0.67853-0.60488 0.27381 0.79040 0.68162 0.09682
   5   2   611925.70  476.81   1-0.77031-0.84138-0.01872-0.53764-0.63738-0.05486
  -5  -2  -765067.57 1058.42   1-0.70226-0.61462 0.22153 0.78180 0.67657 0.10496
   5   2   764766.16  895.09   1-0.78994-0.87436 0.07813-0.48384-0.60817-0.03708
  -5  -2  -8 3053.01  343.91   1 0.00000 0.10645 0.31388 0.91476 0.94946 0.38970
  -5  -2  -8 2920.04  220.17   1-0.72190-0.62057 0.17310 0.77643 0.66998 0.10972
  -5  -2  -9 2807.08  452.49   1 0.00000 0.12010 0.25665 0.90044 0.96650 0.41805
  -5  -2  -9 3603.42  289.78   1-0.73852-0.62350 0.12720 0.77357 0.66211 0.11320
  -5  -2 -10 2411.25  367.52   1 0.00000 0.13374 0.19995 0.88666 0.97980 0.44265
  -5  -2 -10 2548.32  351.00   1-0.75259-0.62388 0.08349 0.77292 0.65317 0.11561
  -5  -2 -11 3983.97  351.52   1 0.00000 0.14738 0.14400 0.87363 0.98957 0.46372
  -5  -2 -11 4513.46  361.22   1-0.76445-0.62205 0.04169 0.77416 0.64332 0.11712
  -5  -3  1218337.93  551.61   1 0.00000-0.08952 0.98360 0.72626 0.18032-0.68155
  -5  -3  1213688.42  523.30   1-0.79557-0.88819-0.11757-0.37300 0.59434-0.26827
  -5  -3  11   59.64  166.67   1 0.00000-0.07591 0.97784 0.76353 0.20934-0.64129
  -5  -3  11   50.31  118.77   1-0.80107-0.88001-0.17261-0.38498 0.57313-0.27813
  -5  -3  10   90.19  143.15   1 0.00000-0.06231 0.97040 0.79912 0.24146-0.59792
  -5  -3  10   73.20   80.17   1-0.80384-0.86909-0.23032-0.39964 0.54843-0.29147
  -5  -3   9 4354.25  321.67   1 0.00000-0.04870 0.96098 0.83273 0.27660-0.55153
  -5  -3   9 3331.99  234.52   1-0.80330-0.85486-0.29070-0.41697 0.51979-0.30876
  -5  -3   814288.35  504.72   1 0.00000-0.03510 0.94922 0.86399 0.31461-0.50227
  -5  -3   812580.83  454.63   1-0.79878-0.83665-0.35357-0.43680 0.48674-0.33046
  -5  -3   7 4992.00  363.25   1 0.00000-0.02149 0.93477 0.89257 0.35524-0.45038
  -5  -3   7 4304.25  330.11   1-0.78952-0.81370-0.41854-0.45871 0.44884-0.35701
  -5  -3   6  138.69  115.11   1 0.00000-0.00795 0.91720 0.91818 0.39842-0.39606
  -5  -3   532552.00 1146.87   1 0.00000 0.00565 0.89640 0.94040 0.44323-0.34002
  -5  -3   529798.19 1195.85   1-0.03156-0.02815 0.89548 0.93987 0.44397-0.34036
  -5  -3   4  141.11  108.50   1 0.00000 0.01927 0.87203 0.95904 0.48943-0.28260
  -5  -3   4  218.60  126.54   1-0.10121-0.08412 0.86717 0.95468 0.48760-0.28547
   5   3  -4  191.05  101.15   1-0.11318-0.12999-0.86162-0.95182-0.49477 0.27772
  -5  -3   3  252.16  103.99   1 0.00000 0.03289 0.84393 0.97394 0.53644-0.22437
  -5  -3   3  419.86  135.66   1-0.17159-0.14081 0.83149 0.96211 0.52836-0.23345
   5   3  -3  439.34   98.56   1-0.19936-0.22952-0.81538-0.94866-0.54351 0.21759
  -5  -3   218246.13  632.28   1 0.00000 0.04650 0.81201 0.98503 0.58363-0.16595
  -5  -3   216306.05  598.84   1-0.24095-0.19679 0.78902 0.96277 0.56514-0.18528
   5   3  -217754.75  554.45   1-0.29374-0.33725-0.75152-0.92788-0.59070 0.15900
  -5  -3   1148503.810029.02   1 0.00000 0.06012 0.77629 0.99233 0.63036-0.10800
  -5  -3   1127976.9 8658.95   1-0.30749-0.24965 0.74097 0.95784 0.59700-0.14216
   5   3  -1156323.810548.00   1-0.39328-0.45014-0.66722-0.88666-0.63256 0.10574
  -5  -3   029433.19  697.10   1 0.00000 0.07374 0.73692 0.99596 0.67597-0.05117
  -5  -3   027257.90  778.74   1-0.36992-0.29841 0.68872 0.94871 0.62354-0.10435
   5   3   029213.62  814.38   1-0.49316-0.56338-0.56131-0.82384-0.66461 0.06230
  -5  -3  -1  176.74  159.19   1 0.00000 0.08735 0.69411 0.99616 0.71985 0.00392
  -5  -3  -1 -118.09  130.68   1-0.42734-0.34215 0.63378 0.93689 0.64474-0.07190
   5   3   1  119.81   63.91   1-0.58944-0.67367-0.43181-0.73831-0.68270 0.03250
  -5  -3  -2 5409.32  319.29   1 0.00000 0.10097 0.64821 0.99326 0.76146 0.05675
  -5  -3  -2 4899.01  355.45   1-0.47930-0.38043 0.57751 0.92373 0.66086-0.04451
   5   3   2 5140.85  329.78   1-0.67030-0.76787-0.29068-0.64025-0.68278 0.02098
  -5  -3  -3  -42.26  109.62   1 0.00000 0.11458 0.59958 0.98765 0.80031 0.10682
  -5  -3  -3  174.78  112.50   1-0.52573-0.41319 0.52104 0.91038 0.67239-0.02173
   5   3   3  118.72   64.28   1-0.73294-0.84386-0.14322-0.53585-0.66503 0.02729
  -5  -3  -4   43.55  117.41   1 0.00000 0.12820 0.54867 0.97975 0.83603 0.15377
  -5  -3  -4  202.06  105.64   1-0.56686-0.44064 0.46522 0.89767 0.67988-0.00298
   5   3   4  127.36   63.18   1-0.77498-0.89925 0.00100-0.43468-0.63198 0.04891
  -5  -3  -5 1688.34  170.93   1 0.00000 0.14182 0.49594 0.97002 0.86835 0.19731
  -5  -3  -5 1359.11  168.31   1-0.60303-0.46314 0.41062 0.88619 0.68390 0.01229
   5   3   5 1306.43  136.17   1-0.79747-0.93509 0.13376-0.34499-0.58833 0.08112
  -5  -3  -661072.21 1339.91   1-0.63473-0.48116 0.35759 0.87628 0.68500 0.02465
  -5  -3  -7   16.70   90.46   1 0.00000 0.17330 0.38506 0.94506 0.92288 0.27715
  -5  -3  -7  -23.86   99.18   1-0.66242-0.49518 0.30629 0.86810 0.68364 0.03455
  -5  -3  -8  -26.09  108.10   1 0.00000 0.18695 0.32933 0.93224 0.94421 0.30978
  -5  -3  -8   56.17  140.97   1-0.68656-0.50563 0.25678 0.86170 0.68021 0.04238
  -5  -3  -9  -49.83  115.16   1 0.00000 0.20059 0.27340 0.91923 0.96189 0.33876
  -5  -3  -9  -19.81  123.58   1-0.70787-0.51301 0.20824 0.85688 0.67494 0.05068
  -5  -4   9   47.07  125.15   1 0.00000 0.03130 0.94424 0.81814 0.32924-0.57416
  -5  -4   9    8.67   94.26   1-0.79842-0.77014-0.35692-0.48092 0.48489-0.41902
  -5  -4   8  -38.55   95.45   1 0.00000 0.04491 0.93125 0.84818 0.36436-0.52779
  -5  -4   8   30.62   81.85   1-0.79026-0.74829-0.41442-0.49538 0.45136-0.44119
  -5  -4   7 2071.90  306.92   1 0.00000 0.05850 0.91568 0.87582 0.40189-0.47906
  -5  -4   6 3473.21  476.26   1 0.00000 0.07212 0.89745 0.90059 0.44111-0.42862
  -5  -4   6 2914.24  463.27   1-0.02518 0.04449 0.89773 0.90109 0.43982-0.43132
  -5  -4   511972.74  496.31   1 0.00000 0.08573 0.87623 0.92238 0.48188-0.37662
  -5  -4   5 9627.35  628.34   1-0.08029 0.00306 0.87640 0.92289 0.47483-0.38505
   5   4  -512088.50  600.13   1-0.11602-0.19931-0.86027-0.91022-0.49645 0.36300
  -5  -4   4 7747.55  371.42   1 0.00000 0.09935 0.85183 0.94100 0.52380-0.32348
  -5  -4   4 7231.18  489.24   1-0.13688-0.03983 0.85000 0.93960 0.50868-0.33994
   5   4  -410127.45  554.62   1-0.20616-0.30280-0.81126-0.90429-0.54713 0.30093
  -5  -4   310063.00  421.09   1 0.00000 0.11297 0.82413 0.95630 0.56640-0.26967
  -5  -4   3 8611.72  524.64   1-0.19397-0.08325 0.81860 0.95131 0.54061-0.29675
   5   4  -3 9625.02  466.70   1-0.30885-0.41885-0.73990-0.87602-0.59761 0.23905
  -5  -4   2 4723.66  281.01   1 0.00000 0.12658 0.79304 0.96822 0.60916-0.21568
  -5  -4   2 4559.29  382.10   1-0.25061-0.12653 0.78250 0.95836 0.56997-0.25599
   5   4  -2 5135.16  339.07   1-0.42263-0.54597-0.63856-0.81775-0.64313 0.18214
  -5  -4   114214.12  536.21   1 0.00000 0.14020 0.75858 0.97677 0.65157-0.16204
  -5  -4   111055.12  498.76   1-0.30579-0.16803 0.74229 0.96126 0.59623-0.21848
   5   4  -113697.25  553.76   1-0.54726-0.68468-0.49257-0.71586-0.67666 0.13692
  -5  -4   025723.20  816.21   1 0.00000 0.15381 0.72083 0.98203 0.69310-0.10929
  -5  -4   023736.60  771.88   1-0.35871-0.20728 0.69865 0.96074 0.61903-0.18442
  -5  -4  -110564.23  467.97   1 0.00000 0.16743 0.67997 0.98417 0.73324-0.05794
  -5  -4  -1 9355.23  485.39   1-0.40873-0.24362 0.65236 0.95757 0.63824-0.15395
  -5  -4  -2 4455.39  297.02   1 0.00000 0.18105 0.63621 0.98343 0.77150-0.00845
  -5  -4  -2 4045.18  324.86   1-0.45541-0.27663 0.60421 0.95253 0.65384-0.12709
  -5  -4  -3  113.86  121.57   1-0.49851-0.30605 0.55491 0.94634 0.66599-0.10368
  -5  -4  -4 2848.75  244.09   1 0.00000 0.20828 0.54127 0.97451 0.84084 0.08332
  -5  -4  -4 2158.56  299.15   1-0.53794-0.33181 0.50508 0.93964 0.67490-0.08351
  -5  -4  -5 8768.12  407.93   1 0.00000 0.22190 0.49078 0.96702 0.87128 0.12498
  -5  -4  -5 8058.83  425.90   1-0.57375-0.35394 0.45524 0.93291 0.68084-0.06631
   6  -8  -515050.25  817.93   1-0.44909 0.46054 0.61103 0.53898 0.65187 0.70526
   6  -8  -516193.93  574.97   1-0.46393 0.44462-0.59486-0.66168-0.65643-0.60372
   6  -8  -4 4066.16  427.40   1-0.40150 0.49446 0.65938 0.54422 0.63561 0.67773
   6  -8  -4 3695.31  274.54   1-0.49349 0.40171-0.56092-0.67083-0.66470-0.62338
   6  -8  -317941.91  844.02   1-0.35086 0.53142 0.70545 0.54717 0.61580 0.64667
   6  -8  -317094.37  600.40   1-0.52264 0.35902-0.52501-0.67821-0.67171-0.64118
   6  -8  -2 4852.71  429.64   1-0.29769 0.57091 0.74852 0.54712 0.59253 0.61213
   6  -8  -2 4914.73  370.46   1-0.55164 0.31668-0.48658-0.68286-0.67743-0.65834
   6  -8  -1 1294.44  246.99   1-0.24266 0.61227 0.78788 0.54336 0.56600 0.57434
   6  -8  -1 1541.35  255.50   1-0.57984 0.27513-0.44627-0.68561-0.68162-0.67396
   6  -8   0   12.62  103.52   1-0.18668 0.65452 0.82288 0.53521 0.53666 0.53398
   6  -8   0  -23.44  113.10   1-0.60695 0.23467-0.40436-0.68676-0.68417-0.68795
   6  -8   1   84.84  139.58   1-0.13042 0.69710 0.85324 0.52246 0.50493 0.49099
   6  -8   1   74.99  104.21   1-0.63271 0.19557-0.36114-0.68660-0.68501-0.70023
   6  -8   2 3361.62  325.69   1-0.07492 0.73892 0.87867 0.50476 0.47151 0.44630
   6  -8   2 3489.22  261.34   1-0.65692 0.15801-0.31692-0.68544-0.68411-0.71076
   6  -8   3  118.20  109.94   1-0.02105 0.77911 0.89915 0.48214 0.43711 0.40065
   6  -8   3  167.70   92.00   1-0.67941 0.12218-0.27199-0.68358-0.68148-0.71957
   6  -8   411902.68  405.59   1-0.70006 0.08818-0.22663-0.68128-0.67715-0.72668
   6  -8   5 4221.29  225.55   1-0.71881 0.05608-0.18110-0.67882-0.67119-0.73215
   6  -7  -9  937.40  156.30   1-0.63853 0.24589 0.35086 0.44918 0.68496 0.85893
   6  -7  -9  836.23  174.63   1-0.26059 0.62153-0.77561-0.67294-0.57490-0.40105
   6  -7  -8   44.90  107.37   1-0.60590 0.26484 0.40604 0.46125 0.68410 0.84682
   6  -7  -8   24.65  124.92   1-0.28975 0.57902-0.75451-0.69492-0.58885-0.42639
   6  -7  -7  140.50   95.14   1-0.56871 0.28835 0.46255 0.47464 0.68014 0.83160
   6  -7  -7  105.44  101.15   1-0.32064 0.53478-0.73056-0.71405-0.60287-0.45180
   6  -7  -6   19.83  127.20   1-0.52659 0.31680 0.51994 0.48891 0.67257 0.81276
   6  -7  -6  -58.27  143.34   1-0.35295 0.48911-0.70365-0.73022-0.61667-0.47700
   6  -7  -522559.43  764.83   1-0.47927 0.35044 0.57754 0.50339 0.66086 0.78979
   6  -7  -522466.79  793.80   1-0.38633 0.44238-0.67373-0.74338-0.62993-0.50166
   6  -7  -484595.64 1812.11   1-0.42670 0.38933 0.63442 0.51716 0.64453 0.76220
   6  -7  -482532.18 1216.05   1-0.42037 0.39499-0.64083-0.75356-0.64235-0.52547
   6  -7  -322636.30  782.48   1-0.36911 0.43325 0.68944 0.52906 0.62322 0.72964
   6  -7  -322088.21  580.93   1-0.45465 0.34735-0.60504-0.76085-0.65361-0.54812
   6  -7  -2 2567.36  266.18   1-0.30707 0.48161 0.74129 0.53779 0.59681 0.69196
   6  -7  -2 2521.49  226.10   1-0.48874 0.29992-0.56653-0.76542-0.66345-0.56935
   6  -7  -1 8901.90  532.39   1-0.24155 0.53346 0.78862 0.54201 0.56544 0.64933
   6  -7  -1 8798.85  475.38   1-0.52210 0.25298-0.52569-0.76793-0.67160-0.58844
   6  -7   0  -50.15   93.21   1-0.17398 0.58728 0.83015 0.54039 0.52969 0.60255
   6  -7   0   48.38   87.93   1-0.55457 0.20716-0.48253-0.76783-0.67794-0.60622
   6  -7   1   36.39  103.98   1-0.10560 0.64197 0.86516 0.53228 0.49024 0.55184
   6  -7   1  184.07   99.45   1-0.58568 0.16271-0.43753-0.76590-0.68230-0.62202
  -6   7  -2 3661.92  411.39   1 0.00000-0.73510-0.83514-0.46618 0.55003 0.49223
   6  -7   2 5240.35  412.73   1 0.00000 0.73242 0.95070 0.57665 0.31009 0.36196
   6  -7   2 5809.01  492.82   1-0.03819 0.69570 0.89308 0.51708 0.44826 0.49861
   6  -7   2 5566.30  313.90   1-0.61511 0.11994-0.39106-0.76249-0.68462-0.63577
  -6   7  -3 4627.34  381.28   1 0.00000-0.72180-0.76885-0.35688 0.63942 0.59297
   6  -7   3 5401.24  440.19   1 0.00000 0.71949 0.87851 0.46152 0.47771 0.51896
   6  -7   3 5945.25  359.55   1-0.64263 0.07907-0.34349-0.75798-0.68486-0.64745
  -6   7  -4 8328.71  430.38   1 0.00000-0.70852-0.72760-0.27262 0.68599 0.65090
   6  -7   4 7437.68  531.72   1 0.00000 0.70587 0.81077 0.35078 0.58535 0.61537
   6  -7   4 7011.55  447.09   1-0.79086-0.08531-0.41095-0.87252 0.45348 0.48106
   6  -7   4 9475.51  405.75   1-0.66806 0.04029-0.29517-0.75274-0.68305-0.65708
  -6   7  -5 6002.11  412.21   1 0.00000-0.69523-0.70085-0.20286 0.71330 0.68956
   6  -7   5 8135.60  525.15   1 0.00000 0.69225 0.75281 0.24981 0.65823 0.67703
   6  -7   5 7569.11  414.08   1-0.79887-0.10700-0.35276-0.85738 0.48719 0.50342
   6  -7   5 9377.92  368.56   1-0.69128 0.00372-0.24645-0.74708-0.67925-0.66471
  -6   7  -6 1165.26  234.01   1 0.00000-0.68194-0.68374-0.14273 0.72972 0.71733
   6  -7   6  455.49  152.46   1 0.00000 0.67864 0.70464 0.15863 0.70955 0.71713
   6  -7   6  419.96  117.03   1-0.80308-0.12490-0.29609-0.84376 0.51709 0.52197
   6  -7   6  874.22  143.54   1-0.71223-0.03056-0.19763-0.74132-0.67354-0.67044
  -6   7  -7  723.40  144.83   1 0.00000-0.66866-0.67348-0.08946 0.73919 0.73816
   6  -7   7  558.54  168.08   1-0.80401-0.13952-0.24123-0.83195 0.54347 0.53701
   6  -7   7  774.79  137.49   1-0.73088-0.06256-0.14897-0.73572-0.66604-0.67438
  -6   7  -8 1214.13  224.26   1 0.00000-0.65537-0.66834-0.04130 0.74385 0.75417
   6  -7   8  814.00  155.61   1-0.80214-0.15134-0.18834-0.82211 0.56665 0.54883
   6  -7   8 1105.27  138.74   1-0.74726-0.09228-0.10069-0.73051-0.65685-0.67663
   6  -6 -12  153.84   97.88   1-0.74777 0.09697 0.09907 0.32405 0.65651 0.94105
   6  -6 -12  175.14  131.28   1-0.10014 0.74220-0.86766-0.63857-0.48695-0.20335
   6  -6 -11  -18.72   85.90   1-0.73145 0.09960 0.14738 0.32931 0.66576 0.93895
   6  -6 -11  -25.04  105.92   1-0.12338 0.70561-0.85671-0.67070-0.50081-0.22860
   6  -6 -10 3683.00  283.71   1-0.71192 0.10544 0.19839 0.33726 0.67364 0.93548
   6  -6 -10 3466.69  469.21   1-0.14928 0.66636-0.84359-0.70066-0.51581-0.25500
   6  -6  -9 2638.27  400.62   1-0.68794 0.11655 0.25378 0.35000 0.67994 0.92946
   6  -6  -9 2292.56  351.00   1-0.17776 0.62453-0.82801-0.72816-0.53178-0.28236
   6  -6  -8 3719.23  327.06   1-0.66001 0.13081 0.31098 0.36409 0.68386 0.92213
   6  -6  -8 3145.28  272.98   1-0.20868 0.58025-0.80971-0.75294-0.54847-0.31044
   6  -6  -7 5155.95  402.39   1-0.62664 0.15050 0.37164 0.38163 0.68497 0.91197
   6  -6  -7 5312.26  345.32   1-0.24185 0.53374-0.78842-0.77474-0.56559-0.33896
   6  -6  -622464.92  969.65   1-0.58687 0.17659 0.43571 0.40258 0.68243 0.89818
   6  -6  -623568.16  912.47   1-0.27696 0.48527-0.76394-0.79334-0.58281-0.36758
   6  -6  -552148.78 1744.63   1-0.53968 0.21011 0.50277 0.42652 0.67524 0.87973
   6  -6  -556066.22 1222.87   1-0.31368 0.43520-0.73611-0.80859-0.59978-0.39594
   6  -6  -4 2824.25  288.38   1-0.48420 0.25192 0.57184 0.45248 0.66222 0.85544
   6  -6  -4 2997.53  286.48   1-0.35156 0.38397-0.70485-0.82041-0.61609-0.42365
   6  -6  -351075.35 1187.40   1-0.41994 0.30250 0.64126 0.47878 0.64220 0.82417
   6  -6  -355890.89 1266.77   1-0.39014 0.33204-0.67018-0.82882-0.63138-0.45033
   6  -6  -214604.86  653.23   1-0.34715 0.36162 0.70863 0.50304 0.61426 0.78497
   6  -6  -215793.67  580.42   1-0.42889 0.27994-0.63219-0.83392-0.64527-0.47561
  -6   6   1 3698.16  429.19   1 0.00000-0.69430-0.65157-0.40912 0.75858 0.59208
   6  -6  -1 4057.87  389.35   1 0.00000 0.69325 0.95481 0.70768-0.29721-0.13631
   6  -6  -1 4003.47  304.81   1-0.26702 0.42806 0.77108 0.52236 0.57803 0.73748
   6  -6  -1 3852.84  253.47   1-0.46729 0.22818-0.59111-0.83592-0.65742-0.49916
  -6   6   0  242.39   83.83   1 0.00000-0.68098-0.53958-0.25413 0.84192 0.68678
   6  -6   0  152.06  104.67   1 0.00000 0.67962 0.99927 0.70912 0.03809 0.18774
   6  -6   0  201.72  116.46   1-0.18202 0.49929 0.82557 0.53372 0.53412 0.68253
   6  -6   0  101.39  125.91   1-0.50484 0.17728-0.54724-0.83512-0.66757-0.52070
  -6   6  -1    3.87   54.58   1 0.00000-0.66769-0.49362-0.16517 0.86967 0.72588
   6  -6   1   59.53   78.60   1 0.00000 0.66601 0.96694 0.63376 0.25500 0.39340
   6  -6   1   51.13  120.22   1-0.09474 0.57289 0.87010 0.53512 0.48368 0.62083
   6  -6   1   24.68   74.55   1-0.54112 0.12738-0.50085-0.83213-0.67552-0.53974
  -6   6  -2 5964.76  379.17   1 0.00000-0.65440-0.47132-0.09985 0.88195 0.74952
   6  -6   2 7626.52  489.07   1 0.00000 0.65302 0.91422 0.53808 0.40521 0.53293
   6  -6   2 7058.28  413.71   1-0.78560-0.13250-0.43887-0.81660 0.43614 0.56178
   6  -6   2 8267.36  392.72   1-0.57561 0.07954-0.45251-0.82685-0.68109-0.55675
  -6   6  -3 1836.58  214.74   1 0.00000-0.64112-0.46162-0.04713 0.88707 0.76599
   6  -6   3 1756.66  269.39   1 0.00000 0.63941 0.85679 0.43765 0.51565 0.63214
   6  -6   3 1570.98  169.87   1-0.79696-0.15755-0.36953-0.79032 0.47780 0.59208
   6  -6   3 2233.37  194.78   1-0.60804 0.03377-0.40261-0.82001-0.68424-0.57134
  -6   6  -426330.02  965.90   1 0.00000-0.62783-0.45969-0.00219 0.88807 0.77834
   6  -6   428353.66 1144.06   1 0.00000 0.62579 0.80262 0.34047 0.59647 0.70175
   6  -6   427126.21 1108.03   1-0.80271-0.17700-0.30357-0.76740 0.51330 0.61624
   6  -6   428564.99  935.37   1-0.63812-0.00965-0.35158-0.81205-0.68496-0.58350
  -6   6  -514806.82  682.24   1 0.00000-0.61454-0.46298 0.03752 0.88636 0.78798
   6  -6   511409.99  732.21   1 0.00000 0.61217 0.75446 0.24930 0.65633 0.75038
   6  -6   510528.34  637.83   1-0.80401-0.19198-0.24140-0.74828 0.54340 0.63498
   6  -6   511564.94  573.02   1-0.66570-0.05057-0.29986-0.80339-0.68331-0.59328
  -6   6  -6 2401.86  239.39   1 0.00000-0.60126-0.46996 0.07356 0.88268 0.79565
   6  -6   6 2070.49  230.63   1 0.00000 0.59856 0.71307 0.16490 0.70109 0.78391
   6  -6   6 1763.71  204.25   1-0.80181-0.20347-0.18306-0.73300 0.56884 0.64908
   6  -6   6 2397.99  192.61   1-0.69065-0.08887-0.24784-0.79444-0.67938-0.60079
  -6   6  -7 4913.77  297.57   1 0.00000-0.58797-0.47965 0.10688 0.87745 0.80178
   6  -6   7 5632.64  393.48   1 0.00000 0.58494 0.67831 0.08713 0.73477 0.80637
   6  -6   7 5506.74  398.36   1-0.79686-0.21222-0.12837-0.72136 0.59035 0.65924
   6  -6   7 6340.18  265.42   1-0.71294-0.12451-0.19588-0.78554-0.67330-0.60615
  -6   6  -8  593.73  119.11   1 0.00000-0.57469-0.49138 0.13817 0.87094 0.80662
   6  -6   8  423.74  134.03   1 0.00000 0.57133 0.64970 0.01551 0.76019 0.82057
   6  -6   8  510.99  141.77   1-0.78977-0.21881-0.07702-0.71306 0.60854 0.66608
   6  -6   8  923.48  170.77   1-0.73258-0.15749-0.14425-0.77698-0.66521-0.60950
  -6   6  -911750.93  460.09   1 0.00000-0.56140-0.50468 0.16788 0.86330 0.81033
   6  -6   911799.06  602.92   1 0.00000 0.55771 0.62661-0.05058 0.77932 0.82849
   6  -6   911845.12  579.81   1-0.78094-0.22368-0.02865-0.70774 0.62393 0.67012
   6  -6   913272.41  461.97   1-0.74960-0.18786-0.09322-0.76901-0.65528-0.61100
  -6   6 -10  594.86  119.12   1 0.00000-0.54812-0.51922 0.19636 0.85464 0.81302
   6  -6  10   72.63   97.82   1-0.77071-0.22714 0.01707-0.70506 0.63694 0.67177
   6  -6  10  187.17   97.98   1-0.76411-0.21571-0.04297-0.76182-0.64365-0.61080
   6  -5 -13  283.46  153.75   1-0.78909-0.01049-0.07288 0.19287 0.60992 0.98116
   6  -5 -12  318.55   86.59   1-0.78215-0.01723-0.03465 0.18805 0.62212 0.98200
  -6   5  1120067.80  790.23   1 0.00000-0.74997 0.78359 0.60276 0.62127 0.27240
   6  -5 -1121395.55  787.94   1-0.77341-0.02219 0.00577 0.18543 0.63387 0.98240
  -6   5  1015389.25  659.06   1 0.00000-0.73636 0.69991 0.56210 0.71422 0.37657
   6  -5 -1014330.33  500.33   1-0.76250-0.02496 0.04895 0.18555 0.64512 0.98231
  -6   5   9  112.45   97.95   1 0.00000-0.72164-0.09661-0.18886 0.99532 0.66600
  -6   5   9   20.92   67.49   1 0.00000-0.72274 0.59371 0.49890 0.80467 0.47825
   6  -5  -9   -6.98   79.40   1-0.74886-0.02501 0.09560 0.18916 0.65578 0.98162
   6  -5  -9  -52.22   85.15   1-0.10438 0.61807-0.86572-0.76870-0.48951-0.16452
  -6   5   8  988.39  177.87   1 0.00000-0.70800-0.19388-0.24321 0.98102 0.66300
  -6   5   8 3002.43  287.90   1 0.00000-0.70913 0.47092 0.41913 0.88217 0.56696
   6  -5  -8 2746.98  224.10   1-0.73171-0.02155 0.14667 0.19718 0.66564 0.98013
   6  -5  -8 2696.37  265.12   1-0.13643 0.57267-0.85022-0.79629-0.50842-0.19483
  -6   5   7 4116.97  391.30   1 0.00000-0.69436-0.32369-0.33010 0.94616 0.63944
   6  -5  -7 4077.73  319.01   1-0.70990-0.01344 0.20332 0.21077 0.67430 0.97744
   6  -5  -7 4165.43  325.38   1-0.17121 0.52454-0.83170-0.82084-0.52816-0.22596
  -6   5   6   69.77   52.31   1 0.00000-0.68001-0.47738-0.44750 0.87869 0.58079
   6  -5  -6   48.96   76.68   1-0.68122 0.00233 0.26818 0.23295 0.68118 0.97248
   6  -5  -6   11.85  109.20   1-0.20849 0.47391-0.80983-0.84205-0.54836-0.25756
  -6   5   5 1421.27  231.45   1 0.00000-0.66672-0.64511-0.57222 0.76408 0.47753
  -6   5   5 2099.66  233.18   1 0.00000-0.66706 0.17363 0.25305 0.98480 0.70070
   6  -5  -5 1491.56  198.13   1-0.64457 0.02531 0.33996 0.26161 0.68480 0.96483
   6  -5  -5 1612.13  226.95   1-0.24792 0.42113-0.78433-0.85964-0.56863-0.28922
  -6   5   486913.30 1293.49   1 0.00000-0.65342 0.10683 0.22916 0.99427 0.72147
   6  -5  -4100173.0 1495.63   1-0.59633 0.05987 0.42118 0.29972 0.68336 0.95214
   6  -5  -3180090.6 2087.52   1 0.00000 0.64035 0.91929 0.75614-0.39357-0.13484
   6  -5  -3181930.3 2104.51   1-0.53300 0.10952 0.51161 0.34703 0.67391 0.93143
   6  -5  -3184292.4 1718.09   1-0.33144 0.31091-0.72179-0.88326-0.60758-0.35096
   6  -5  -2 4337.68  379.28   1 0.00000 0.62681 0.98285 0.77661-0.18439 0.06302
   6  -5  -2 4960.03  363.67   1-0.45161 0.17724 0.60833 0.40064 0.65266 0.89892
   6  -5  -2 4813.93  296.52   1-0.37442 0.25457-0.68466-0.88922-0.62532-0.38010
  -6   5   1 8741.54  408.40   1 0.00000-0.61249-0.03537 0.21571 0.99937 0.76047
   6  -5  -113105.59  697.18   1 0.00000 0.61321 0.99995 0.75068 0.00967 0.24584
   6  -5  -112731.04  644.03   1-0.35159 0.26357 0.70482 0.45401 0.61611 0.85111
   6  -5  -112930.79  510.83   1-0.41740 0.19824-0.64380-0.89143-0.64131-0.40748
  -6   5   0 6743.72  390.14   1 0.00000-0.59884-0.07291 0.22108 0.99733 0.76974
   6  -5   0 5039.28  370.76   1 0.00000 0.59960 0.98415 0.69185 0.17733 0.40225
   6  -5   0 4559.18  342.97   1-0.78798-0.18734-0.42685-0.72075 0.44370 0.66739
   6  -5   0 5446.58  455.34   1-0.23660 0.36489 0.79190 0.49798 0.56293 0.78667
   6  -5   0 5956.92  344.91   1-0.45976 0.14253-0.59946-0.89017-0.65517-0.43274
  -6   5  -1    7.51   69.31   1 0.00000-0.58520-0.10788 0.22902 0.99416 0.77787
   6  -5   1  210.53   89.68   1 0.00000 0.58599 0.94888 0.61356 0.31561 0.52928
   6  -5   1   97.65   73.57   1-0.80057-0.21363-0.33477-0.67173 0.49698 0.70932
   6  -5   1  154.77  111.58   1-0.11454 0.47314 0.86097 0.52390 0.49558 0.70827
   6  -5   1  172.95   80.74   1-0.50089 0.08805-0.55204-0.88584-0.66659-0.45555
  -6   5  -2 1019.15  151.20   1 0.00000-0.57156-0.14096 0.23886 0.99001 0.78502
   6  -5   2 1653.20  220.60   1 0.00000 0.57295 0.90534 0.52704 0.42468 0.62765
   6  -5   2 1546.55  223.88   1-0.80406-0.23080-0.25282-0.63282 0.53810 0.73909
   6  -5   2 1618.31  184.76   1-0.54045 0.03481-0.50174-0.87899-0.67539-0.47555
  -6   5  -3 4085.49  270.55   1 0.00000-0.55791-0.17261 0.25013 0.98499 0.79130
   6  -5   3 5437.85  386.07   1 0.00000 0.55933 0.85877 0.43746 0.51236 0.70410
   6  -5   3 5407.52  286.47   1-0.80166-0.24209-0.18085-0.60391 0.56975 0.75939
   6  -5   3 5719.91  363.93   1-0.57759-0.01566-0.44960-0.86991-0.68134-0.49295
  -6   5  -453412.70  886.69   1 0.00000-0.54427-0.20312 0.26254 0.97915 0.79676
   6  -5   450612.58  977.02   1 0.00000 0.54571 0.81386 0.34955 0.58105 0.76158
   6  -5   451544.22  980.71   1-0.79557-0.24969-0.11760-0.58370 0.59433 0.77261
   6  -5   449333.66  770.19   1-0.61215-0.06357-0.39591-0.85929-0.68447-0.50751
  -6   5  -5 1379.34  129.39   1 0.00000-0.53063-0.23272 0.27585 0.97254 0.80145
   6  -5   5 2706.55  242.50   1 0.00000 0.53210 0.77276 0.26544 0.63469 0.80399
   6  -5   5 2900.25  255.66   1-0.78716-0.25497-0.06149-0.57065 0.61367 0.78060
   6  -5   5 2779.87  202.96   1-0.64388-0.10864-0.34121-0.84765-0.68482-0.51930
  -6   5  -5 2462.57  281.10   1-0.12280-0.65834-0.85700-0.35088-0.50046-0.66592
  -6   5  -6 3106.52  210.90   1 0.00000-0.51699-0.26157 0.28991 0.96518 0.80539
   6  -5   6 2946.71  265.13   1 0.00000 0.51848 0.73643 0.18610 0.67650 0.83458
   6  -5   6 3179.90  301.82   1-0.77723-0.25874-0.01109-0.56330 0.62910 0.78469
   6  -5   6 3133.84  218.25   1-0.67261-0.15072-0.28600-0.83550-0.68248-0.52840
  -6   5  -7 3354.35  251.70   1 0.00000-0.50335-0.28979 0.30461 0.95708 0.80860
   6  -5   7 2362.36  271.18   1 0.00000 0.50486 0.70514 0.11180 0.70906 0.85592
   6  -5   7 2731.82  276.97   1-0.76626-0.26145 0.03478-0.56047 0.64158 0.78581
   6  -5   7 2606.60  203.58   1-0.69828-0.18973-0.23072-0.82329-0.67761-0.53496
  -6   5  -8 5897.55  318.47   1 0.00000-0.48970-0.31745 0.31986 0.94827 0.81109
   6  -5   8 4389.90  406.50   1 0.00000 0.49125 0.67877 0.04242 0.73434 0.86998
   6  -5   8 4626.58  347.50   1-0.75451-0.26339 0.07707-0.56123 0.65174 0.78462
   6  -5   8 5309.14  338.19   1-0.72089-0.22569-0.17575-0.81138-0.67039-0.53917
  -6   5  -9   -8.22   98.02   1 0.00000-0.47606-0.34464 0.33560 0.93873 0.81285
   6  -5   9   19.59   94.19   1-0.74212-0.26470 0.11650-0.56485 0.66005 0.78158
   6  -5   9   17.52   97.53   1-0.74049-0.25863-0.12141-0.80010-0.66100-0.54123
  -6   5 -10 8249.27  453.42   1 0.00000-0.46743-0.37020 0.34789 0.92895 0.81269
   6  -5  10 5321.53  394.51   1-0.72919-0.26545 0.15364-0.57076 0.66683 0.77702
   6  -5  10 7200.43  296.41   1-0.75718-0.28867-0.06794-0.78970-0.64965-0.54132
  -6   5 -11 9664.38  379.21   1 0.00000-0.45415-0.39676 0.36435 0.91791 0.81301
   6  -5  11 9409.59  490.12   1-0.71573-0.26568 0.18891-0.57854 0.67233 0.77116
   6  -5  1111682.68  361.96   1-0.77108-0.31592-0.01554-0.78037-0.63653-0.53963
  -6   5 -12 4679.76  298.23   1 0.00000-0.44086-0.42293 0.38119 0.90615 0.81260
  -6   4  14   62.20  117.53   1 0.00000-0.71007 0.97362 0.66567 0.22816-0.22952
   6  -4 -14   37.44   82.95   1-0.80405-0.09159-0.25608 0.05046 0.53657 0.99451
  -6   4  14   29.79  118.06   1-0.12086-0.83385 0.85794 0.55036 0.49932 0.04219
  -6   4  13  890.85  178.31   1 0.00000-0.69570-0.22929-0.49117 0.97335 0.52416
  -6   4  13 1291.28  238.66   1 0.00000-0.69646 0.96160 0.69667 0.27445-0.17197
   6  -4 -13 1133.22  228.17   1-0.80389-0.10512-0.23263 0.03085 0.54739 0.99397
  -6   4  13  933.68  210.52   1-0.09589-0.79520 0.86958 0.60512 0.48438 0.03850
  -6   4  12 2552.70  231.00   1 0.00000-0.68206-0.29883-0.51779 0.95430 0.51641
  -6   4  12 3216.17  276.00   1 0.00000-0.68285 0.94458 0.72268 0.32828-0.10690
   6  -4 -12 2757.17  259.78   1-0.80320-0.11812-0.20936 0.01107 0.55769 0.99293
  -6   4  12 2329.59  282.58   1-0.06316-0.74879 0.88349 0.66214 0.46417 0.02955
  -6   4  11 1319.59  174.71   1 0.00000-0.66574-0.37227-0.55493 0.92812 0.49882
  -6   4  11  899.75  155.11   1 0.00000-0.66988 0.92038 0.74172 0.39100-0.03310
   6  -4 -11  977.98  159.67   1-0.80201-0.13063-0.18630-0.00891 0.56750 0.99139
  -6   4  10   88.49   77.05   1 0.00000-0.65245-0.45129-0.59094 0.89237 0.47443
  -6   4  10  484.47  121.70   1 0.00000-0.65626 0.88881 0.75316 0.45826 0.04537
   6  -4 -10  466.88  101.38   1-0.80035-0.14265-0.16348-0.02914 0.57680 0.98934
  -6   4   9 3117.48  252.93   1 0.00000-0.63917-0.53559-0.63223 0.84447 0.43788
  -6   4   9 4582.86  356.47   1 0.00000-0.64265 0.84797 0.75532 0.53004 0.12837
   6  -4  -9 4713.56  328.75   1-0.79824-0.15424-0.14098-0.04969 0.58559 0.98678
  -6   4   816148.91  550.82   1 0.00000-0.62588-0.62393-0.67755 0.78147 0.38623
  -6   4   816290.42  546.86   1 0.00000-0.62903 0.79717 0.74754 0.60374 0.21330
   6  -4  -816135.05  505.29   1-0.79573-0.16542-0.11892-0.07068 0.59385 0.98368
  -6   4   7  501.00  121.64   1 0.00000-0.61260-0.71355-0.72416 0.70060 0.31671
  -6   4   7  261.58   93.75   1 0.00000-0.61541 0.73675 0.73012 0.67616 0.29693
   6  -4  -7  317.41  106.03   1-0.79288-0.17625-0.09751-0.09233 0.60151 0.98000
   6  -4  -7   82.07  130.21   1-0.11023 0.50569-0.86300-0.85498-0.49301-0.11525
  -6   4   6 7832.75  465.45   1 0.00000-0.59931-0.79986-0.76746 0.60017 0.22764
  -6   4   6 8808.14  434.70   1 0.00000-0.60180 0.66824 0.70463 0.74393 0.37593
   6  -4  -6 8295.04  431.33   1-0.78979-0.18686-0.07720-0.11507 0.60848 0.97562
   6  -4  -6 8282.60  400.87   1-0.14918 0.45339-0.84364-0.87870-0.51575-0.14938
  -6   4   5116958.6 1478.98   1 0.00000-0.58603-0.87682-0.80141 0.48080 0.11961
  -6   4   5132090.5 1489.43   1 0.00000-0.58818 0.59422 0.67361 0.80429 0.44751
   6  -4  -5123792.2 1782.20   1-0.78671-0.19746-0.05897-0.13988 0.61448 0.97027
   6  -4  -5122654.8 1507.69   1-0.19084 0.39838-0.82045-0.89858-0.53892-0.18395
  -6   4   4   12.77   94.92   1 0.00000-0.57457 0.51775 0.64015 0.85553 0.50997
   6  -4  -4   71.80  105.45   1 0.00000 0.57401 0.94114 0.81881-0.33800 0.00719
   6  -4  -4  138.93   72.32   1-0.78430-0.20873-0.04575-0.16972 0.61868 0.96313
   6  -4  -4   96.28  112.01   1-0.23480 0.34106-0.79309-0.91430-0.56202-0.21844
  -6   4   366155.37  992.21   1 0.00000-0.56095 0.44165 0.60706 0.89718 0.56285
   6  -4  -365668.91 1337.25   1 0.00000 0.56040 0.98135 0.81599-0.19219 0.14174
   6  -4  -372888.00 1737.40   1-0.78581-0.22386-0.05393-0.22097 0.61610 0.94923
   6  -4  -367449.96  940.89   1-0.28053 0.28198-0.76134-0.92564-0.58451-0.25232
  -6   4   229582.83 1133.72   1 0.00000-0.54563 0.37093 0.58113 0.92865 0.60378
   6  -4  -233701.37  925.48   1 0.00000 0.54680 0.99890 0.79051-0.04683 0.27585
   6  -4  -235081.45  845.14   1-0.32737 0.22179-0.72512-0.93250-0.60582-0.28503
  -6   4   113683.41  527.65   1 0.00000-0.53199 0.30137 0.55449 0.95350 0.63993
   6  -4  -112640.76  570.89   1 0.00000 0.53319 0.99591 0.74449 0.09033 0.40178
   6  -4  -114253.23  508.18   1-0.37461 0.16120-0.68450-0.93496-0.62539-0.31600
  -6   4   0  620.39  124.08   1 0.00000-0.51835 0.23605 0.53209 0.97173 0.66946
   6  -4   0  492.99  121.15   1 0.00000 0.51959 0.97684 0.68239 0.21396 0.51415
   6  -4   0  409.95  210.76   1-0.73911-0.21828 0.12548-0.17070 0.66178 0.96083
   6  -4   0  397.95  124.03   1-0.49500 0.02661 0.55912 0.26308 0.66509 0.96440
   6  -4   0  647.15  108.69   1-0.42149 0.10097-0.63971-0.93325-0.64273-0.34473
  -6   4  -1 1637.04  175.27   1 0.00000-0.50471 0.17505 0.51400 0.98455 0.69358
   6  -4   1 2328.35  230.98   1 0.00000 0.50598 0.94694 0.60946 0.32140 0.61034
   6  -4   1 1907.30  190.52   1-0.73756-0.23044 0.13002-0.20920 0.66263 0.95032
   6  -4   1 2205.21  268.27   1-0.24674 0.26117 0.78513 0.44598 0.56804 0.85608
   6  -4   1 2241.12  180.41   1-0.46727 0.04183-0.59114-0.92776-0.65742-0.37081
  -6   4  -213691.33  441.63   1 0.00000-0.49107 0.11814 0.50001 0.99299 0.71332
   6  -4   214409.81  610.23   1 0.00000 0.49287 0.91168 0.53123 0.41088 0.68910
   6  -4   213668.53  576.73   1-0.73215-0.23873 0.14545-0.23682 0.66543 0.94176
   6  -4   214343.53  438.86   1-0.51128-0.01551-0.53931-0.91901-0.66912-0.39391
  -6   4  -3 3421.12  236.19   1 0.00000-0.47742 0.06497 0.48975 0.99788 0.72952
   6  -4   3 2614.72  274.01   1 0.00000 0.47925 0.87375 0.45029 0.48635 0.75335
   6  -4   3 2363.62  209.14   1-0.72525-0.24552 0.16427-0.26105 0.66859 0.93357
   6  -4   3 2598.98  204.78   1-0.55326-0.07122-0.48434-0.90756-0.67771-0.41382
  -6   4  -433865.76  898.29   1 0.00000-0.46378 0.01512 0.48282 0.99988 0.74282
   6  -4   434159.39 1041.36   1 0.00000 0.46563 0.83635 0.36988 0.54819 0.80396
   6  -4   436172.71 1107.76   1-0.71744-0.25140 0.18459-0.28378 0.67170 0.92534
   6  -4   438180.83  955.64   1-0.59204-0.12334-0.42783-0.89411-0.68296-0.43051
   6  -4   536062.79  928.09   1 0.00000 0.45202 0.80119 0.29171 0.59840 0.84295
   6  -4   535584.65  908.86   1-0.70892-0.25657 0.20571-0.30571 0.67461 0.91690
   6  -4   534850.75  671.30   1-0.62762-0.17227-0.36998-0.87932-0.68498-0.44396
  -6   4  -530931.19  868.35   1-0.11946-0.57517-0.85861-0.34967-0.49849-0.73952
  -6   4  -6 3314.91  215.43   1 0.00000-0.43650-0.07618 0.47734 0.99709 0.76263
   6  -4   6 2418.80  209.31   1 0.00000 0.43840 0.76928 0.21679 0.63890 0.87223
   6  -4   6 2560.89  247.83   1-0.69977-0.26112 0.22729-0.32718 0.67723 0.90816
   6  -4   6 2945.44  227.72   1-0.65979-0.21778-0.31140-0.86381-0.68388-0.45430
  -6   4  -6 1956.39  289.58   1-0.15463-0.59698-0.84075-0.28873-0.51885-0.74848
  -6   4  -7 1657.64  183.72   1 0.00000-0.42285-0.11834 0.47809 0.99297 0.76981
   6  -4   7 1284.38  219.92   1 0.00000 0.42478 0.74109 0.14560 0.67139 0.89350
   6  -4   7 1638.27  247.16   1-0.68923-0.26339 0.25095-0.34688 0.67968 0.90016
   6  -4   7 1332.70  161.16   1-0.68845-0.25979-0.25266-0.84813-0.67984-0.46169
  -6   4  -7 1528.66  190.23   1-0.18621-0.61522-0.82315-0.22804-0.53640-0.75465
  -6   4  -8 -126.90  108.90   1 0.00000-0.40921-0.15857 0.48078 0.98734 0.77548
   6  -4   8    4.28  110.75   1 0.00000 0.41117 0.71677 0.07827 0.69730 0.90819
   6  -4   8   57.00   76.33   1-0.67890-0.26673 0.27305-0.36790 0.68156 0.89078
   6  -4   8   53.78   64.51   1-0.71360-0.29829-0.19423-0.83277-0.67307-0.46637
  -6   4  -913815.46  578.89   1 0.00000-0.39557-0.19710 0.48517 0.98038 0.77982
   6  -4   917796.50  808.25   1 0.00000 0.39755 0.69625 0.01474 0.71779 0.91745
   6  -4   917990.30  954.62   1-0.66801-0.26951 0.29528-0.38879 0.68305 0.88102
   6  -4   919374.51  788.67   1-0.73531-0.33334-0.13652-0.81812-0.66383-0.46856
  -6   4 -10 7342.88  300.46   1 0.00000-0.38193-0.23415 0.49104 0.97219 0.78294
   6  -4  10 4722.75  338.57   1-0.65657-0.27175 0.31758-0.40960 0.68414 0.87084
   6  -4  10 5669.36  256.34   1-0.75369-0.36507-0.07982-0.80448-0.65235-0.46852
  -6   4 -11   91.29   76.53   1 0.00000-0.36829-0.26988 0.49822 0.96289 0.78494
   6  -4  11  115.39   93.67   1-0.64458-0.27344 0.33994-0.43036 0.68480 0.86024
   6  -4  11  186.76  115.94   1-0.76891-0.39364-0.02437-0.79210-0.63888-0.46649
  -6   4 -12 2925.39  249.50   1 0.00000-0.35464-0.30445 0.50657 0.95252 0.78587
   6  -4  12 1299.45  204.05   1-0.63202-0.27456 0.36234-0.45108 0.68501 0.84919
   6  -4  12 2373.95  198.43   1-0.78115-0.41922 0.02965-0.78114-0.62363-0.46267
  -6   3  15  991.40  166.65   1 0.00000-0.64366 0.99165 0.64282 0.12891-0.41529
   6  -3 -15 1179.17  182.78   1-0.78743-0.14112-0.42971-0.08239 0.44191 0.98655
  -6   3  14 6121.62  330.88   1 0.00000-0.62885-0.36690-0.66966 0.93025 0.39508
  -6   3  14 9932.16  556.38   1 0.00000-0.63005 0.98707 0.68127 0.16027-0.37268
   6  -3 -1410153.77  536.25   1-0.78912-0.15651-0.42073-0.11646 0.44749 0.98078
  -6   3  14 8331.76  506.84   1-0.24194-0.87507 0.78836 0.48285 0.56563 0.03316
  -6   3  13 2296.90  322.95   1 0.00000-0.61162-0.42974-0.69591 0.90294 0.37630
  -6   3  13 2938.23  255.77   1 0.00000-0.61645 0.98030 0.71753 0.19747-0.32423
   6  -3 -13 3033.94  267.53   1-0.79023-0.17130-0.41459-0.15337 0.45126 0.97320
  -6   3  13 2333.05  441.90   1-0.22227-0.84172 0.80119 0.53881 0.55558 0.03436
  -6   3  12  671.30  135.15   1 0.00000-0.59834-0.49616-0.71931 0.86822 0.35294
  -6   3  12 1527.25  202.08   1 0.00000-0.60284 0.97060 0.75086 0.24067-0.26977
   6  -3 -12 1533.15  155.16   1-0.79065-0.18541-0.41220-0.19403 0.45272 0.96331
  -6   3  12 1410.41  235.26   1-0.19442-0.80009 0.81833 0.59908 0.54085 0.03069
  -6   3  11 1532.32  191.47   1 0.00000-0.58505-0.56436-0.74450 0.82552 0.32159
  -6   3  11 2479.29  277.75   1 0.00000-0.58924 0.95707 0.78035 0.28984-0.20936
   6  -3 -11 2596.26  257.85   1-0.79016-0.19861-0.41497-0.23985 0.45103 0.95027
  -6   3  11 2096.45  317.66   1-0.15516-0.74715 0.84047 0.66433 0.51915 0.02025
  -6   3  1016003.73  543.27   1 0.00000-0.57177-0.63364-0.77077 0.77362 0.28104
  -6   3  1019019.25  601.77   1 0.00000-0.57563 0.93873 0.80504 0.34464-0.14331
   6  -3 -1018077.27  664.60   1-0.78829-0.21044-0.42519-0.29312 0.44473 0.93262
  -6   3  1016221.58  782.77   1-0.10013-0.67844 0.86767 0.73464 0.48695-0.00069
  -6   3   9 5511.86  307.38   1 0.00000-0.55848-0.70284-0.79695 0.71134 0.23011
  -6   3   9 7336.56  374.91   1 0.00000-0.56257 0.91413 0.82365 0.40541-0.07150
  -6   3   8 1530.94  173.27   1 0.00000-0.54519-0.77021-0.82131 0.63778 0.16790
  -6   3   8 2299.77  226.02   1 0.00000-0.54895 0.88332 0.83584 0.46876 0.00307
  -6   3   715606.93  530.96   1 0.00000-0.53191-0.83347-0.84156 0.55255 0.09403
  -6   3   716198.17  550.33   1 0.00000-0.53534 0.84532 0.84086 0.53424 0.07977
  -6   3   612946.70  529.56   1 0.00000-0.51863-0.88987-0.85495 0.45619 0.00902
  -6   3   614997.91  527.83   1 0.00000-0.52172 0.80006 0.83860 0.59991 0.15666
   6  -3  -613918.01  590.58   1-0.10053 0.42220-0.86748-0.90536-0.48719-0.04526
  -6   3   5 1260.57  139.96   1 0.00000-0.50810 0.74800 0.82955 0.66369 0.23166
   6  -3  -5 1515.14  187.16   1 0.00000 0.50760 0.93865 0.85719-0.34485 0.08685
   6  -3  -5 1342.41  148.63   1-0.14411 0.36527-0.84628-0.92725-0.51285-0.08231
  -6   3   4 8782.19  354.87   1 0.00000-0.49449 0.69015 0.81471 0.72366 0.30285
   6  -3  -4 8452.51  399.25   1 0.00000 0.49400 0.97300 0.84851-0.23079 0.18967
   6  -3  -4 8402.74  403.09   1-0.19057 0.30547-0.82061-0.94465-0.53877-0.11963
  -6   3   3289472.4 2221.99   1 0.00000-0.48087 0.62794 0.79551 0.77825 0.36867
   6  -3  -3280658.2 2261.08   1 0.00000 0.48039 0.99345 0.82594-0.11420 0.29501
   6  -3  -3275689.4 2236.32   1-0.23934 0.24334-0.79009-0.95721-0.56432-0.15657
  -6   3   284085.80 1211.62   1 0.00000-0.46725 0.56298 0.77355 0.82646 0.42810
   6  -3  -279322.82 1375.77   1 0.00000 0.46679 1.00000 0.78945 0.00060 0.39857
   6  -3  -280043.02 1260.10   1-0.28975 0.17958-0.75451-0.96472-0.58884-0.19249
  -6   3   1   -0.50   75.25   1 0.00000-0.45364 0.49683 0.75042 0.86784 0.48070
   6  -3  -1   11.16  119.12   1 0.00000 0.45318 0.99396 0.74039 0.10970 0.49642
   6  -3  -1   14.37  120.24   1-0.34097 0.11500-0.71386-0.96714-0.61166-0.22670
  -6   3   022410.30  542.70   1 0.00000-0.44002 0.43084 0.72743 0.90242 0.52650
   6  -3   022356.98  778.41   1 0.00000 0.43958 0.97767 0.68108 0.21010 0.58557
   6  -3   021779.30  567.96   1-0.39213 0.05049-0.66830-0.96467-0.63213-0.25857
  -6   3  -1 2262.47  231.30   1 0.00000-0.42422 0.36704 0.70803 0.93020 0.56455
   6  -3   1 2331.38  215.20   1 0.00000 0.42597 0.95394 0.61432 0.29997 0.66419
   6  -3   1 2128.54  177.57   1-0.44233-0.01305-0.61822-0.95767-0.64971-0.28754
  -6   3  -2    9.14   90.81   1 0.00000-0.41057 0.30422 0.68812 0.95260 0.59825
   6  -3   2  141.90   96.61   1 0.00000 0.41237 0.92555 0.54290 0.37860 0.73157
   6  -3   2   41.32   72.32   1-0.49072-0.07478-0.56420-0.94673-0.66397-0.31319
  -6   3  -3 1323.61  163.70   1 0.00000-0.39693 0.24366 0.67047 0.96986 0.62681
   6  -3   3 1047.38  152.73   1 0.00000 0.39917 0.89549 0.46987 0.44507 0.78732
   6  -3   3  853.19  149.35   1-0.37122 0.02941 0.68755 0.26006 0.62406 0.96514
   6  -3   3  950.24  141.34   1-0.53706-0.13490-0.50625-0.93238-0.67473-0.33534
  -6   3  -476036.37 1271.35   1 0.00000-0.38329 0.18557 0.65530 0.98263 0.65088
   6  -3   473375.25 1465.19   1 0.00000 0.38556 0.86467 0.39604 0.50233 0.83336
   6  -3   476092.53 1353.63   1-0.47643-0.08947 0.58080 0.11020 0.66006 0.98987
   6  -3   477216.97 1116.07   1-0.57969-0.19088-0.44650-0.91569-0.68160-0.35365
  -6   3  -5 6986.54  313.27   1 0.00000-0.36965 0.13001 0.64266 0.99151 0.67107
   6  -3   5 5375.05  335.99   1 0.00000 0.37194 0.83495 0.32331 0.55032 0.87013
   6  -3   5 5187.94  397.38   1-0.51825-0.14497 0.53058 0.01686 0.67074 0.98929
   6  -3   5 5522.90  285.99   1-0.61870-0.24324-0.38508-0.89734-0.68476-0.36825
  -6   3  -5 4612.50  383.02   1-0.10080-0.47667-0.86736-0.35559-0.48735-0.80394
  -6   3  -6  149.87   96.06   1 0.00000-0.35600 0.07692 0.63249 0.99703 0.68789
   6  -3   6  370.82  140.17   1 0.00000 0.35832 0.80726 0.25262 0.59018 0.89876
   6  -3   6  425.27  118.79   1-0.53886-0.17926 0.50387-0.05295 0.67508 0.98237
   6  -3   6  514.55   95.88   1-0.65383-0.29171-0.32278-0.87810-0.68433-0.37925
  -6   3  -6  261.74  143.40   1-0.13753-0.50005-0.84966-0.29481-0.50906-0.81426
  -6   3  -7 2208.39  174.54   1 0.00000-0.34236 0.02620 0.62468 0.99965 0.70182
   6  -3   7 2366.93  206.71   1 0.00000 0.34471 0.78219 0.18454 0.62302 0.92039
   6  -3   7 2020.90  220.88   1-0.54898-0.20305 0.49023-0.10970 0.67697 0.97300
   6  -3   7 2061.96  157.64   1-0.68493-0.33616-0.26028-0.85867-0.68052-0.38688
  -6   3  -7 1823.03  242.18   1-0.17057-0.51975-0.83206-0.23412-0.52780-0.82161
  -6   3  -8 9120.73  373.92   1 0.00000-0.32872-0.02231 0.61908 0.99975 0.71321
   6  -3   8 8179.38  408.55   1 0.00000 0.33109 0.76004 0.11937 0.64987 0.93601
   6  -3   8 7389.09  413.78   1-0.55291-0.22066 0.48483-0.15822 0.67765 0.96243
   6  -3   8 7728.80  291.13   1-0.71201-0.37658-0.19818-0.83962-0.67361-0.39141
  -6   3  -8 7306.35  435.95   1-0.19995-0.53577-0.81502-0.17401-0.54382-0.82623
  -6   3  -9  291.97  130.22   1 0.00000-0.31508-0.06879 0.61551 0.99763 0.72239
   6  -3   9  459.40  168.33   1 0.00000 0.31748 0.74089 0.05722 0.67161 0.94653
   6  -3   9  508.44  137.90   1-0.55277-0.23420 0.48502-0.20115 0.67763 0.95114
   6  -3   9  668.43  127.03   1-0.73516-0.41308-0.13695-0.82146-0.66391-0.39314
  -6   3 -10 8643.20  355.01   1 0.00000-0.30144-0.11340 0.61383 0.99354 0.72961
   6  -3  10 6075.43  448.86   1-0.54974-0.24484 0.48918-0.24010 0.67710 0.93936
   6  -3  10 7208.75  313.61   1-0.75454-0.44581-0.07696-0.80453-0.65171-0.39239
  -6   3 -11 5116.57  317.66   1 0.00000-0.28779-0.15628 0.61386 0.98771 0.73508
   6  -3  11 5693.87  351.36   1-0.54451-0.25328 0.49630-0.27610 0.67615 0.92715
   6  -3  11 7098.79  285.81   1-0.77037-0.47498-0.01849-0.78913-0.63732-0.38943
  -6   3 -1215332.11  448.22   1 0.00000-0.27415-0.19760 0.61545 0.98028 0.73895
   6  -3  1211883.00  596.56   1-0.53750-0.25996 0.50567-0.30985 0.67481 0.91455
   6  -3  1216372.63  487.74   1-0.78286-0.50082 0.03827-0.77542-0.62101-0.38455
  -6   3 -13 3592.22  361.38   1 0.00000-0.26051-0.23750 0.61847 0.97138 0.74136
  -6   2  15 1422.42  192.96   1 0.00000-0.55751-0.43272-0.78240 0.90152 0.27754
  -6   2  15 3495.82  315.09   1 0.00000-0.56365 0.99428 0.64761 0.10674-0.51273
  -6   2  14 2684.82  371.68   1 0.00000-0.54422-0.49154-0.79821 0.87085 0.25822
  -6   2  14 2424.72  374.21   1 0.00000-0.55004 0.99099 0.68734 0.13388-0.47433
  -6   2  14 1802.73  312.34   1-0.36917-0.92237 0.68940 0.38599 0.62324 0.01521
  -6   2  13 1351.70  227.71   1 0.00000-0.53094-0.55104-0.81468 0.83447 0.23320
  -6   2  13 1284.58  208.44   1 0.00000-0.53644 0.98614 0.72552 0.16588-0.43109
  -6   2  13  832.30  185.35   1-0.35919-0.89871 0.69823 0.43794 0.61922 0.02246
  -6   2  12 4705.73  290.10   1 0.00000-0.51765-0.61080-0.83143 0.79178 0.20185
  -6   2  12 5293.41  356.78   1 0.00000-0.52283 0.97920 0.76161 0.20286-0.38286
  -6   2  12 5186.32  503.27   1-0.34230-0.86815 0.71275 0.49557 0.61222 0.02671
  -6   2  11   71.58  104.59   1 0.00000-0.50437-0.67023-0.84785 0.74215 0.16358
  -6   2  11  192.11  117.18   1 0.00000-0.50923 0.96956 0.79500 0.24484-0.32963
  -6   2  11  157.13   99.72   1-0.31545-0.82762 0.73471 0.56065 0.60057 0.02632
  -6   2  10  128.36   98.75   1 0.00000-0.49108-0.72849-0.86310 0.68504 0.11782
  -6   2  10   21.63  163.03   1 0.00000-0.49562 0.95652 0.82498 0.29166-0.27157
  -6   2  10    8.53   84.40   1-0.27319-0.77169 0.76667 0.63573 0.58101 0.01802
  -6   2   9   50.67   63.81   1 0.00000-0.47780-0.78452-0.87611 0.62009 0.06423
  -6   2   9  208.54  128.52   1 0.00000-0.48201 0.93936 0.85085 0.34293-0.20905
  -6   2   9  211.26   84.18   1-0.20480-0.68948 0.81208 0.72427 0.54641-0.00551
  -6   2   811816.91  497.24   1 0.00000-0.46451-0.83698-0.88556 0.54723 0.00271
  -6   2   813530.30  521.72   1 0.00000-0.46887 0.91705 0.87174 0.39875-0.14219
  -6   2   812686.35  661.66   1-0.08029-0.55129 0.87640 0.83170 0.47483-0.06583
  -6   2   7 8704.65  425.20   1 0.00000-0.45122-0.88437-0.88993 0.46678-0.06637
  -6   2   7 8642.88  399.74   1 0.00000-0.45526 0.88965 0.88735 0.45662-0.07309
  -6   2   6 9175.20  423.46   1 0.00000-0.44164 0.85648 0.89718 0.51617-0.00233
   6  -2  -6 8367.42  446.72   1 0.00000 0.44120 0.92663 0.88605-0.37595 0.14227
  -6   2   5156726.1 1916.70   1 0.00000-0.42802 0.81743 0.90114 0.57601 0.06873
   6  -2  -5154839.7 2000.61   1 0.00000 0.42759 0.95926 0.87565-0.28251 0.22447
   6  -2  -5160849.6 1961.28   1-0.10930 0.32025-0.86344-0.94723-0.49246 0.01364
  -6   2   4   50.38   91.77   1 0.00000-0.41441 0.77274 0.89946 0.63471 0.13865
   6  -2  -4  182.08  113.75   1 0.00000 0.41399 0.98256 0.85592-0.18590 0.30982
   6  -2  -4  -65.74   83.06   1-0.15811 0.25809-0.83889-0.96576-0.52082-0.02611
  -6   2   328042.10  676.10   1 0.00000-0.40079 0.72296 0.89269 0.69088 0.20604
   6  -2  -329440.48  859.91   1 0.00000 0.40038 0.99606 0.82640-0.08857 0.39591
   6  -2  -330686.40  784.14   1-0.20979 0.19306-0.80902-0.97898-0.54905-0.06573
  -6   2   224442.81  642.08   1 0.00000-0.38718 0.66893 0.88167 0.74331 0.26970
   6  -2  -225674.40  676.05   1 0.00000 0.38678 0.99997 0.78728 0.00695 0.48019
   6  -2  -224694.78  694.42   1-0.26361 0.12589-0.77349-0.98652-0.57638-0.10445
  -6   2   120029.50  515.84   1 0.00000-0.37356 0.61165 0.86740 0.79112 0.32873
   6  -2  -117569.22  589.41   1 0.00000 0.37317 0.99515 0.73943 0.09835 0.56034
   6  -2  -119242.98  532.48   1-0.31866 0.05749-0.73215-0.98827-0.60199-0.14147
  -6   2   0 6915.10  306.38   1 0.00000-0.35994 0.55217 0.85093 0.83372 0.38255
   6  -2   0 5882.86  340.09   1 0.00000 0.35957 0.98297 0.68422 0.18371 0.63445
   6  -2   0 7261.48  351.56   1-0.37391-0.01111-0.68513-0.98432-0.62512-0.17599
  -6   2  -1 2643.78  194.37   1 0.00000-0.34633 0.49152 0.83328 0.87086 0.43091
   6  -2   1 2855.18  256.81   1 0.00000 0.34596 0.96513 0.62335 0.26174 0.70123
   6  -2   1 2577.06  204.32   1-0.42829-0.07884-0.63281-0.97508-0.64506-0.20733
  -6   2  -229424.50  647.40   1 0.00000-0.33271 0.43057 0.81534 0.90255 0.47383
   6  -2   229505.20  803.17   1 0.00000 0.33236 0.94338 0.55857 0.33171 0.75995
   6  -2   229603.76  697.42   1-0.48076-0.14466-0.57582-0.96118-0.66127-0.23493
  -6   2  -3 6739.73  486.42   1 0.00000-0.31644 0.37021 0.79906 0.92894 0.51122
   6  -2   3 6998.53  402.08   1 0.00000 0.31909 0.91974 0.49195 0.39252 0.81003
   6  -2   3 6728.41  318.29   1-0.53110-0.20883-0.51409-0.94313-0.67352-0.25863
  -6   2  -415377.36  685.40   1 0.00000-0.30280 0.31071 0.78248 0.95050 0.54408
   6  -2   417269.90  568.49   1 0.00000 0.30548 0.89491 0.42412 0.44624 0.85252
   6  -2   417939.16  777.83   1-0.11526 0.19152 0.86063 0.38792 0.49601 0.90157
   6  -2   417824.18  565.46   1-0.57710-0.26817-0.45033-0.92243-0.68128-0.27783
  -6   2  -541722.76 1084.33   1 0.00000-0.28916 0.25256 0.76724 0.96758 0.57246
   6  -2   539224.46 1094.28   1 0.00000 0.29186 0.87033 0.35653 0.49246 0.88752
   6  -2   537605.60 1204.05   1-0.24586 0.04749 0.78573 0.26991 0.56760 0.96171
   6  -2   538293.36  924.05   1-0.61895-0.32337-0.38468-0.89984-0.68477-0.29276
  -6   2  -613286.20  467.11   1 0.00000-0.27552 0.19601 0.75361 0.98060 0.59678
   6  -2   612049.16  600.13   1 0.00000 0.27825 0.84684 0.29004 0.53183 0.91567
   6  -2   612622.53  607.79   1-0.31652-0.03683 0.73386 0.17493 0.60104 0.98389
   6  -2   612441.76  429.54   1-0.65631-0.37408-0.31806-0.87629-0.68416-0.30358
  -6   2  -610251.82  503.52   1-0.10301-0.38570-0.86635-0.30867-0.48868-0.86945
  -6   2  -7  244.90  117.36   1 0.00000-0.26187 0.14120 0.74172 0.98997 0.61746
   6  -2   7  203.67   90.22   1 0.00000 0.26463 0.82504 0.22523 0.56506 0.93767
   6  -2   7  104.86   82.92   1-0.35961-0.09361 0.69786 0.09581 0.61940 0.99098
   6  -2   7  156.39  107.16   1-0.68906-0.42017-0.25134-0.85263-0.67971-0.31058
  -6   2  -7  214.09  117.68   1-0.13807-0.40741-0.84939-0.24863-0.50937-0.87874
  -6   2  -8 1714.81  235.10   1 0.00000-0.24823 0.08820 0.73163 0.99610 0.63489
   6  -2   8 1421.75  194.87   1 0.00000 0.25101 0.80530 0.16248 0.59285 0.95424
   6  -2   8 1868.26  229.76   1-0.38695-0.13462 0.67315 0.02799 0.63017 0.99050
   6  -2   8 2140.18  182.23   1-0.71719-0.46165-0.18523-0.82958-0.67180-0.31410
  -6   2  -8 1608.69  287.89   1-0.16935-0.42534-0.83274-0.18889-0.52712-0.88510
  -6   2  -9 1516.26  183.38   1 0.00000-0.23459 0.03700 0.72335 0.99931 0.64940
   6  -2   9 2415.28  304.26   1-0.40426-0.16560 0.65672-0.03155 0.63662 0.98568
   6  -2   9 2772.47  212.47   1-0.74086-0.49867-0.12029-0.80770-0.66079-0.31452
  -6   2  -9 1968.78  313.98   1-0.19690-0.43954-0.81685-0.12993-0.54219-0.88877
  -6   2 -10 8417.30  358.89   1 0.00000-0.22095-0.01243 0.71682 0.99992 0.66131
   6  -2  10 6851.96  497.75   1-0.41468-0.18970 0.64651-0.08488 0.64035 0.97816
   6  -2  10 8390.52  346.13   1-0.76029-0.53145-0.05695-0.78743-0.64706-0.31224
  -6   2 -11 1621.55  249.49   1 0.00000-0.20730-0.06018 0.71199 0.99818 0.67088
   6  -2  11 1228.58  218.76   1-0.42012-0.20881 0.64108-0.13342 0.64226 0.96881
   6  -2  11 1737.41  256.42   1-0.77576-0.56026 0.00447-0.76907-0.63100-0.30761
  -6   2 -12 4588.52  310.92   1 0.00000-0.19366-0.10632 0.70877 0.99433 0.67832
   6  -2  12 1980.55  240.70   1-0.42177-0.22414 0.63942-0.17820 0.64283 0.95812
   6  -2  12 2921.61  180.73   1-0.78756-0.58540 0.06380-0.75280-0.61291-0.30097
  -6   1  15 2852.97  261.52   1 0.00000-0.48363 0.99413 0.64961 0.10815-0.58659
  -6   1  14 1333.75  232.75   1 0.00000-0.47003 0.99116 0.68966 0.13266-0.55084
  -6   1  14 1016.75  213.31   1-0.49163-0.96492 0.56312 0.26181 0.66421-0.01936
  -6   1  13 8680.18  446.91   1 0.00000-0.45025-0.62567-0.88680 0.78008 0.10416
  -6   1  1313403.22  547.46   1 0.00000-0.45642 0.98690 0.72843 0.16132-0.51093
  -6   1  1312116.21  631.92   1-0.49340-0.95301 0.56103 0.30284 0.66467-0.00764
  -6   1  12   30.89   95.68   1 0.00000-0.43697-0.67864-0.89675 0.73446 0.06990
  -6   1  12   48.34  127.21   1 0.00000-0.44282 0.98095 0.76551 0.19422-0.46678
  -6   1  12   10.67   95.74   1-0.49146-0.93739 0.56333 0.34826 0.66416 0.00310
  -6   1  11  729.40  130.51   1 0.00000-0.42368-0.73021-0.90531 0.68321 0.03000
  -6   1  11  869.31  160.04   1 0.00000-0.42921 0.97286 0.80045 0.23137-0.41837
  -6   1  11  852.73  206.61   1-0.48424-0.91649 0.57180 0.39984 0.66223 0.01242
  -6   1  10  833.21  144.15   1 0.00000-0.41040-0.77968-0.91177 0.62617-0.01568
  -6   1  10 1155.02  167.01   1 0.00000-0.41561 0.96210 0.83272 0.27267-0.36583
  -6   1  10  965.32  192.19   1-0.46884-0.88742 0.58939 0.46055 0.65788 0.01933
  -6   1   9 6640.88  324.48   1 0.00000-0.39711-0.82623-0.91530 0.56332-0.06718
  -6   1   9 8258.65  411.64   1 0.00000-0.40200 0.94813 0.86178 0.31786-0.30938
  -6   1   9 7722.69  480.23   1-0.43910-0.84400 0.62163 0.53590 0.64866 0.02137
  -6   1   8  373.97   98.44   1 0.00000-0.38382-0.86894-0.91500 0.49490-0.12425
  -6   1   8  443.21  114.05   1 0.00000-0.38840 0.93040 0.88707 0.36653-0.24946
  -6   1   8  292.42  115.36   1-0.37822-0.76945 0.68121 0.63860 0.62681 0.01078
  -6   1   7 5013.33  324.28   1 0.00000-0.37518 0.90816 0.90802 0.41860-0.18637
  -6   1   644774.59  851.14   1 0.00000-0.36156 0.88151 0.92438 0.47214-0.12160
   6  -1  -641664.90 1008.92   1 0.00000 0.36119 0.94024 0.89751-0.34050 0.25300
  -6   1   5 7080.07  351.81   1 0.00000-0.34795 0.84998 0.93585 0.52680-0.05572
   6  -1  -5 5034.69  339.33   1 0.00000 0.34758 0.96589 0.88013-0.25892 0.32333
   6  -1  -5 5199.66  337.91   1-0.08796 0.26176-0.87309-0.95971-0.47955 0.10212
  -6   1   418988.20  544.67   1 0.00000-0.33433 0.81352 0.94239 0.58153 0.01022
   6  -1  -418389.09  633.58   1 0.00000 0.33398 0.98444 0.85566-0.17566 0.39534
   6  -1  -418125.58  620.78   1-0.13920 0.19716-0.84881-0.97851-0.51003 0.06024
  -6   1   3104414.5 1480.66   1 0.00000-0.32071 0.77229 0.94418 0.63525 0.07516
   6  -1  -398551.16 1524.37   1 0.00000 0.32037 0.99573 0.82391-0.09229 0.46746
   6  -1  -397577.42 1566.63   1-0.19385 0.12916-0.81867-0.99145-0.54055 0.01833
  -6   1   286507.63 1261.30   1 0.00000-0.30710 0.72671 0.94160 0.68694 0.13807
   6  -1  -285366.29 1380.63   1 0.00000 0.30677 0.99994 0.78509-0.01045 0.53806
   6  -1  -289628.42 1399.60   1-0.25111 0.05855-0.78216-0.99802-0.57023-0.02274
  -6   1   129523.01  688.38   1 0.00000-0.29348 0.67731 0.93522 0.73569 0.19804
   6  -1  -127996.82  833.18   1 0.00000 0.29316 0.99766 0.73978 0.06835 0.60561
   6  -1  -129337.93  704.42   1-0.30996-0.01364-0.73903-0.99798-0.59811-0.06202
  -6   1   0 5356.00  276.40   1 0.00000-0.27987 0.62481 0.92573 0.78077 0.25434
   6  -1   0 5387.63  339.29   1 0.00000 0.27955 0.98974 0.68884 0.14281 0.66883
   6  -1   0 5256.10  288.51   1-0.36921-0.08624-0.68936-0.99138-0.62326-0.09856
  -6   1  -113189.57  476.71   1 0.00000-0.26625 0.56996 0.91388 0.82167 0.30647
   6  -1   112434.76  548.26   1 0.00000 0.26595 0.97727 0.63334 0.21196 0.72673
   6  -1   113588.88  473.74   1-0.42758-0.15796-0.63354-0.97864-0.64482-0.13152
  -6   1  -2 3804.65  290.53   1 0.00000-0.25263 0.51350 0.90043 0.85808 0.35411
   6  -1   2 3809.16  359.63   1 0.00000 0.25234 0.96139 0.57444 0.27516 0.77867
   6  -1   2 3745.88  246.53   1-0.48380-0.22753-0.57231-0.96050-0.66211-0.16020
  -6   1  -315963.67  518.76   1 0.00000-0.23902 0.45614 0.88608 0.88990 0.39715
   6  -1   314572.67  535.61   1 0.00000 0.23874 0.94324 0.51326 0.33208 0.82435
   6  -1   315814.96  537.90   1-0.53763-0.29525-0.50550-0.93744-0.67484-0.18446
  -6   1  -423119.83  672.30   1 0.00000-0.22540 0.39849 0.87144 0.91717 0.43563
   6  -1   423474.04  778.73   1 0.00000 0.22540 0.92418 0.45124 0.38193 0.86346
   6  -1   422891.63  691.52   1-0.58631-0.35728-0.43656-0.91157-0.68237-0.20343
  -6   1  -519125.76  787.67   1 0.00000-0.20867 0.34072 0.85744 0.94016 0.47037
   6  -1   520456.52  729.12   1 0.00000 0.21178 0.90451 0.38855 0.42644 0.89675
   6  -1   520407.04  502.20   1-0.63014-0.41444-0.36563-0.88369-0.68500-0.21750
  -6   1  -6 4325.73  337.01   1 0.00000-0.19502 0.28393 0.84356 0.95884 0.50035
   6  -1   6 3907.05  270.49   1 0.00000 0.19817 0.88521 0.32624 0.46518 0.92427
  -6   1  -6 4714.39  346.19   1-0.79011-0.98926-0.41524 0.14604 0.45087-0.00611
   6  -1   6 4339.93  351.19   1-0.10323 0.09623 0.86625 0.30522 0.48881 0.94740
   6  -1   6 4375.78  237.86   1-0.66872-0.46638-0.29385-0.85498-0.68297-0.22690
  -6   1  -7  -42.43  100.71   1 0.00000-0.18138 0.22807 0.83062 0.97364 0.52645
   6  -1   7 -124.02  119.19   1 0.00000 0.18455 0.86683 0.26486 0.49859 0.94646
  -6   1  -7  -61.15  109.25   1-0.79295-0.97840-0.39821 0.20611 0.46113 0.01550
   6  -1   7  103.97  123.18   1-0.16674 0.01904 0.83418 0.23004 0.52566 0.97299
   6  -1   7    2.36   80.71   1-0.70194-0.51295-0.22226-0.82646-0.67665-0.23202
  -6   1  -8 4924.76  363.76   1 0.00000-0.16774 0.17336 0.81883 0.98485 0.54896
  -6   1  -8 5164.43  438.81   1-0.79414-0.96590-0.39039 0.25698 0.46575 0.03147
   6  -1   8 4796.61  415.57   1-0.21235-0.03994 0.80744 0.16018 0.55040 0.98627
   6  -1   8 4997.13  277.34   1-0.72988-0.55423-0.15172-0.79898-0.66651-0.23332
  -6   1  -8 4203.90  364.92   1-0.11878-0.29493-0.85894-0.21227-0.49809-0.93163
  -6   1  -9  449.84  136.94   1 0.00000-0.15410 0.11995 0.80833 0.99278 0.56819
  -6   1  -9  393.39  120.61   1-0.79436-0.95243-0.38885 0.30158 0.46666 0.04372
   6  -1   9  161.29  140.72   1-0.24471-0.08598 0.78650 0.09612 0.56703 0.99164
   6  -1   9  397.09   69.77   1-0.75277-0.59046-0.08288-0.77321-0.65303-0.23128
  -6   1  -9  274.58  108.27   1-0.14873-0.31154-0.84388-0.15412-0.51550-0.93765
  -6   1 -10 3087.34  261.01   1 0.00000-0.14046 0.06791 0.79921 0.99769 0.58440
  -6   1 -10 3156.90  284.38   1-0.79392-0.93831-0.39183 0.34165 0.46491 0.05333
   6  -1  10 2399.40  392.91   1-0.26776-0.12270 0.77056 0.03706 0.57839 0.99175
   6  -1  10 2347.16  312.92   1-0.77092-0.62196-0.01621-0.74959-0.63671-0.22639
  -6   1 -10 2184.58  344.59   1-0.17491-0.32437-0.82962-0.09679-0.53021-0.94096
  -6   1 -11 1209.13  222.37   1 0.00000-0.12681 0.01728 0.79149 0.99985 0.59786
  -6   1 -11 1505.10  251.00   1-0.79295-0.92365-0.39817 0.37836 0.46115 0.06092
   6  -1  11  956.68  191.42   1-0.28380-0.15242 0.75893-0.01767 0.58605 0.98815
   6  -1  11 1364.08  198.46   1-0.78472-0.64910 0.04799-0.72845-0.61798-0.21910
  -6   1 -1211517.16  492.60   1 0.00000-0.11317-0.03193 0.78520 0.99949 0.60881
  -6   1 -1213914.19  653.12   1-0.79151-0.90851-0.40713 0.41246 0.45579 0.06691
   6  -1  1213410.88  416.00   1-0.79454-0.67227 0.10956-0.70995-0.59724-0.20979
  -6   0  14  301.05  122.05   1 0.00000-0.39002 0.98890 0.68956 0.14854-0.61023
  -6   0  13 3016.21  419.64   1 0.00000-0.37641 0.98458 0.72827 0.17488-0.57264
  -6   0  13 2800.01  442.86   1-0.60728-0.98697 0.40382 0.14773 0.68419-0.06367
  -6   0  12 3206.18  258.75   1 0.00000-0.36281 0.97878 0.76550 0.20488-0.53139
  -6   0  12 2787.34  426.38   1-0.61727-0.98328 0.38747 0.17450 0.68471-0.05190
  -6   0  11  -25.42  109.88   1 0.00000-0.34920 0.97112 0.80087 0.23855-0.48647
  -6   0  11   -6.17   90.62   1-0.62604-0.97838 0.37268 0.20282 0.68496-0.04039
  -6   0  10   76.45   90.49   1 0.00000-0.32971-0.80622-0.93578 0.59161-0.12488
  -6   0  10  -10.52  155.73   1 0.00000-0.33560 0.96121 0.83398 0.27579-0.43798
  -6   0  10   77.80   74.69   1-0.63328-0.97194 0.36014 0.23340 0.68501-0.02908
  -6   0   9  119.42   96.67   1 0.00000-0.31642-0.84627-0.93282 0.53275-0.17239
  -6   0   9   54.82   99.73   1 0.00000-0.32199 0.94862 0.86442 0.31640-0.38612
  -6   0   9   22.06   90.87   1-0.63842-0.96341 0.35104 0.26742 0.68496-0.01787
  -6   0   8 1522.49  183.88   1 0.00000-0.30314-0.88272-0.92626 0.46988-0.22391
  -6   0   8 1628.33  203.92   1 0.00000-0.30839 0.93291 0.89174 0.36009-0.33118
  -6   0   8 1614.37  208.41   1-0.64033-0.95164 0.34762 0.30712 0.68492-0.00665
  -6   0   7  641.03  157.82   1 0.00000-0.29510 0.91350 0.91551 0.40683-0.27339
   6   0  -7  480.94  106.51   1 0.00000 0.29468 0.91589 0.91405-0.40142 0.27867
  -6   0   7  623.03  131.36   1-0.63626-0.93390 0.35489 0.35750 0.68499 0.00466
  -6   0   656023.27 1037.12   1 0.00000-0.28148 0.89041 0.93543 0.45515-0.21384
   6   0  -652479.31 1022.34   1 0.00000 0.28118 0.94338 0.89850-0.33169 0.33708
  -6   0   655876.10 1432.32   1-0.61688-0.90084 0.38813 0.43385 0.68469 0.01561
  -6   0   649045.99 1259.96   1-0.15735-0.44109 0.83929 0.88502 0.52039-0.14886
  -6   0   571302.30 1057.09   1 0.00000-0.26787 0.86320 0.95123 0.50484-0.15293
   6   0  -569262.64 1736.18   1 0.00000 0.26757 0.96561 0.87770-0.25998 0.39754
  -6   0   4  168.12  127.44   1 0.00000-0.25425 0.83176 0.96280 0.55512-0.09143
   6   0  -4  329.55  141.03   1 0.00000 0.25397 0.98230 0.85136-0.18728 0.45899
   6   0  -4  313.54  143.51   1-0.13580 0.12074-0.85054-0.98307-0.50806 0.13778
  -6   0   3 5660.48  323.80   1 0.00000-0.24064 0.79609 0.97014 0.60516-0.03017
   6   0  -3 6254.07  335.98   1 0.00000 0.24036 0.99340 0.81943-0.11469 0.52034
   6   0  -3 5705.37  374.50   1-0.19374 0.04944-0.81873-0.99434-0.54049 0.09395
  -6   0   2 4875.14  289.33   1 0.00000-0.22702 0.75637 0.97342 0.65414 0.03002
   6   0  -2 4295.94  288.96   1 0.00000 0.22675 0.99906 0.78206-0.04330 0.58047
   6   0  -2 4683.66  304.28   1-0.25471-0.02487-0.77969-0.99838-0.57201 0.05104
  -6   0   1 3691.47  240.76   1 0.00000-0.21340 0.71289 0.97295 0.70127 0.08837
   6   0  -1 3668.27  258.94   1 0.00000 0.21315 0.99966 0.73964 0.02581 0.63835
   6   0  -1 3672.25  254.02   1-0.31753-0.10104-0.73305-0.99483-0.60149 0.01016
  -6   0   010640.06  433.39   1 0.00000-0.19979 0.66609 0.96917 0.74586 0.14419
   6   0   0 8909.69  454.54   1 0.00000 0.19954 0.99578 0.69272 0.09175 0.69304
   6   0   0 9483.73  444.75   1-0.38080-0.17766-0.67885-0.98370-0.62781-0.02754
  -6   0  -1 1572.68  174.39   1 0.00000-0.18617 0.61650 0.96258 0.78735 0.19690
   6   0   1 1325.07  184.68   1 0.00000 0.18594 0.98810 0.64202 0.15375 0.74379
  -6   0  -1 1451.99  205.40   1-0.80367-0.99143-0.22319 0.12512 0.55162-0.03748
   6   0   1 1656.87  162.56   1-0.44297-0.25318-0.61755-0.96548-0.64992-0.06105
  -6   0  -217371.65  584.70   1 0.00000-0.17255 0.56467 0.95376 0.82531 0.24608
   6   0   216620.78  651.38   1 0.00000 0.17233 0.97742 0.58832 0.21126 0.79005
  -6   0  -216315.07  834.19   1-0.80075-0.97481-0.16835 0.22300 0.57485-0.00288
   6   0   216339.05  595.18   1-0.50251-0.32608-0.55007-0.94109-0.66700-0.08952
  -6   0  -318543.30  514.36   1 0.00000-0.15894 0.51118 0.94328 0.85947 0.29146
   6   0   316727.04  635.29   1 0.00000 0.15873 0.96454 0.53240 0.26393 0.83147
  -6   0  -318428.68  622.09   1-0.79957-0.95994-0.15457 0.27982 0.58033 0.01394
   6   0   318266.84  570.49   1-0.55914-0.39664-0.47616-0.91101-0.67869-0.11281
  -6   0  -4 9512.55  449.51   1 0.00000-0.14532 0.45659 0.93169 0.88967 0.33289
   6   0   4 8141.89  505.77   1 0.00000 0.14512 0.95020 0.47503 0.31162 0.86791
  -6   0  -4 9459.71  546.93   1-0.79963-0.94631-0.15517 0.32227 0.58009 0.02505
   6   0   4 9492.40  397.12   1-0.60947-0.46032-0.40028-0.87819-0.68433-0.12989
  -6   0  -512028.26  406.96   1 0.00000-0.13171 0.40139 0.91951 0.91590 0.37034
   6   0   5 9847.64  519.10   1 0.00000 0.13152 0.93511 0.41692 0.35433 0.89937
  -6   0  -510734.37  534.87   1-0.80031-0.93330-0.16296 0.35753 0.57701 0.03332
   6   0   510605.52  373.80   1-0.65395-0.51814-0.32255-0.84353-0.68432-0.14132
  -6   0  -613018.96  859.18   1 0.00000-0.11453 0.34529 0.90696 0.93849 0.40532
  -6   0  -616618.68  741.91   1-0.80125-0.92055-0.17497 0.38857 0.57217 0.03983
   6   0   615927.05  573.60   1-0.69219-0.56973-0.24444-0.80848-0.67905-0.14748
  -6   0  -7  149.83  136.47   1 0.00000-0.10089 0.29010 0.89469 0.95699 0.43512
  -6   0  -7  146.05   90.47   1-0.80222-0.90783-0.18971 0.41689 0.56608 0.04509
   6   0   7  231.14   86.01   1-0.72415-0.61504-0.16719-0.77429-0.66905-0.14893
  -6   0  -8  412.26  114.96   1 0.00000-0.08725 0.23542 0.88292 0.97189 0.46132
  -6   0  -8  784.47  146.08   1-0.80307-0.89499-0.20632 0.44332 0.55901 0.04938
   6   0   8  568.41  181.65   1-0.05516 0.03698 0.88666 0.23730 0.45911 0.97073
   6   0   8  527.94   93.31   1-0.75005-0.65428-0.09179-0.74196-0.65497-0.14628
  -6   0  -9 1075.97  192.63   1 0.00000-0.07361 0.18147 0.87189 0.98339 0.48413
  -6   0  -9  718.38  167.79   1-0.80370-0.88193-0.22431 0.46839 0.55113 0.05284
   6   0   9  689.20  178.67   1-0.09460-0.01613 0.87015 0.17768 0.48360 0.98395
   6   0   9  764.50  126.77   1-0.77025-0.68783-0.01896-0.71219-0.63745-0.14019
  -6   0 -10  229.30  117.95   1 0.00000-0.05996 0.12842 0.86176 0.99171 0.50375
  -6   0 -10  326.90   90.10   1-0.80403-0.86857-0.24332 0.49243 0.54251 0.05558
   6   0  10   67.50  130.14   1-0.12509-0.06030 0.85588 0.12029 0.50181 0.99090
   6   0  10  304.87   78.94   1-0.78525-0.71617 0.05083-0.68546-0.61708-0.13127
  -6   0 -10  144.25  101.37   1-0.10478-0.17440-0.86554-0.12987-0.48975-0.97607
  -6   0 -11  515.91  108.42   1 0.00000-0.04632 0.07640 0.85265 0.99707 0.52041
  -6   0 -11  630.14  124.82   1-0.80400-0.85485-0.26314 0.51565 0.53323 0.05764
   6   0  11  699.61  123.01   1-0.79554-0.73981 0.11734-0.66201-0.59442-0.12004
  -6  -1  13 6782.27  377.43   1 0.00000-0.29640 0.97949 0.72533 0.20148-0.62131
  -6  -1  12  640.61  186.69   1 0.00000-0.28280 0.97336 0.76222 0.22928-0.58226
  -6  -1  11 1168.19  239.49   1 0.00000-0.26919 0.96553 0.79743 0.26026-0.54003
  -6  -1  11  914.29  187.26   1-0.71927-0.99146 0.17992 0.01388 0.67102-0.12961
  -6  -1  10 1441.92  184.47   1 0.00000-0.25559 0.95569 0.83062 0.29434-0.49471
  -6  -1  10  946.95  168.87   1-0.73354-0.99203 0.14155 0.01856 0.66474-0.12454
  -6  -1   9  687.68  141.44   1 0.00000-0.24198 0.94351 0.86146 0.33134-0.44646
  -6  -1   9  612.79  117.92   1-0.74760-0.99242 0.09959 0.01965 0.65662-0.12131
  -6  -1   8  702.49  167.94   1 0.00000-0.22837 0.92862 0.88960 0.37102-0.39553
  -6  -1   8  526.24  105.57   1-0.76146-0.99258 0.05276 0.01587 0.64605-0.12053
  -6  -1   7 1122.04  160.48   1 0.00000-0.21502 0.91055 0.91473 0.41338-0.34210
   6   1  -7  812.32  159.53   1 0.00000 0.21466 0.91504 0.91104-0.40336 0.35201
  -6  -1   7 1258.87  214.52   1-0.77493-0.99236-0.00080 0.00536 0.63203-0.12320
  -6  -1   611869.37  470.42   1 0.00000-0.20141 0.88933 0.93651 0.45725-0.28700
   6   1  -610880.34  530.84   1 0.00000 0.20117 0.93995 0.89292-0.34128 0.40276
  -6  -1   6 9888.28  488.13   1-0.78754-0.99128-0.06368-0.01447 0.61295-0.13093
  -6  -1   610212.00  535.63   1-0.09451-0.29828 0.87020 0.91802 0.48354-0.26124
  -6  -1   537619.77  964.93   1 0.00000-0.18779 0.86457 0.95476 0.50249-0.23054
   6   1  -533469.03  969.96   1 0.00000 0.18756 0.96061 0.87055-0.27787 0.45492
  -6  -1   536044.64 1043.65   1-0.79807-0.98812-0.13928-0.04701 0.58624-0.14629
  -6  -1   531630.71 1013.74   1-0.21783-0.40819 0.80401 0.89495 0.55327-0.18008
   6   1  -537362.19  948.33   1-0.09275 0.09730-0.87098-0.96325-0.48247 0.25032
  -6  -1   422105.63  666.75   1 0.00000-0.17417 0.83614 0.96934 0.54850-0.17330
   6   1  -419696.58  675.89   1 0.00000 0.17395 0.97686 0.84377-0.21383 0.50771
  -6  -1   419602.80  790.28   1-0.80386-0.98022-0.23115-0.09584 0.54806-0.17313
  -6  -1   418483.41  760.41   1-0.33920-0.51589 0.71534 0.84940 0.61091-0.11118
   6   1  -423040.93  758.90   1-0.15031 0.02639-0.84304-0.97840-0.51640 0.20500
  -6  -1   3 8676.64  382.68   1 0.00000-0.16056 0.80398 0.98019 0.59464-0.11594
   6   1  -3 6747.09  379.62   1 0.00000 0.16035 0.98869 0.81257-0.14994 0.56036
  -6  -1   3 6887.17  480.90   1-0.80002-0.96269-0.34102-0.16266 0.49361-0.21622
  -6  -1   3 5945.92  439.78   1-0.44797-0.61097 0.61224 0.78942 0.65152-0.05931
   6   1  -3 7264.44  357.61   1-0.21222-0.04886-0.80751-0.98595-0.55033 0.15967
  -6  -1   215871.94  573.40   1 0.00000-0.14694 0.76816 0.98737 0.64025-0.05911
   6   1  -212034.99  620.10   1 0.00000 0.14674 0.99620 0.77706-0.08697 0.61207
  -6  -1   211997.86  623.20   1-0.53642-0.68575 0.50711 0.72740 0.67460-0.02497
   6   1  -215450.74  588.92   1-0.27748-0.12747-0.76356-0.98508-0.58306 0.11555
  -6  -1   121251.70  650.44   1 0.00000-0.13333 0.72884 0.99106 0.68468-0.00346
   6   1  -118639.19  646.74   1 0.00000 0.13314 0.99966 0.73749-0.02570 0.66210
  -6  -1   118998.15  770.96   1-0.60306-0.73871 0.41058 0.67400 0.68390-0.00440
   6   1  -122445.83  670.93   1-0.34470-0.20805-0.71071-0.97531-0.61323 0.07398
  -6  -1   0 1398.68  159.13   1 0.00000-0.11971 0.68629 0.99152 0.72732 0.05039
   6   1   0 1282.72  212.81   1 0.00000 0.11953 0.99944 0.69424 0.03318 0.70974
  -6  -1   0 1141.59  171.72   1-0.65137-0.77335 0.32740 0.63393 0.68448 0.00742
   6   1   0 1195.75  161.31   1-0.41216-0.28886-0.64899-0.95668-0.63946 0.03636
  -6  -1  -1 3220.56  245.75   1 0.00000-0.10609 0.64087 0.98911 0.76764 0.10194
   6   1   1 2447.35  257.39   1 0.00000 0.10593 0.99602 0.64778 0.08910 0.75441
  -6  -1  -1 2490.79  260.71   1-0.68633-0.79464 0.25726 0.60690 0.68026 0.01446
   6   1   1 3341.90  233.38   1-0.47796-0.36800-0.57905-0.92981-0.66049 0.00394
  -6  -1  -216431.75  508.57   1 0.00000-0.09248 0.59298 0.98424 0.80521 0.15072
   6   1   213390.96  636.95   1 0.00000 0.09232 0.98992 0.59866 0.14160 0.79566
  -6  -1  -215350.78  627.01   1-0.71251-0.80673 0.19693 0.59055 0.67344 0.02036
   6   1   214540.37  499.01   1-0.54158-0.44563-0.50023-0.89492-0.67560-0.02279
  -6  -1  -3 6130.71  406.34   1 0.00000-0.07886 0.54308 0.97734 0.83967 0.19641
  -6  -1  -3 5650.22  380.34   1-0.73208-0.81261 0.14564 0.58231 0.66546 0.02372
   6   1   3 6445.80  376.42   1-0.59843-0.51582-0.41789-0.85565-0.68354-0.04217
  -6  -1  -4  387.10  111.93   1 0.00000-0.06524 0.49161 0.96888 0.87081 0.23877
  -6  -1  -4  404.36   94.12   1-0.74743-0.81427 0.10016 0.57988 0.65674 0.02636
   6   1   4  397.31  102.90   1-0.64871-0.57945-0.33234-0.81316-0.68462-0.05469
  -6  -1  -5 6965.78  469.57   1-0.75974-0.81290 0.05893 0.58170 0.64754 0.02850
   6   1   5 6679.43  361.23   1-0.69166-0.63574-0.24562-0.76951-0.67917-0.06067
  -6  -1  -6 5833.39  458.61   1 0.00000-0.03404 0.38471 0.94841 0.92303 0.31519
  -6  -1  -6 8268.16  399.96   1-0.76979-0.80925 0.02085 0.58667 0.63795 0.03027
   6   1   6 8009.29  353.36   1-0.72700-0.68443-0.15959-0.72654-0.66782-0.06076
  -6  -1  -7  986.71  216.72   1 0.00000-0.02040 0.33098 0.93760 0.94363 0.34709
  -6  -1  -7 1633.08  270.16   1-0.77805-0.80382-0.01485 0.59401 0.62801 0.03168
   6   1   7 1508.84  228.69   1-0.75490-0.72567-0.07575-0.68576-0.65144-0.05582
  -6  -1  -8  -50.59  149.33   1 0.00000-0.00676 0.27723 0.92677 0.96080 0.37556
  -6  -1  -8   10.47  109.03   1-0.78486-0.79694-0.04876 0.60315 0.61774 0.03275
   6   1   8   -3.16   64.10   1-0.77583-0.75996 0.00478-0.64828-0.63091-0.04672
  -6  -1  -9   -2.00  121.72   1 0.00000 0.00687 0.22372 0.91617 0.97465 0.40071
  -6  -1  -9   -8.40   71.58   1-0.79045-0.78884-0.08129 0.61368 0.60710 0.03347
   6   1   9    5.93   54.30   1-0.79045-0.78792 0.08132-0.61481-0.60709-0.03434
  -6  -2  11  158.99  144.31   1 0.00000-0.18918 0.95619 0.79024 0.29271-0.58285
  -6  -2  10   31.48  139.26   1 0.00000-0.17557 0.94598 0.82306 0.32419-0.54012
  -6  -2   9  259.01  172.17   1 0.00000-0.16197 0.93363 0.85374 0.35821-0.49486
  -6  -2   9   28.07   68.52   1-0.79070-0.95568-0.08294-0.16061 0.60654-0.24673
  -6  -2   8  401.52  130.12   1 0.00000-0.14856 0.91873 0.88206 0.39486-0.44709
  -6  -2   8  311.35  101.47   1-0.79850-0.94978-0.14345-0.17807 0.58464-0.25729
  -6  -2   7 6256.65  320.92   1 0.00000-0.13495 0.90128 0.90761 0.43322-0.39751
  -6  -2   7 5599.18  349.17   1-0.80320-0.94079-0.20945-0.20102 0.55766-0.27292
  -6  -2   7 5426.95  441.17   1-0.02290-0.16041 0.89852 0.90532 0.43833-0.39326
  -6  -2   635111.99  833.34   1 0.00000-0.12133 0.88092 0.93026 0.47326-0.34625
  -6  -2   630599.73  934.96   1-0.80362-0.92753-0.28126-0.22977 0.52447-0.29476
  -6  -2   631859.08  970.71   1-0.10429-0.22812 0.86576 0.91568 0.48945-0.33087
  -6  -2   516370.34  561.94   1 0.00000-0.10771 0.85745 0.94980 0.51456-0.29372
  -6  -2   513751.91  639.74   1-0.79823-0.90844-0.35866-0.26413 0.48391-0.32396
  -6  -2   513890.38  610.66   1-0.18827-0.29842 0.82195 0.91499 0.53753-0.27154
   6   2  -516764.53  724.51   1-0.12396-0.01373-0.85643-0.95153-0.50115 0.30722
  -6  -2   4    3.88   69.31   1-0.78524-0.88176-0.44060-0.30301 0.43504-0.36149
  -6  -2   4  -24.92   83.32   1-0.27177-0.36853 0.76769 0.90385 0.58032-0.21731
   6   2  -4  -47.54  102.18   1-0.18626-0.08938-0.82313-0.96131-0.53643 0.26054
  -6  -2   3  188.43  141.51   1 0.00000-0.08048 0.80072 0.97909 0.59903-0.18681
  -6  -2   3  112.83  114.44   1-0.35107-0.43416 0.70527 0.88455 0.61589-0.17048
   6   2  -3  153.40   94.57   1-0.25334-0.16981-0.78063-0.96190-0.57133 0.21424
  -6  -2   2  133.63  144.69   1 0.00000-0.06686 0.76741 0.98879 0.64114-0.13347
  -6  -2   2   76.26   81.70   1-0.42354-0.49295 0.63763 0.86003 0.64344-0.13167
   6   2  -2  279.61  109.03   1-0.32398-0.25380-0.72787-0.95222-0.60434 0.16984
  -6  -2   1  259.47  155.55   1 0.00000-0.05325 0.73091 0.99529 0.68247-0.08092
  -6  -2   1  105.92   89.62   1-0.48748-0.54322 0.56801 0.83352 0.66311-0.10075
   6   2  -1  229.02  102.82   1-0.39642-0.33959-0.66424-0.93167-0.63374 0.12905
  -6  -2   0  248.98  135.32   1 0.00000-0.03963 0.69138 0.99877 0.72249-0.02968
  -6  -2   0  402.58  108.40   1-0.54239-0.58445 0.49915 0.80778 0.67576-0.07684
   6   2   0  413.65  110.87   1-0.46843-0.42496-0.58984-0.90035-0.65776 0.09363
  -6  -2  -1 5324.16  291.75   1 0.00000-0.02601 0.64906 0.99946 0.76073 0.01977
  -6  -2  -1 4780.16  370.39   1-0.58868-0.61706 0.43297 0.78471 0.68263-0.05871
   6   2   1 5388.94  343.78   1-0.53931-0.50990-0.50327-0.85780-0.67517 0.06457
  -6  -2  -2   70.14  119.15   1 0.00000-0.01240 0.60426 0.99767 0.79678 0.06705
  -6  -2  -2   40.96   74.41   1-0.62732-0.64202 0.37049 0.76535 0.68498-0.04510
   6   2   2  107.85   81.12   1-0.60285-0.58678-0.41092-0.80852-0.68389 0.04441
  -6  -2  -3 9291.25  517.74   1 0.00000 0.00121 0.55731 0.99373 0.83030 0.11179
  -6  -2  -3 8231.31  440.98   1-0.65946-0.66049 0.31204 0.75002 0.68391-0.03491
   6   2   3 9125.74  396.06   1-0.65880-0.65608-0.31330-0.75396-0.68396 0.03290
  -6  -2  -410341.15  440.93   1 0.00000 0.01482 0.50857 0.98800 0.86101 0.15372
  -6  -2  -410744.38  487.81   1-0.68621-0.67356 0.25752 0.73862 0.68028-0.02728
   6   2   410245.83  405.98   1-0.70573-0.71635-0.21336-0.69709-0.67558 0.02984
  -6  -2  -5  432.25  139.17   1 0.00000 0.02844 0.45841 0.98085 0.88873 0.19267
  -6  -2  -5  257.11  119.72   1-0.70885-0.68216 0.20589 0.73093 0.67464-0.01974
   6   2   5  369.35   82.53   1-0.74294-0.76691-0.11402-0.64081-0.65956 0.03443
  -6  -2  -6 6519.41  389.42   1-0.72747-0.68710 0.15830 0.72639 0.66761-0.01541
   6   2   6 6638.39  319.84   1-0.77055-0.80787-0.01774-0.58760-0.63712 0.04543
  -6  -2  -7   75.82  117.11   1 0.00000 0.06008 0.35398 0.96263 0.93525 0.26403
  -6  -2  -7  172.61   74.90   1-0.74314-0.68907 0.11344 0.72458 0.65944-0.01223
   6   2   7  124.47   81.08   1-0.78922-0.83988 0.07364-0.53927-0.60967 0.06144
  -6  -3   8  -34.44  105.75   1 0.00000-0.06848 0.90387 0.86935 0.42779-0.48941
  -6  -3   7 2019.68  184.39   1 0.00000-0.05487 0.88635 0.89484 0.46300-0.44298
  -6  -3   7 1690.10  356.91   1-0.07012-0.12768 0.88066 0.88955 0.46852-0.43861
  -6  -3   6  892.37  182.30   1 0.00000-0.04125 0.86621 0.91771 0.49967-0.39509
  -6  -3   6  931.67  145.89   1-0.13312-0.17700 0.85189 0.90391 0.50650-0.38937
   6   3  -6  765.42  150.46   1-0.11749-0.07374-0.85956-0.91441-0.49733 0.39799
  -6  -3   522026.09  728.67   1 0.00000-0.02763 0.84328 0.93779 0.53746-0.34608
  -6  -3   521159.83  873.83   1-0.19745-0.22765 0.81652 0.91165 0.54248-0.34213
   6   3  -524618.57  967.74   1-0.18048-0.15008-0.82646-0.92439-0.53327 0.35066
  -6  -3   4 5442.39  367.76   1 0.00000-0.01402 0.81746 0.95498 0.57598-0.29633
  -6  -3   4 4990.81  444.92   1-0.26168-0.27853 0.77484 0.91310 0.57543-0.29775
   6   3  -4 5580.64  402.07   1-0.24969-0.23264-0.78313-0.92414-0.56951 0.30302
  -6  -3   3   63.04  142.72   1 0.00000-0.00040 0.78867 0.96919 0.61481-0.24628
  -6  -3   3   13.71  110.00   1-0.32410-0.32726 0.72778 0.90915 0.60439-0.25754
   6   3  -3  -40.23  103.31   1-0.32420-0.32050-0.72770-0.91179-0.60443 0.25671
  -6  -3   2   11.76  120.40   1 0.00000 0.01320 0.75690 0.98044 0.65352-0.19635
  -6  -3   2  -14.75   74.63   1-0.38338-0.37287 0.67647 0.90096 0.62880-0.22186
   6   3  -2   96.76   99.47   1-0.40236-0.41202-0.65855-0.88572-0.63593 0.21382
  -6  -3   1  434.87  136.34   1 0.00000 0.02682 0.72222 0.98877 0.69165-0.14700
  -6  -3   1  254.50  130.23   1-0.43848-0.41429 0.62227 0.88988 0.64846-0.19095
   6   3  -1  294.87  101.44   1-0.48173-0.50474-0.57471-0.84496-0.66154 0.17681
  -6  -3   0  200.59  131.71   1 0.00000 0.04044 0.68474 0.99430 0.72878-0.09865
  -6  -3   0  181.86   93.17   1-0.48875-0.45089 0.56652 0.87725 0.66345-0.16470
   6   3   0  152.55   85.59   1-0.56137-0.59850-0.47301-0.78739-0.67904 0.14763
  -6  -3  -1  382.83  125.05   1 0.00000 0.05405 0.64463 0.99719 0.76449-0.05171
  -6  -3  -1  280.23  120.59   1-0.53392-0.48238 0.51039 0.86423 0.67410-0.14279
  -6  -3  -2 7148.67  425.42   1 0.00000 0.06767 0.60211 0.99768 0.79840-0.00657
  -6  -3  -2 6709.54  375.73   1-0.57404-0.50883 0.45481 0.85177 0.68088-0.12475
  -6  -3  -3   10.53  112.72   1 0.00000 0.08129 0.55744 0.99602 0.83021 0.03644
  -6  -3  -3  -20.76   93.70   1-0.60938-0.53048 0.40044 0.84051 0.68432-0.11005
  -6  -3  -4   13.05   93.02   1-0.64031-0.54774 0.34766 0.83086 0.68492-0.09819
   7  -7  -6  318.73  127.22   1-0.36525 0.51067-0.69288-0.77026-0.62168-0.38196
   7  -7  -5 9870.46  532.46   1-0.59005 0.27331 0.43088 0.30599 0.68277 0.91195
   7  -7  -511115.43  439.54   1-0.39521 0.46736-0.66539-0.78585-0.63328-0.40496
   7  -7  -430481.16 1035.55   1-0.54477 0.30492 0.49594 0.32794 0.67620 0.89413
   7  -7  -432824.06  999.18   1-0.42584 0.42337-0.63530-0.79884-0.64423-0.42731
   7  -7  -331982.88 1117.98   1-0.49252 0.34349 0.56207 0.35095 0.66444 0.87111
   7  -7  -332782.62  710.78   1-0.45683 0.37903-0.60266-0.80928-0.65428-0.44875
   7  -7  -2 4724.74  346.48   1-0.43333 0.38900 0.62762 0.37339 0.64676 0.84217
   7  -7  -2 4790.98  279.09   1-0.48785 0.33467-0.56758-0.81729-0.66320-0.46907
   7  -7  -1 6417.47  484.84   1-0.36783 0.44082 0.69059 0.39323 0.62271 0.80686
   7  -7  -1 6904.65  385.91   1-0.51854 0.29062-0.53021-0.82300-0.67080-0.48806
   7  -7   0  -47.67   98.05   1-0.29734 0.49764 0.74879 0.40832 0.59236 0.76525
   7  -7   0    2.81  114.05   1-0.54862 0.24687-0.49071-0.82696-0.67690-0.50515
   7  -7   1   40.98  112.94   1-0.22373 0.55757 0.80026 0.41668 0.55633 0.71796
   7  -7   1   39.57  127.45   1-0.57775 0.20440-0.44937-0.82868-0.68136-0.52105
   7  -7   2  419.78  146.68   1-0.14940 0.61809 0.84352 0.41679 0.51588 0.66651
   7  -7   2  379.52  143.29   1-0.60566 0.16314-0.40643-0.82881-0.68409-0.53521
   7  -7   317519.00  701.02   1-0.07620 0.67761 0.87813 0.40827 0.47231 0.61167
   7  -7   317701.51  523.97   1-0.63212 0.12333-0.36217-0.82761-0.68501-0.54757
   7  -7   4 6558.36  331.95   1-0.65694 0.08517-0.31687-0.82538-0.68411-0.55811
   7  -7   5   54.71  130.40   1-0.67997 0.04879-0.27081-0.82238-0.68139-0.56683
   7  -6  -9  968.60  154.13   1-0.21472 0.62143-0.80596-0.75693-0.55164-0.20218
   7  -6  -813013.02  596.28   1-0.75126 0.07230 0.08785 0.08975 0.65412 0.99333
   7  -6  -813745.29  572.67   1-0.24262 0.58017-0.78790-0.78195-0.56598-0.22791
   7  -6  -7 9529.70  522.79   1-0.73421 0.07566 0.13963 0.09848 0.66439 0.99225
   7  -6  -7 9920.27  507.34   1-0.27236 0.53708-0.76727-0.80439-0.58061-0.25393
   7  -6  -6 7308.89  461.44   1-0.71232 0.08386 0.19741 0.11321 0.67351 0.99002
   7  -6  -6 7154.95  396.66   1-0.30371 0.49238-0.74390-0.82410-0.59528-0.28000
   7  -6  -5 4197.87  351.70   1-0.68336 0.10008 0.26363 0.13664 0.68081 0.98555
   7  -6  -5 4812.03  353.11   1-0.33640 0.44634-0.71768-0.84097-0.60971-0.30583
   7  -6  -4   37.35   94.02   1-0.64623 0.12354 0.33692 0.16682 0.68473 0.97821
   7  -6  -4   16.58  108.67   1-0.37009 0.39929-0.68856-0.85493-0.62361-0.33112
  -7   6   3  221.44   94.89   1 0.00000-0.75370-0.74317-0.53665 0.66909 0.37937
  -7   6   3  402.95  107.51   1 0.00000-0.75304-0.38888-0.17496 0.92128 0.63427
   7  -6  -3  182.54  100.31   1-0.59775 0.15834 0.41896 0.20574 0.68348 0.96570
   7  -6  -3   99.27  122.62   1-0.40445 0.35159-0.65653-0.86598-0.63669-0.35559
  -7   6   2 7768.56  510.71   1 0.00000-0.73936-0.32574-0.06891 0.94545 0.66976
   7  -6  -2 8718.53  473.28   1-0.53559 0.20683 0.50820 0.25187 0.67443 0.94540
   7  -6  -2 9660.08  440.57   1-0.43907 0.30362-0.62165-0.87418-0.64865-0.37895
  -7   6   1  292.21   85.81   1 0.00000-0.72571-0.30498-0.00523 0.95235 0.68797
   7  -6  -1  994.56  185.90   1 0.00000 0.72648 0.98134 0.68372-0.19224 0.06887
   7  -6  -1  911.14  189.08   1-0.79600-0.06826-0.37703-0.67649 0.47352 0.73328
   7  -6  -1 1100.96  176.29   1-0.45877 0.26997 0.60054 0.30109 0.65487 0.91457
   7  -6  -1  951.50  163.01   1-0.47356 0.25577-0.58406-0.87967-0.65924-0.40093
  -7   6   0 2364.79  274.82   1 0.00000-0.71207-0.30012 0.04253 0.95389 0.70081
   7  -6   0 2789.93  286.91   1 0.00000 0.71287 0.99994 0.65928-0.01081 0.23904
   7  -6   0 2757.54  307.61   1-0.80323-0.08917-0.29259-0.63510 0.51885 0.76726
   7  -6   0 3110.39  373.36   1-0.36882 0.34624 0.68971 0.34714 0.62311 0.87155
   7  -6   0 3345.00  234.85   1-0.50753 0.20844-0.54393-0.88263-0.66823-0.42131
  -7   6  -112655.96  518.10   1 0.00000-0.69842-0.30371 0.08186 0.95276 0.71098
   7  -6   113951.34  679.35   1 0.00000 0.69927 0.99018 0.60650 0.13977 0.37838
   7  -6   113000.91  577.87   1-0.80348-0.10311-0.21687-0.60243 0.55442 0.79148
   7  -6   114002.58  637.42   1-0.26990 0.43149 0.76903 0.38335 0.57942 0.81661
   7  -6   114202.57  561.56   1-0.54078 0.16148-0.50131-0.88353-0.67545-0.43964
  -7   6  -213280.97  500.37   1 0.00000-0.68478-0.31247 0.11602 0.94992 0.71944
   7  -6   2 9891.92  556.55   1 0.00000 0.68566 0.96484 0.53813 0.26280 0.49017
   7  -6   2 9698.43  572.97   1-0.79914-0.11247-0.14995-0.57856 0.58213 0.80784
   7  -6   211231.93  706.09   1-0.16802 0.51953 0.83348 0.40464 0.52638 0.75255
   7  -6   211704.68  420.32   1-0.57262 0.11629-0.45689-0.88218-0.68069-0.45632
  -7   6  -3 2502.08  356.82   1 0.00000-0.67114-0.32465 0.14675 0.94583 0.72665
   7  -6   3 2120.73  347.95   1 0.00000 0.67205 0.93204 0.46230 0.36233 0.57845
   7  -6   3 2019.77  347.59   1-0.79191-0.11892-0.09083-0.56249 0.60384 0.81819
   7  -6   3 2178.84  393.02   1-0.06817 0.60569 0.88146 0.40951 0.46730 0.68222
   7  -6   3 2357.30  328.84   1-0.60292 0.07264-0.41080-0.87915-0.68389-0.47096
  -7   6  -4 4201.90  292.13   1 0.00000-0.65750-0.33923 0.17509 0.94070 0.73282
   7  -6   4 2871.64  365.57   1 0.00000 0.65909 0.89779 0.38513 0.44040 0.64596
   7  -6   4 3083.65  226.38   1-0.63143 0.03079-0.36338-0.87479-0.68501-0.48351
  -7   6  -5 1840.22  259.13   1 0.00000-0.64385-0.35555 0.20168 0.93465 0.73808
   7  -6   5  808.27  219.54   1 0.00000 0.64547 0.86324 0.30757 0.50478 0.69911
   7  -6   5 1403.82  226.72   1-0.65795-0.00906-0.31495-0.86942-0.68403-0.49397
  -7   6  -6 2024.45  324.13   1 0.00000-0.63407-0.37182 0.22180 0.92830 0.74078
   7  -6   6 2547.66  403.73   1 0.00000 0.63186 0.83094 0.23226 0.55635 0.73946
   7  -6   6 3419.25  436.50   1-0.68232-0.04679-0.26584-0.86338-0.68099-0.50237
  -7   6  -7 3073.24  266.02   1 0.00000-0.62078-0.39062 0.24601 0.92054 0.74437
   7  -6   7 2004.43  284.53   1 0.00000 0.61824 0.80177 0.16008 0.59762 0.76950
   7  -6   7 2908.96  195.36   1-0.70446-0.08227-0.21635-0.85696-0.67595-0.50876
   7  -5 -11   -5.89  110.55   1-0.10443 0.67858-0.86570-0.73333-0.48954-0.04172
   7  -5 -10   17.43  123.27   1-0.12887 0.64079-0.85401-0.76472-0.50402-0.06760
  -7   5   9 4223.78  295.79   1 0.00000-0.75603 0.56207 0.51778 0.82708 0.40039
   7  -5  -9 4515.77  339.78   1-0.80298-0.04556-0.20430-0.16161 0.55988 0.98580
   7  -5  -9 5203.26  355.04   1-0.15573 0.60058-0.84017-0.79396-0.51948-0.09445
  -7   5   811741.62  577.22   1 0.00000-0.74241 0.49387 0.49258 0.86953 0.45405
   7  -5  -810528.03  570.67   1-0.80238-0.05864-0.19251-0.19288 0.56490 0.97946
   7  -5  -811385.27  641.22   1-0.18492 0.55804-0.82390-0.82078-0.53570-0.12206
  -7   5   7 3464.47  341.18   1 0.00000-0.72610-0.60635-0.56939 0.79519 0.38544
  -7   5   7 3727.40  255.83   1 0.00000-0.72880 0.42515 0.46688 0.90512 0.50086
   7  -5  -7 3061.38  288.40   1-0.80206-0.07200-0.18703-0.23045 0.56720 0.97041
   7  -5  -7 3334.64  268.12   1-0.21628 0.51333-0.80498-0.84494-0.55246-0.15022
  -7   5   6  852.59  165.64   1 0.00000-0.71281-0.71224-0.63226 0.70193 0.30353
  -7   5   6  622.39  180.10   1 0.00000-0.71343 0.36465 0.45185 0.93114 0.53557
   7  -5  -6 1468.95  188.85   1-0.80253-0.08616-0.19527-0.28174 0.56373 0.95561
   7  -5  -6 1735.92  212.18   1-0.24962 0.46664-0.78318-0.86621-0.56948-0.17863
  -7   5   5 1799.16  222.08   1 0.00000-0.69953-0.80868-0.68569 0.58823 0.20119
  -7   5   5 1303.79  184.51   1 0.00000-0.69979 0.30152 0.43164 0.95345 0.56918
   7  -5  -5 2190.66  309.88   1-0.80404-0.10117-0.25837-0.38793 0.53549 0.91611
   7  -5  -5 2064.24  219.56   1-0.28465 0.41825-0.75831-0.88442-0.58646-0.20700
  -7   5   4 4157.75  360.66   1 0.00000-0.68624-0.88863-0.72262 0.45861 0.08292
  -7   5   4 4230.70  393.89   1 0.00000-0.68615 0.24231 0.41534 0.97019 0.59723
   7  -5  -4 5047.50  336.29   1-0.32105 0.36850-0.73023-0.89943-0.60305-0.23499
  -7   5   331265.40 1202.33   1 0.00000-0.67250 0.18718 0.40313 0.98232 0.62066
   7  -5  -333590.75 1379.62   1 0.00000 0.67368 0.95105 0.73733-0.30901 0.04986
   7  -5  -336999.14 1208.93   1-0.35843 0.31777-0.69889-0.91117-0.61892-0.26226
  -7   5   2 2135.72  204.01   1 0.00000-0.65886 0.13589 0.39476 0.99072 0.64036
   7  -5  -2  598.45  134.36   1 0.00000 0.66007 0.98593 0.72918-0.16712 0.18051
   7  -5  -2  639.43  127.83   1-0.39636 0.26649-0.66430-0.91966-0.63371-0.28845
  -7   5   1 7262.68  406.45   1 0.00000-0.64522 0.08805 0.38982 0.99611 0.65705
   7  -5  -1 7061.54  469.18   1 0.00000 0.64646 0.99947 0.69970-0.03226 0.30412
   7  -5  -1 8034.55  394.76   1-0.43437 0.21512-0.62654-0.92498-0.64710-0.31323
  -7   5   0 3743.73  237.55   1 0.00000-0.63157 0.04318 0.38788 0.99906 0.67130
   7  -5   0 2755.88  289.17   1 0.00000 0.63286 0.99587 0.65306 0.09078 0.41591
   7  -5   0 3109.58  264.63   1-0.47202 0.16413-0.58581-0.92733-0.65880-0.33632
  -7   5  -1  528.52  121.19   1 0.00000-0.61793 0.00087 0.38848 1.00000 0.68354
   7  -5   1  198.47  104.43   1 0.00000 0.61925 0.97988 0.59405 0.19955 0.51343
   7  -5   1  191.25  136.64   1-0.50616 0.11545 0.54562 0.15774 0.66790 0.98070
   7  -5   1   99.59  103.95   1-0.50883 0.11397-0.54234-0.92694-0.66854-0.35745
  -7   5  -2 4116.79  296.91   1 0.00000-0.60429-0.03926 0.39126 0.99922 0.69407
   7  -5   2 4666.06  395.96   1 0.00000 0.60565 0.95596 0.52710 0.29346 0.59610
   7  -5   2 4215.49  355.19   1-0.68606-0.07825 0.25784-0.17306 0.68031 0.98179
   7  -5   2 4343.78  456.23   1-0.28488 0.32293 0.75814 0.32723 0.58656 0.88805
   7  -5   2 4743.03  290.98   1-0.54469 0.06434-0.49605-0.92425-0.67619-0.37632
  -7   5  -3 4820.46  324.95   1 0.00000-0.59065-0.07755 0.39589 0.99698 0.70313
   7  -5   3 8241.56  583.49   1 0.00000 0.59204 0.92775 0.45586 0.37319 0.66458
   7  -5   3 8045.16  506.46   1-0.68987-0.09573 0.24957-0.22444 0.67955 0.96977
   7  -5   3 8406.26  632.30   1-0.10795 0.48598 0.86407 0.39003 0.49164 0.78211
   7  -5   3 7803.45  479.55   1-0.57861 0.01707-0.44810-0.91935-0.68147-0.39304
  -7   5  -410077.12  380.72   1 0.00000-0.57700-0.11426 0.40209 0.99345 0.71090
   7  -5   4 9182.21  565.56   1 0.00000 0.57901 0.89875 0.38392 0.43845 0.71926
   7  -5   4 9010.79  556.32   1-0.68752-0.10707 0.25469-0.26244 0.68002 0.95898
   7  -5   4 8805.52  366.87   1-0.61058-0.02823-0.39849-0.91281-0.68439-0.40740
  -7   5  -5 4287.59  258.99   1 0.00000-0.56336-0.14961 0.40965 0.98874 0.71749
   7  -5   5 2765.92  266.98   1 0.00000 0.56540 0.86938 0.31155 0.49412 0.76371
   7  -5   5 3327.44  320.59   1-0.68228-0.11551 0.26593-0.29431 0.68100 0.94870
   7  -5   5 3571.78  270.29   1-0.64034-0.07134-0.34762-0.90500-0.68492-0.41937
  -7   5  -6  162.92   84.11   1 0.00000-0.54972-0.18380 0.41839 0.98296 0.72301
   7  -5   6   84.20  129.33   1 0.00000 0.55178 0.84158 0.24074 0.54012 0.79848
   7  -5   6  309.03  105.49   1-0.66770-0.11205-0.29589-0.89633-0.68309-0.42897
  -7   5  -7 1181.31  184.99   1 0.00000-0.53608-0.21696 0.42814 0.97618 0.72753
   7  -5   7  940.83  210.81   1 0.00000 0.53816 0.81609 0.17224 0.57791 0.82504
   7  -5   7 1764.44  251.89   1-0.69254-0.15024-0.24366-0.88717-0.67897-0.43629
  -7   5  -8 1224.06  139.27   1 0.00000-0.52244-0.24922 0.43880 0.96844 0.73110
   7  -5   8 1819.29  188.64   1-0.71479-0.18584-0.19126-0.87784-0.67266-0.44142
  -7   5  -9  574.51  123.71   1 0.00000-0.50879-0.28069 0.45025 0.95979 0.73375
   7  -5   9  976.30  151.89   1-0.73443-0.21882-0.13901-0.86864-0.66428-0.44448
  -7   4  12   25.50   93.03   1 0.00000-0.71679 0.86740 0.69624 0.49761-0.03800
  -7   4  11  138.76  117.24   1 0.00000-0.70318 0.83887 0.71072 0.54431 0.01992
  -7   4  10  522.00  135.78   1 0.00000-0.68526-0.57383-0.66339 0.81896 0.30052
  -7   4  10  985.28  183.38   1 0.00000-0.68956 0.80490 0.71976 0.59340 0.08023
  -7   4   9 3329.14  282.37   1 0.00000-0.67198-0.64931-0.69585 0.76052 0.25343
  -7   4   9 3814.20  276.02   1 0.00000-0.67595 0.76532 0.72319 0.64363 0.14169
   7  -4  -9 3928.56  278.69   1-0.10630 0.57018-0.86483-0.82145-0.49066 0.00993
  -7   4   811473.05  438.16   1 0.00000-0.65869-0.72319-0.72672 0.69063 0.19490
  -7   4   811928.90  526.84   1 0.00000-0.66233 0.72033 0.72120 0.69362 0.20290
   7  -4  -812398.40  515.63   1-0.13652 0.52661-0.85018-0.84988-0.50847-0.01927
  -7   4   7  202.41   87.21   1 0.00000-0.64541-0.79306-0.75357 0.60913 0.12475
  -7   4   7  355.42  117.34   1 0.00000-0.64871 0.67045 0.71434 0.74194 0.26244
   7  -4  -7  493.78  143.08   1-0.16924 0.48054-0.83280-0.87558-0.52706-0.04925
  -7   4   6 2896.76  264.95   1 0.00000-0.63212-0.85613-0.77363 0.51675 0.04372
  -7   4   6 3980.62  323.16   1 0.00000-0.63510 0.61658 0.70347 0.78729 0.31901
   7  -4  -6 4090.88  296.97   1-0.20428 0.43215-0.81240-0.89827-0.54613-0.07972
  -7   4   5 3042.86  260.90   1 0.00000-0.62148 0.55980 0.68970 0.82862 0.37157
   7  -4  -5 2897.71  319.83   1 0.00000 0.62078 0.91230 0.78255-0.40950 0.04722
   7  -4  -5 3106.17  229.21   1-0.24138 0.38169-0.78873-0.91767-0.56535-0.11034
  -7   4   4   34.03   87.30   1 0.00000-0.60786 0.50130 0.67421 0.86527 0.41943
   7  -4  -4   81.91   91.91   1 0.00000 0.60727 0.95392 0.78108-0.30004 0.14535
   7  -4  -4  109.56  107.22   1-0.28021 0.32951-0.76157-0.93360-0.58436-0.14073
  -7   4   3 6302.60  343.94   1 0.00000-0.59425 0.44221 0.65814 0.89690 0.46229
   7  -4  -3 5970.68  467.93   1 0.00000 0.59366 0.98210 0.76623-0.18831 0.24584
   7  -4  -3 5841.03  310.99   1-0.32035 0.27602-0.73079-0.94590-0.60274-0.17051
  -7   4   2  955.35  218.83   1 0.00000-0.57837 0.38547 0.64637 0.92271 0.49767
   7  -4  -2 1355.70  179.84   1 0.00000 0.58006 0.99693 0.73803-0.07819 0.34471
   7  -4  -2 1408.90  163.44   1-0.36133 0.22168-0.69635-0.95454-0.62010-0.19926
  -7   4   1  -17.48   98.28   1 0.00000-0.56472 0.32799 0.63180 0.94467 0.53094
   7  -4  -1   89.31   85.05   1 0.00000 0.56645 0.99963 0.69771 0.02689 0.43854
   7  -4  -1 -103.67  114.02   1-0.40263 0.16703-0.65829-0.95955-0.63603-0.22659
  -7   4   0   15.64   99.36   1 0.00000-0.55108 0.27203 0.61876 0.96228 0.55985
   7  -4   0   79.11  113.55   1 0.00000 0.55285 0.99223 0.64728 0.12435 0.52476
   7  -4   0   18.94   83.63   1-0.44371 0.11261-0.61677-0.96112-0.65016-0.25211
  -7   4  -1 9580.52  412.75   1 0.00000-0.53744 0.21790 0.60755 0.97596 0.58483
   7  -4   111182.09  513.08   1 0.00000 0.53924 0.97714 0.58915 0.21259 0.60175
   7  -4   111493.63  437.05   1-0.48402 0.05894-0.57205-0.95948-0.66217-0.27552
  -7   4  -226431.29  961.37   1 0.00000-0.52380 0.16575 0.59832 0.98616 0.60633
   7  -4   222087.90 1048.95   1 0.00000 0.52564 0.95675 0.52574 0.29089 0.66880
   7  -4   224106.77  890.62   1-0.52351 0.00563-0.52390-0.95500-0.67190-0.29654
  -7   4  -3  584.71  121.16   1 0.00000-0.51016 0.11562 0.59110 0.99329 0.62476
   7  -4   3  363.80  163.52   1 0.00000 0.51203 0.93323 0.45919 0.35925 0.72591
   7  -4   3  708.36  146.24   1-0.56078-0.04498-0.47385-0.94801-0.67895-0.31503
  -7   4  -4 2335.73  246.74   1 0.00000-0.49651 0.06746 0.58586 0.99772 0.64049
   7  -4   4 1184.58  172.95   1 0.00000 0.49893 0.90896 0.39198 0.41686 0.77292
   7  -4   4 1359.87  237.72   1-0.35796 0.14259 0.69930 0.18002 0.61873 0.97327
   7  -4   4 2036.16  206.18   1-0.59592-0.09347-0.42181-0.93904-0.68333-0.33084
  -7   4  -5  109.14  110.78   1 0.00000-0.48287 0.02119 0.58250 0.99977 0.65385
   7  -4   5   67.82  118.61   1 0.00000 0.48532 0.88415 0.32416 0.46718 0.81202
   7  -4   5   -1.95   79.35   1-0.46193 0.02492 0.59707 0.03471 0.65583 0.99908
   7  -4   5  148.22   69.31   1-0.62861-0.13950-0.36827-0.92856-0.68499-0.34394
  -7   4  -6  482.50  121.09   1 0.00000-0.46923-0.02331 0.58091 0.99972 0.66510
   7  -4   6  483.57  112.84   1 0.00000 0.47170 0.86031 0.25731 0.50976 0.84337
   7  -4   6  582.60  152.76   1-0.49972-0.02654 0.55345-0.05201 0.66630 0.99829
   7  -4   6  554.25  124.38   1-0.65860-0.18284-0.31370-0.91705-0.68398-0.35437
  -7   4  -7 3379.77  269.36   1 0.00000-0.45559-0.06619 0.58095 0.99780 0.67448
   7  -4   7 2782.12  449.90   1 0.00000 0.45808 0.83810 0.19209 0.54551 0.86790
   7  -4   7 3311.08  212.46   1-0.68575-0.22333-0.25853-0.90495-0.68037-0.36219
  -7   4  -8 7126.01  375.48   1 0.00000-0.44194-0.10755 0.58250 0.99419 0.68217
   7  -4   8 6630.20  355.15   1-0.70997-0.26089-0.20317-0.89265-0.67428-0.36754
  -7   4  -9  944.49  135.48   1 0.00000-0.42830-0.14753 0.58544 0.98905 0.68833
   7  -4   9  999.49  127.54   1-0.73124-0.29551-0.14799-0.88053-0.66587-0.37057
  -7   3  12 3434.81  299.58   1 0.00000-0.63115-0.57590-0.74896 0.81751 0.20173
  -7   3  12 5304.76  371.68   1 0.00000-0.63672 0.91294 0.74395 0.40807-0.20279
  -7   3  11 1115.53  211.15   1 0.00000-0.61786-0.63872-0.76877 0.76943 0.16500
  -7   3  11 1887.00  298.42   1 0.00000-0.62310 0.89349 0.76750 0.44906-0.15057
  -7   3  10 1624.88  241.48   1 0.00000-0.60458-0.70030-0.78733 0.71384 0.12076
  -7   3  10 1864.62  282.99   1 0.00000-0.60948 0.87001 0.78703 0.49302-0.09539
  -7   3   9 5857.83  334.77   1 0.00000-0.59129-0.75949-0.80351 0.65051 0.06878
  -7   3   9 7993.19  413.19   1 0.00000-0.59587 0.84215 0.80218 0.53923-0.03796
  -7   3   8   38.94   58.10   1 0.00000-0.57801-0.81497-0.81597 0.57949 0.00912
  -7   3   8  150.06  138.49   1 0.00000-0.58225 0.80970 0.81273 0.58684 0.02086
   7  -3  -8  284.91  163.85   1-0.09838 0.48492-0.86846-0.87099-0.48589 0.07887
  -7   3   7 2595.65  252.78   1 0.00000-0.56472-0.86526-0.82325 0.50131-0.05770
  -7   3   7 2674.65  210.60   1 0.00000-0.56863 0.77263 0.81867 0.63485 0.08010
   7  -3  -7 2974.10  254.66   1-0.13232 0.43762-0.85229-0.89790-0.50603 0.04733
  -7   3   6  791.73  161.09   1 0.00000-0.55502 0.73113 0.82019 0.68223 0.13870
   7  -3  -6  651.99  126.97   1 0.00000 0.55437 0.91085 0.82196-0.41272 0.13052
   7  -3  -6  625.12  174.76   1-0.16892 0.38767-0.83297-0.92167-0.52688 0.01509
  -7   3   517065.28  581.27   1 0.00000-0.54140 0.68561 0.81767 0.72796 0.19565
   7  -3  -515604.48  607.16   1 0.00000 0.54086 0.94657 0.81461-0.32247 0.20945
   7  -3  -518841.72  656.19   1-0.20793 0.33531-0.81017-0.94194-0.54807-0.01748
  -7   3   4 3303.12  223.52   1 0.00000-0.52779 0.63665 0.81173 0.77114 0.25005
   7  -3  -4 3189.82  275.23   1 0.00000 0.52726 0.97328 0.79829-0.22960 0.29107
   7  -3  -4 2846.12  279.04   1-0.24902 0.28087-0.78358-0.95844-0.56918-0.04999
  -7   3   3  436.77  111.54   1 0.00000-0.51417 0.58498 0.80306 0.81104 0.30117
   7  -3  -3  612.25  174.00   1 0.00000 0.51365 0.99066 0.77263-0.13635 0.37307
   7  -3  -3  557.73  134.29   1-0.29175 0.22479-0.75301-0.97095-0.58978-0.08198
  -7   3   2  686.23  173.02   1 0.00000-0.50055 0.53136 0.79245 0.84714 0.34849
   7  -3  -2  674.10  139.79   1 0.00000 0.50005 0.99898 0.73793-0.04497 0.45320
   7  -3  -2 1019.91  138.89   1-0.33561 0.16758-0.71834-0.97936-0.60937-0.11297
  -7   3   1 1011.26  123.78   1 0.00000-0.48694 0.47657 0.78067 0.87913 0.39171
   7  -3  -1  924.93  154.40   1 0.00000 0.48644 0.99909 0.69501 0.04252 0.52945
   7  -3  -1  680.96  136.15   1-0.38000 0.10983-0.67958-0.98368-0.62750-0.14249
  -7   3   0 2518.94  231.46   1 0.00000-0.47332 0.42129 0.76839 0.90692 0.43072
   7  -3   0 2446.46  261.87   1 0.00000 0.47284 0.99221 0.64510 0.12453 0.60021
   7  -3   0 2292.52  223.95   1-0.42430 0.05218-0.63686-0.98404-0.64371-0.17009
  -7   3  -1 5044.72  422.12   1 0.00000-0.45695 0.36692 0.75861 0.93024 0.46443
   7  -3   1 5980.56  371.01   1 0.00000 0.45923 0.97980 0.58967 0.19993 0.66437
   7  -3   1 6761.84  316.53   1-0.46789-0.00475-0.59045-0.98071-0.65760-0.19538
  -7   3  -2 4771.58  429.28   1 0.00000-0.44331 0.31240 0.74700 0.94994 0.49544
   7  -3   2 6322.56  371.00   1 0.00000 0.44562 0.96338 0.53022 0.26811 0.72130
   7  -3   2 6787.81  315.16   1-0.51013-0.06034-0.54073-0.97407-0.66885-0.21803
  -7   3  -3   88.60  110.62   1 0.00000-0.42966 0.25878 0.73630 0.96593 0.52272
   7  -3   3  119.97  127.00   1 0.00000 0.43202 0.94436 0.46817 0.32888 0.77082
   7  -3   3  109.21  102.50   1-0.55107-0.11516-0.48736-0.96443-0.67734-0.23792
  -7   3  -4 1086.68  208.14   1 0.00000-0.41602 0.20632 0.72675 0.97848 0.54658
   7  -3   4  728.30  147.87   1 0.00000 0.41885 0.92446 0.40532 0.38126 0.81256
   7  -3   4 1041.26  167.98   1-0.58902-0.16645-0.43245-0.95259-0.68266-0.25468
  -7   3  -5 2282.32  282.47   1 0.00000-0.40238 0.15517 0.71852 0.98788 0.56728
   7  -3   5 1675.50  241.75   1 0.00000 0.40524 0.90384 0.34169 0.42786 0.84795
   7  -3   5 2058.45  296.64   1-0.06390 0.34279 0.88319 0.31867 0.46463 0.88370
   7  -3   5 2039.15  199.82   1-0.62420-0.21498-0.37581-0.93901-0.68492-0.26838
  -7   3  -6 1852.68  207.41   1 0.00000-0.38874 0.10543 0.71169 0.99442 0.58512
   7  -3   6 1211.10  233.29   1 0.00000 0.39162 0.88367 0.27851 0.46809 0.87695
   7  -3   6 1740.00  260.00   1-0.23576 0.15749 0.79246 0.18488 0.56251 0.97005
   7  -3   6 1810.11  182.17   1-0.65634-0.26047-0.31801-0.92427-0.68415-0.27905
  -7   3  -7 1907.98  288.37   1 0.00000-0.37509 0.05712 0.70629 0.99836 0.60036
   7  -3   7 2751.34  371.31   1-0.68526-0.30273-0.25957-0.90890-0.68046-0.28679
  -7   3  -8 1667.17  263.79   1 0.00000-0.36145 0.01023 0.70233 0.99994 0.61325
   7  -3   8 2114.24  292.02   1-0.71086-0.34168-0.20099-0.89337-0.67399-0.29176
  -7   3  -9 1034.82  170.26   1 0.00000-0.34781-0.03524 0.69976 0.99937 0.62398
   7  -3   9 2100.24  182.87   1-0.73314-0.37730-0.14268-0.87813-0.66494-0.29414
  -7   3 -10  129.81   96.46   1 0.00000-0.33417-0.07938 0.69853 0.99684 0.63275
  -7   2  12   40.52   81.17   1 0.00000-0.55046-0.66224-0.83277 0.74929 0.05887
  -7   2  12   -8.66  116.94   1 0.00000-0.55609 0.93231 0.76523 0.36164-0.32430
  -7   2  11  115.49   93.17   1 0.00000-0.53718-0.71572-0.84324 0.69838 0.01931
  -7   2  11  347.71  115.67   1 0.00000-0.54302 0.91693 0.79310 0.39902-0.27586
  -7   2  10   87.11   96.31   1 0.00000-0.52389-0.76687-0.85138 0.64179-0.02592
  -7   2  10   53.82  146.65   1 0.00000-0.52940 0.89874 0.81792 0.43846-0.22520
  -7   2   9 8521.19  371.21   1 0.00000-0.51060-0.81488-0.85638 0.57962-0.07673
  -7   2   910805.00  455.79   1 0.00000-0.51579 0.87706 0.83925 0.48037-0.17207
  -7   2   8   84.67   89.45   1 0.00000-0.49732-0.85885-0.85734 0.51221-0.13279
  -7   2   8   22.30   91.41   1 0.00000-0.50217 0.85161 0.85680 0.52417-0.11705
  -7   2   7  194.60   89.96   1 0.00000-0.48403-0.89791-0.85338 0.44016-0.19349
  -7   2   7  364.41  124.68   1 0.00000-0.48855 0.82220 0.87040 0.56919-0.06081
   7  -2  -7  468.12  122.89   1-0.10659 0.38352-0.86470-0.91314-0.49083 0.13810
  -7   2   6 1998.25  204.87   1 0.00000-0.47494 0.78879 0.88000 0.61466-0.00412
   7  -2  -6 1933.38  239.87   1 0.00000 0.47446 0.93273 0.84165-0.36055 0.25789
   7  -2  -6 2478.12  227.83   1-0.14474 0.33202-0.84596-0.93748-0.51321 0.10432
  -7   2   5  744.79  149.39   1 0.00000-0.46132 0.75146 0.88569 0.65976 0.05220
   7  -2  -5  486.70  123.38   1 0.00000 0.46085 0.95960 0.82548-0.28134 0.32585
   7  -2  -5  420.90  115.15   1-0.18564 0.27777-0.82348-0.95808-0.53609 0.07005
  -7   2   4  996.55  145.54   1 0.00000-0.44771 0.71047 0.88770 0.70372 0.10738
   7  -2  -4  957.81  144.46   1 0.00000 0.44725 0.97960 0.80245-0.20094 0.39500
   7  -2  -4 1066.12  139.53   1-0.22895 0.22111-0.79691-0.97459-0.55902 0.03572
  -7   2   3 6143.19  351.46   1 0.00000-0.43409 0.66618 0.88642 0.74578 0.16067
   7  -2  -3 5980.64  446.37   1 0.00000 0.43364 0.99267 0.77250-0.12081 0.46388
   7  -2  -3 5979.27  391.27   1-0.27420 0.16250-0.76594-0.98670-0.58149 0.00186
  -7   2   2 2530.70  220.57   1 0.00000-0.42047 0.61907 0.88232 0.78533 0.21144
   7  -2  -2 2610.38  232.04   1 0.00000 0.42003 0.99910 0.73589-0.04239 0.53105
   7  -2  -2 2740.99  204.88   1-0.32084 0.10251-0.73040-0.99424-0.60296-0.03099
  -7   2   1  379.50  119.16   1 0.00000-0.40686 0.56968 0.87594 0.82186 0.25918
   7  -2  -1  299.42  151.67   1 0.00000 0.40643 0.99945 0.69322 0.03298 0.59518
   7  -2  -1  465.67  119.91   1-0.36821 0.04179-0.69025-0.99718-0.62286-0.06229
  -7   2   0 2520.37  198.16   1 0.00000-0.39324 0.51860 0.86787 0.85501 0.30356
   7  -2   0 2467.68  290.24   1 0.00000 0.39282 0.99455 0.64529 0.10424 0.65519
   7  -2   0 2677.52  231.16   1-0.41558-0.01892-0.64561-0.99562-0.64067-0.09149
  -7   2  -1   17.48   89.81   1 0.00000-0.37963 0.46638 0.85866 0.88458 0.34435
   7  -2   1  -39.67  114.93   1 0.00000 0.37922 0.98534 0.59306 0.17055 0.71025
   7  -2   1   35.78  139.59   1-0.46221-0.07890-0.59677-0.98985-0.65591-0.11813
  -7   2  -219432.66  524.21   1 0.00000-0.36601 0.41354 0.84882 0.91048 0.38148
   7  -2   218162.73  614.71   1 0.00000 0.36561 0.97286 0.53754 0.23139 0.75984
   7  -2   220140.00  597.27   1-0.50737-0.13741-0.54414-0.98031-0.66819-0.14180
  -7   2  -3  145.60  130.08   1 0.00000-0.34917 0.36069 0.84024 0.93268 0.41479
   7  -2   3  231.33  118.46   1 0.00000 0.35201 0.95808 0.47973 0.28649 0.80370
   7  -2   3  296.54  134.35   1-0.55115-0.19513-0.48725-0.96723-0.67735-0.16243
  -7   2  -4 1532.70  274.81   1 0.00000-0.33553 0.30792 0.83038 0.95141 0.44483
   7  -2   4 1375.59  203.74   1 0.00000 0.33840 0.94191 0.42054 0.33583 0.84179
   7  -2   4 1350.09  149.65   1-0.59143-0.24875-0.42875-0.95179-0.68290-0.17943
  -7   2  -5 3490.13  342.84   1 0.00000-0.32189 0.25564 0.82102 0.96677 0.47149
   7  -2   5 3437.91  242.33   1-0.62856-0.29922-0.36836-0.93446-0.68499-0.19295
  -7   2  -6 1618.81  195.80   1 0.00000-0.30825 0.20409 0.81239 0.97895 0.49497
   7  -2   6 1666.32  154.87   1-0.66219-0.34620-0.30674-0.91591-0.68366-0.20306
  -7   2  -7    2.89  120.78   1 0.00000-0.29460 0.15345 0.80466 0.98815 0.51548
   7  -2   7   41.57   63.12   1-0.69214-0.38950-0.24455-0.89678-0.67906-0.20989
  -7   2  -8 6085.59  375.30   1 0.00000-0.28096 0.10382 0.79795 0.99459 0.53322
   7  -2   8 5552.88  263.89   1-0.71832-0.42902-0.18236-0.87765-0.67138-0.21365
  -7   2  -9  200.00  122.40   1 0.00000-0.26732 0.05529 0.79233 0.99847 0.54839
   7  -2   9   55.18  104.33   1-0.74074-0.46479-0.12066-0.85902-0.66086-0.21457
  -7   1  12 6712.87  423.02   1 0.00000-0.47608 0.93900 0.77407 0.34390-0.41731
  -7   1  11 3199.10  432.23   1 0.00000-0.46247 0.92623 0.80433 0.37693-0.37303
  -7   1  10 4791.58  300.64   1 0.00000-0.44933 0.91058 0.83192 0.41333-0.32559
  -7   1   9 1360.60  223.56   1 0.00000-0.42992-0.84299-0.88197 0.53791-0.19308
  -7   1   9 2219.76  321.72   1 0.00000-0.43571 0.89229 0.85664 0.45145-0.27625
  -7   1   8 1783.72  178.84   1 0.00000-0.41664-0.87971-0.87567 0.47550-0.24414
  -7   1   8 2419.75  205.53   1 0.00000-0.42209 0.87084 0.87820 0.49155-0.22492
  -7   1   7 2339.13  230.18   1 0.00000-0.40848 0.84602 0.89639 0.53314-0.17211
   7  -1  -7 1806.74  243.50   1 0.00000 0.40794 0.91328 0.86310-0.40733 0.29771
   7  -1  -7 2083.09  225.24   1-0.09314 0.31714-0.87081-0.92207-0.48271 0.22179
  -7   1   6 4309.27  324.68   1 0.00000-0.39486 0.81770 0.91107 0.57563-0.11839
   7  -1  -6 3418.56  309.29   1 0.00000 0.39445 0.94085 0.84761-0.33881 0.35491
   7  -1  -6 4423.90  332.86   1-0.13300 0.26393-0.85195-0.94630-0.50643 0.18667
  -7   1   519451.48  769.26   1 0.00000-0.38124 0.78584 0.92222 0.61842-0.06438
   7  -1  -517869.17  786.57   1 0.00000 0.38084 0.96320 0.82693-0.26878 0.41369
   7  -1  -519271.79  777.82   1-0.17592 0.20765-0.82905-0.96648-0.53076 0.15094
  -7   1   4 5075.69  321.82   1 0.00000-0.36763 0.75051 0.92990 0.66085-0.01074
   7  -1  -4 4159.58  316.03   1 0.00000 0.36723 0.98016 0.80086-0.19820 0.47302
   7  -1  -4 5039.28  400.11   1-0.22156 0.14867-0.80165-0.98216-0.55521 0.11510
  -7   1   3 8857.69  450.92   1 0.00000-0.35401 0.71189 0.93429 0.70228 0.04191
   7  -1  -3 8324.25  494.84   1 0.00000 0.35363 0.99176 0.76943-0.12808 0.53189
   7  -1  -3 9519.14  497.27   1-0.26941 0.08746-0.76938-0.99297-0.57919 0.07973
  -7   1   2 8294.64  453.07   1 0.00000-0.34040 0.67026 0.93567 0.74212 0.09297
   7  -1  -2 7530.31  445.05   1 0.00000 0.34002 0.99823 0.73287-0.05943 0.58929
   7  -1  -2 7339.63  412.19   1-0.31887 0.02465-0.73199-0.99866-0.60208 0.04544
  -7   1   1 2624.49  229.46   1 0.00000-0.32678 0.62596 0.93438 0.77985 0.14192
   7  -1  -1 2575.83  256.09   1 0.00000 0.32642 0.99997 0.69159 0.00683 0.64431
   7  -1  -1 2724.36  217.61   1-0.36916-0.03899-0.68940-0.99915-0.62324 0.01289
  -7   1   0    3.92   86.28   1 0.00000-0.31316 0.57940 0.93083 0.81503 0.18833
   7  -1   0  -55.16  147.90   1 0.00000 0.31281 0.99755 0.64614 0.06993 0.69616
   7  -1   0   -4.67   88.13   1-0.41947-0.10265-0.64173-0.99456-0.64204-0.01729
  -7   1  -1 6074.53  351.59   1 0.00000-0.29955 0.53104 0.92547 0.84734 0.23186
   7  -1   1 5342.06  365.32   1 0.00000 0.29921 0.99161 0.59717 0.12923 0.74421
   7  -1   1 6022.41  380.93   1-0.46892-0.16545-0.58929-0.98521-0.65790-0.04455
  -7   1  -2 1333.00  160.76   1 0.00000-0.28593 0.48130 0.91874 0.87655 0.27229
   7  -1   2 1262.70  184.82   1 0.00000 0.28560 0.98287 0.54540 0.18427 0.78801
   7  -1   2 1486.21  199.11   1-0.51665-0.22653-0.53260-0.97159-0.67037-0.06842
   7  -1   3   87.38   83.56   1-0.56279-0.28665-0.47102-0.95390-0.67926-0.08885
  -7   1  -4  111.56  120.39   1 0.00000-0.25504 0.37913 0.90363 0.92534 0.34408
   7  -1   4   40.55  100.14   1-0.60476-0.34197-0.40786-0.93381-0.68403-0.10505
  -7   1  -5 1765.16  259.74   1 0.00000-0.24140 0.32769 0.89511 0.94478 0.37482
   7  -1   5 1880.13  209.04   1-0.64303-0.39358-0.34275-0.91176-0.68485-0.11731
  -7   1  -6  572.84  164.63   1 0.00000-0.22776 0.27634 0.88667 0.96105 0.40240
   7  -1   6  723.40  159.34   1-0.67724-0.44113-0.27651-0.88858-0.68182-0.12572
  -7   1  -7 1530.57  275.50   1 0.00000-0.21411 0.22531 0.87856 0.97428 0.42693
   7  -1   7 1694.36  242.32   1-0.70718-0.48442-0.20990-0.86504-0.67515-0.13049
  -7   1  -8  448.63  173.01   1 0.00000-0.20047 0.17481 0.87098 0.98460 0.44855
   7  -1   8 1293.19  155.81   1-0.73280-0.52339-0.14361-0.84182-0.66510-0.13188
  -7   0  11  -15.00  147.46   1 0.00000-0.38246 0.92684 0.80709 0.37544-0.44979
  -7   0  10  223.19  141.15   1 0.00000-0.36925 0.91268 0.83618 0.40865-0.40551
  -7   0   9 3003.33  400.69   1 0.00000-0.35563 0.89625 0.86275 0.44354-0.35940
  -7   0   8 5018.21  334.08   1 0.00000-0.34202 0.87708 0.88659 0.48034-0.31139
  -7   0   7 4971.20  311.13   1 0.00000-0.32840 0.85498 0.90751 0.51864-0.26186
   7   0  -7 4643.65  422.05   1-0.09325 0.23719-0.87076-0.92485-0.48278 0.29728
  -7   0   6 8473.58  414.50   1 0.00000-0.31478 0.82981 0.92535 0.55803-0.21125
   7   0  -6 8838.80  523.89   1-0.13516 0.18193-0.85086-0.94804-0.50769 0.26098
  -7   0   5 2251.57  204.23   1 0.00000-0.30117 0.80149 0.94003 0.59799-0.16006
   7   0  -5 1919.31  227.47   1-0.18043 0.12331-0.82649-0.96674-0.53324 0.22403
  -7   0   4 5360.67  300.41   1 0.00000-0.28755 0.77001 0.95156 0.63802-0.10881
   7   0  -4 5133.18  332.90   1-0.22868 0.06171-0.79708-0.98042-0.55889 0.18699
  -7   0   3 1851.94  190.03   1 0.00000-0.27393 0.73543 0.95999 0.67759-0.05802
   7   0  -3 2497.33  237.99   1-0.27938-0.00233-0.76218-0.98860-0.58396 0.15052
  -7   0   2 4560.19  326.76   1 0.00000-0.26032 0.69791 0.96548 0.71617-0.00822
   7   0  -2 4322.98  295.33   1-0.33181-0.06811-0.72148-0.99098-0.60774 0.11535
  -7   0   1 4766.83  362.72   1 0.00000-0.24670 0.65768 0.96825 0.75329 0.04011
   7   0  -1 4215.36  298.16   1-0.38510-0.13476-0.67487-0.98746-0.62946 0.08223
  -7   0   0  400.38  169.75   1 0.00000-0.23309 0.61500 0.96859 0.78852 0.08656
   7   0   0  134.36  117.67   1-0.43827-0.20128-0.62249-0.97815-0.64839 0.05191
  -7   0  -111235.69  449.64   1 0.00000-0.21947 0.57022 0.96681 0.82149 0.13076
   7   0   1 9886.20  417.05   1-0.49028-0.26663-0.56472-0.96347-0.66385 0.02505
  -7   0  -2 2679.50  216.48   1 0.00000-0.20585 0.52367 0.96327 0.85192 0.17241
   7   0   2 2672.01  241.27   1-0.54126-0.33166-0.50066-0.94339-0.67554 0.00179
  -7   0  -3  412.85  102.45   1 0.00000-0.19224 0.47571 0.95832 0.87959 0.21131
   7   0   3  488.66  125.59   1-0.58789-0.39164-0.43417-0.91996-0.68254-0.01663
   7   0   4 2807.84  389.90   1-0.63061-0.44771-0.36480-0.89365-0.68501-0.03054
  -7   0  -5 2312.47  475.88   1 0.00000-0.16091 0.37642 0.94588 0.92644 0.28181
   7   0   5 2897.92  381.08   1-0.66885-0.49929-0.29359-0.86551-0.68295-0.03992
  -7   0  -6 4936.75  535.60   1 0.00000-0.14726 0.32624 0.93861 0.94528 0.31195
   7   0   6 7247.81  334.26   1-0.70224-0.54603-0.22157-0.83655-0.67657-0.04497
  -7   0  -7  359.99  141.23   1 0.00000-0.13362 0.27590 0.93119 0.96118 0.33915
   7   0   7  571.71  104.03   1-0.73063-0.58776-0.14967-0.80772-0.66616-0.04600
  -7  -1   9  169.94  137.87   1 0.00000-0.27555 0.89249 0.86116 0.45105-0.42715
  -7  -1   8 1238.82  202.62   1 0.00000-0.26194 0.87455 0.88623 0.48491-0.38206
  -7  -1   713314.09  478.80   1 0.00000-0.24832 0.85402 0.90871 0.52023-0.33553
   7   1  -713164.53  669.56   1-0.10863 0.14198-0.86375-0.92067-0.49206 0.36357
  -7  -1   6 2350.34  353.08   1 0.00000-0.23470 0.83075 0.92845 0.55663-0.28790
   7   1  -6 2944.58  443.71   1-0.15316 0.08410-0.84154-0.94154-0.51802 0.32621
  -7  -1   520994.13  710.24   1 0.00000-0.22109 0.80466 0.94536 0.59373-0.23958
   7   1  -519905.58  799.82   1-0.20133 0.02258-0.81419-0.95727-0.54456 0.28828
  -7  -1   4 2007.48  309.43   1 0.00000-0.20747 0.77570 0.95941 0.63109-0.19099
   7   1  -4 1974.22  300.58   1-0.25273-0.04217-0.78105-0.96721-0.57103 0.25042
  -7  -1   3 4259.93  330.71   1 0.00000-0.19386 0.74389 0.97061 0.66829-0.14257
   7   1  -3 4308.55  306.40   1-0.30673-0.10952-0.74155-0.97080-0.59665 0.21340
  -7  -1   215383.19  589.98   1 0.00000-0.18024 0.70931 0.97904 0.70488-0.09476
   7   1  -216955.51  637.06   1-0.36249-0.17862-0.69533-0.96766-0.62057 0.17809
  -7  -1   115395.67  578.95   1 0.00000-0.16662 0.67211 0.98485 0.74044-0.04798
   7   1  -115121.85  520.96   1-0.41895-0.24843-0.64226-0.95767-0.64185 0.14541
  -7  -1   0  300.98  156.61   1 0.00000-0.15301 0.63247 0.98822 0.77458-0.00262
   7   1   0  271.76  110.53   1-0.47491-0.31775-0.58253-0.94102-0.65963 0.11624
  -7  -1  -1 1129.77  222.71   1 0.00000-0.13939 0.59063 0.98938 0.80693 0.04095
   7   1   1 1036.34  211.74   1-0.53055-0.38749-0.51481-0.91738-0.67341 0.09086
  -7  -1  -2  964.90  213.04   1 0.00000-0.12578 0.54686 0.98862 0.83722 0.08246
   7   1   2  822.57  165.79   1-0.58165-0.45194-0.44358-0.88921-0.68184 0.07099
   7   1   3  446.14   87.71   1-0.62860-0.51223-0.36829-0.85698-0.68499 0.05640
  -7  -1  -4  401.26  155.30   1 0.00000-0.09854 0.45467 0.98245 0.89065 0.15834
   7   1   4  591.76  111.97   1-0.67051-0.56749-0.29025-0.82202-0.68275 0.04720
  -7  -2   3 1299.13  174.72   1 0.00000-0.11378 0.74113 0.97001 0.67135-0.21476
  -7  -2   2 1340.05  211.05   1 0.00000-0.10016 0.70857 0.98046 0.70563-0.16927
   7   2  -2 1273.94  194.68   1-0.41517-0.31114-0.64602-0.92118-0.64053 0.23370
   8  -6  -412814.17  502.79   1-0.39668 0.40657-0.66399-0.88117-0.63383-0.24130
   8  -6  -3  655.78  195.06   1-0.42744 0.36245-0.63367-0.89393-0.64478-0.26363
   8  -6  -2  -43.68  120.09   1-0.45848 0.31806-0.60086-0.90420-0.65478-0.28504
   8  -6  -1 2465.03  205.67   1-0.48949 0.27370-0.56565-0.91207-0.66364-0.30529
   8  -6   0 1491.71  158.75   1-0.52015 0.22968-0.52817-0.91767-0.67116-0.32421
   8  -6   1 1046.20  163.45   1-0.55042 0.18559-0.48825-0.92141-0.67722-0.34138
   8  -5  -7 5671.17  378.59   1-0.26468 0.49879-0.77274-0.86350-0.57690-0.07461
   8  -5  -6 3043.92  245.49   1-0.29472 0.45539-0.75077-0.88462-0.59115-0.10026
  -8   5   5 6764.19  630.62   1 0.00000-0.73252 0.31744 0.49825 0.94827 0.46384
   8  -5  -512178.40  546.67   1-0.32611 0.41065-0.72614-0.90307-0.60527-0.12577
  -8   5   4 9670.75  683.29   1 0.00000-0.71888 0.26944 0.49317 0.96301 0.48988
   8  -5  -411190.39  474.47   1-0.35859 0.36482-0.69876-0.91876-0.61898-0.15088
  -8   5   3 1528.82  284.05   1 0.00000-0.70523 0.22263 0.48927 0.97490 0.51307
   8  -5  -3 1719.04  261.19   1-0.39184 0.31821-0.66857-0.93166-0.63202-0.17532
  -8   5   2 9424.16  568.65   1 0.00000-0.69159 0.17717 0.48673 0.98417 0.53365
   8  -5  -2 8457.88  501.14   1-0.42555 0.27116-0.63560-0.94177-0.64413-0.19882
  -8   5   1 1156.07  211.49   1 0.00000-0.67795 0.13313 0.48560 0.99109 0.55187
   8  -5  -1 1191.84  233.12   1-0.45935 0.22401-0.59991-0.94916-0.65505-0.22113
  -8   5   0   80.72  109.83   1 0.00000-0.66431 0.09050 0.48589 0.99589 0.56797
   8  -5   0   44.75   80.77   1 0.00000 0.66612 0.99996 0.60665 0.00853 0.43388
   8  -5   0  211.83  154.32   1-0.49289 0.17712-0.56163-0.95396-0.66454-0.24202
  -8   5  -1  567.84  130.77   1 0.00000-0.65066 0.04924 0.48755 0.99878 0.58216
   8  -5   1  226.37  117.04   1 0.00000 0.65251 0.99522 0.55888 0.09763 0.51173
   8  -5   1  387.57  149.87   1-0.52620 0.12992-0.52044-0.95651-0.67249-0.26115
  -8   5  -2   37.81   73.42   1 0.00000-0.63702 0.00928 0.49051 0.99995 0.59463
   8  -5   2  -17.91  127.69   1-0.55817 0.08461-0.47752-0.95666-0.67853-0.27863
  -8   5  -3 4862.68  310.96   1 0.00000-0.62338-0.02946 0.49467 0.99956 0.60554
   8  -5   3 4124.10  412.81   1 0.00000 0.62530 0.96859 0.44620 0.24863 0.64023
   8  -5   3 5186.79  325.00   1-0.58887 0.04057-0.43268-0.95488-0.68264-0.29418
  -8   5  -4   53.63   99.00   1 0.00000-0.60974-0.06710 0.49995 0.99774 0.61503
   8  -5   4  -90.97   96.76   1-0.61803-0.00193-0.38621-0.95147-0.68474-0.30771
  -8   4   821992.73  699.79   1 0.00000-0.69563 0.64603 0.69742 0.76330 0.17230
   8  -4  -821828.20  762.74   1-0.19912 0.49787-0.81552-0.86603-0.54338 0.04586
  -8   4   7 8315.27  428.40   1 0.00000-0.68201 0.60392 0.69831 0.79704 0.21726
   8  -4  -7 8864.45  469.20   1-0.22899 0.45464-0.79688-0.89047-0.55905 0.01879
  -8   4   6   -0.41   82.82   1 0.00000-0.66493-0.87428-0.74168 0.48541-0.08810
  -8   4   6   -4.16  121.88   1 0.00000-0.66839 0.55932 0.69673 0.82894 0.26038
   8  -4  -6   -6.38  163.47   1-0.26068 0.40960-0.77555-0.91222-0.57494-0.00849
  -8   4   5   44.48  110.98   1 0.00000-0.65478 0.51280 0.69322 0.85850 0.30116
   8  -4  -5   -3.85  110.62   1 0.00000 0.65403 0.91901 0.73875-0.39421 0.16273
   8  -4  -5  -89.41  111.20   1-0.29395 0.36298-0.75135-0.93111-0.59080-0.03574
  -8   4   414291.48  567.52   1 0.00000-0.64116 0.46492 0.68834 0.88535 0.33923
   8  -4  -412682.48  690.31   1 0.00000 0.64053 0.95248 0.72912-0.30460 0.24101
   8  -4  -414373.54  664.29   1-0.32854 0.31504-0.72417-0.94700-0.60632-0.06266
   8  -4  -3  166.93   97.46   1 0.00000 0.62692 0.97673 0.71035-0.21444 0.31993
   8  -4  -3  291.14  197.77   1-0.36410 0.26612-0.69391-0.95982-0.62122-0.08894
  -8   4   2   32.52   93.14   1 0.00000-0.61110 0.36894 0.68054 0.92945 0.40424
   8  -4  -2   85.26  127.50   1 0.00000 0.61331 0.99205 0.68264-0.12583 0.39728
   8  -4  -2   85.41  144.36   1-0.40028 0.21659-0.66055-0.96954-0.63516-0.11429
  -8   4   1  975.27  243.64   1 0.00000-0.59746 0.32012 0.67464 0.94737 0.43347
   8  -4  -1 1529.16  273.35   1 0.00000 0.59971 0.99917 0.64673-0.04062 0.47124
   8  -4  -1 1821.87  288.31   1-0.43669 0.16684-0.62414-0.97622-0.64787-0.13839
  -8   4   011959.57  673.99   1 0.00000-0.58381 0.27172 0.66914 0.96237 0.45977
   8  -4   011292.13  626.29   1 0.00000 0.58610 0.99921 0.60374 0.03971 0.54033
   8  -4   012896.18  562.39   1-0.47290 0.11727-0.58480-0.97996-0.65905-0.16096
  -8   4  -1 2337.95  399.90   1 0.00000-0.57017 0.22397 0.66431 0.97459 0.48329
   8  -4   1 1353.63  235.18   1 0.00000 0.57250 0.99346 0.55497 0.11415 0.60352
   8  -4   1 2523.36  355.76   1-0.50852 0.06830-0.54272-0.98096-0.66847-0.18177
   8  -4   2   25.93  118.62   1 0.00000 0.55889 0.98328 0.50176 0.18207 0.66020
   8  -4   2  181.74  103.40   1-0.54366 0.01923-0.49744-0.97948-0.67600-0.20060
  -8   4  -3  456.97  113.89   1 0.00000-0.54289 0.13115 0.65733 0.99136 0.52266
   8  -4   3  534.11  185.44   1 0.00000 0.54529 0.96996 0.44541 0.24323 0.71011
   8  -4   3  881.04  176.32   1-0.57691-0.02735-0.45061-0.97571-0.68126-0.21730
  -8   4  -4 1738.28  202.85   1 0.00000-0.52925 0.08627 0.65536 0.99627 0.53888
   8  -4   4 1994.19  195.17   1-0.60846-0.07225-0.40191-0.97008-0.68427-0.23175
  -8   4  -5   57.88  112.98   1 0.00000-0.51560 0.04246 0.65446 0.99909 0.55300
   8  -4   5  -63.39   76.29   1-0.63806-0.11519-0.35170-0.96293-0.68496-0.24388
  -8   3   8   33.94   86.07   1 0.00000-0.61082-0.83224-0.78315 0.55440-0.11646
  -8   3   8   35.96  106.57   1 0.00000-0.61555 0.73444 0.78799 0.67866 0.01241
   8  -3  -8   90.91  103.01   1-0.17162 0.44553-0.83147-0.88481-0.52838 0.13642
  -8   3   7 5305.11  384.47   1 0.00000-0.59753-0.87466-0.78255 0.48472-0.17478
  -8   3   7 7672.24  431.15   1 0.00000-0.60193 0.69977 0.79633 0.71436 0.05932
   8  -3  -7 7767.58  415.62   1-0.20284 0.40096-0.81328-0.90969-0.54536 0.10804
  -8   3   6 3494.07  457.32   1 0.00000-0.58832 0.66213 0.80170 0.74938 0.10557
   8  -3  -6 2336.76  426.21   1 0.00000 0.58761 0.91329 0.77390-0.40729 0.23617
   8  -3  -6 3017.38  440.77   1-0.23610 0.35435-0.79223-0.93173-0.56268 0.07933
  -8   3   5 4215.14  277.23   1 0.00000-0.57470 0.62181 0.80438 0.78316 0.15057
   8  -3  -5 3076.25  427.06   1 0.00000 0.57412 0.94373 0.76125-0.33070 0.30143
   8  -3  -5 4392.46  390.77   1-0.27117 0.30593-0.76812-0.95070-0.58003 0.05058
  -8   3   4 9410.86  439.67   1 0.00000-0.56108 0.57915 0.80473 0.81522 0.19385
   8  -3  -4 7669.62  481.24   1 0.00000 0.56051 0.96745 0.74195-0.25303 0.36785
   8  -3  -410473.17  513.01   1-0.30776 0.25599-0.74076-0.96642-0.59711 0.02211
  -8   3   3 2649.83  396.75   1 0.00000-0.54747 0.53456 0.80315 0.84513 0.23498
   8  -3  -3 1962.91  344.79   1 0.00000 0.54691 0.98445 0.71591-0.17565 0.43398
   8  -3  -3 3124.07  251.78   1-0.34551 0.20488-0.71002-0.97877-0.61357-0.00574
  -8   3   224868.21  679.52   1 0.00000-0.53385 0.48846 0.80006 0.87258 0.27366
   8  -3  -221380.21  853.61   1 0.00000 0.53330 0.99499 0.68343-0.09990 0.49849
   8  -3  -225066.65  703.53   1-0.38404 0.15300-0.67586-0.98768-0.62906-0.03261
  -8   3   1   29.72  106.14   1 0.00000-0.52024 0.44128 0.79590 0.89736 0.30966
   8  -3  -1   23.00  101.60   1 0.00000 0.51970 0.99963 0.64504-0.02695 0.56019
   8  -3  -1  164.78  122.24   1-0.42289 0.10080-0.63829-0.99320-0.64322-0.05817
  -8   3   0 2950.70  245.68   1 0.00000-0.50662 0.39343 0.79105 0.91935 0.34287
   8  -3   0 2781.22  417.80   1 0.00000 0.50609 0.99910 0.60149 0.04222 0.61811
   8  -3   0 2952.14  269.00   1-0.46159 0.04874-0.59744-0.99543-0.65573-0.08207
  -8   3  -1  -40.66  104.35   1 0.00000-0.48968 0.34606 0.78844 0.93820 0.37223
   8  -3   1  -10.15  134.29   1 0.00000 0.49249 0.99427 0.55362 0.10687 0.67152
   8  -3   1   53.28   97.17   1-0.49968-0.00269-0.55350-0.99457-0.66629-0.10403
  -8   3  -2 1670.35  297.73   1 0.00000-0.47604 0.29793 0.78323 0.95458 0.39991
   8  -3   2 2280.34  353.54   1-0.53737-0.05435-0.50585-0.99080-0.67479-0.12390
  -8   3  -3  342.63  110.89   1 0.00000-0.46240 0.25004 0.77824 0.96823 0.42486
   8  -3   3  388.76  113.70   1-0.57285-0.10318-0.45656-0.98457-0.68072-0.14127
  -8   3  -4 1283.38  200.71   1 0.00000-0.44875 0.20258 0.77371 0.97926 0.44719
   8  -3   4  991.20  189.43   1-0.60644-0.15011-0.40518-0.97626-0.68414-0.15612
  -8   3  -523634.47  855.27   1 0.00000-0.43511 0.15573 0.76977 0.98779 0.46703
   8  -3   525381.35  622.05   1-0.63782-0.19484-0.35213-0.96627-0.68497-0.16839
  -8   2   817643.63  637.10   1 0.00000-0.53547 0.78074 0.83645 0.62484-0.11665
   8  -2  -818199.76  844.66   1-0.15463 0.38269-0.84075-0.89692-0.51885 0.22152
  -8   2   729575.14  776.50   1 0.00000-0.52185 0.75140 0.85011 0.65984-0.07043
   8  -2  -728402.93  826.43   1-0.18723 0.33674-0.82256-0.92181-0.53696 0.19201
  -8   2   6 3394.38  467.37   1 0.00000-0.50824 0.71914 0.86087 0.69485-0.02420
   8  -2  -6 3083.02  457.18   1-0.22208 0.28853-0.80131-0.94364-0.55548 0.16210
  -8   2   5  370.43  121.79   1 0.00000-0.49462 0.68410 0.86883 0.72938 0.02154
   8  -2  -5  368.86  148.52   1-0.25895 0.23831-0.77675-0.96216-0.57410 0.13209
  -8   2   411755.52  522.07   1 0.00000-0.48100 0.64645 0.87420 0.76295 0.06633
   8  -2  -411855.28  563.55   1-0.29753 0.18638-0.74864-0.97713-0.59245 0.10234
  -8   2   3   46.47  113.76   1 0.00000-0.46739 0.60646 0.87721 0.79511 0.10971
   8  -2  -3  -60.12  124.34   1-0.33744 0.13312-0.71681-0.98839-0.61016 0.07324
  -8   2   2   -1.19  119.59   1 0.00000-0.45377 0.56441 0.87817 0.82549 0.15132
   8  -2  -2   62.82  135.71   1-0.37824 0.07897-0.68119-0.99585-0.62681 0.04519
  -8   2   1  -67.04   96.29   1 0.00000-0.44016 0.52063 0.87740 0.85377 0.19082
   8  -2  -1   13.62  102.89   1-0.41941 0.02444-0.64179-0.99952-0.64201 0.01859
  -8   2   013046.43  513.55   1 0.00000-0.42654 0.47547 0.87525 0.87972 0.22799
   8  -2   012780.96  573.53   1-0.46044-0.02992-0.59871-0.99953-0.65538-0.00616
   8  -2   110093.13  426.76   1-0.50077-0.08361-0.55218-0.99608-0.66656-0.02873
  -8   2  -2 2638.23  438.24   1 0.00000-0.39555 0.38259 0.86992 0.92391 0.29456
   8  -2   2 4190.23  318.40   1-0.54070-0.13757-0.50142-0.98927-0.67543-0.04905
  -8   2  -3   99.75  102.99   1 0.00000-0.38191 0.33527 0.86551 0.94212 0.32407
   8  -2   3  -13.39  126.99   1-0.57804-0.18826-0.44894-0.97986-0.68140-0.06645
  -8   2  -4  548.37  166.62   1 0.00000-0.36826 0.28777 0.86093 0.95769 0.35095
   8  -2   4  266.35  106.31   1-0.61320-0.23677-0.39419-0.96818-0.68453-0.08102
  -8   1   6 4215.54  277.15   1 0.00000-0.42816 0.74999 0.89387 0.66144-0.13286
   8  -1  -6 4240.57  415.87   1-0.21987 0.21091-0.80272-0.94788-0.55433 0.23881
  -8   1   5 2076.49  242.88   1 0.00000-0.41454 0.71887 0.90576 0.69514-0.08795
   8  -1  -5 2044.64  255.23   1-0.25866 0.15877-0.77696-0.96519-0.57395 0.20780
  -8   1   4 2499.03  255.54   1 0.00000-0.40093 0.68517 0.91507 0.72838-0.04348
   8  -1  -4 2323.38  268.82   1-0.29931 0.10477-0.74728-0.97860-0.59327 0.17709
  -8   1   3  169.24   93.62   1 0.00000-0.38731 0.64903 0.92194 0.76075 0.00011
   8  -1  -3  152.21  145.62   1-0.34142 0.04931-0.71348-0.98788-0.61185 0.14711
  -8   1   216657.93  597.27   1 0.00000-0.37369 0.61065 0.92657 0.79189 0.04247
   8  -1  -215576.26  565.32   1-0.38447-0.00708-0.67546-0.99294-0.62922 0.11835
  -8   1   1 3939.50  287.82   1 0.00000-0.36008 0.57026 0.92919 0.82145 0.08325
   8  -1  -1 3790.71  298.81   1-0.42789-0.06386-0.63321-0.99377-0.64493 0.09124
  -8   1   0 1111.48  156.50   1 0.00000-0.34646 0.52813 0.93007 0.84916 0.12218
   8  -1   0 1041.39  174.01   1-0.47108-0.12040-0.58686-0.99051-0.65853 0.06625
  -8   1  -1 1982.70  244.07   1 0.00000-0.33285 0.48452 0.92947 0.87477 0.15901
   8  -1   1 1883.29  207.12   1-0.51339-0.17606-0.53667-0.98340-0.66962 0.04376
   8  -1   2  240.00  120.33   1-0.55519-0.23195-0.48167-0.97243-0.67804 0.02383
;
_shelx_hkl_checksum              24922
_shelx_res_file
;
TITL F01579 - EXOR               New: P-1
CELL  0.71075    6.6106    7.0143   15.3749    91.444    95.238   112.551
ZERR        2    0.0005    0.0005    0.0011     0.006     0.006     0.008
LATT   1
SFAC  C   H   N   O
UNIT 34 26 2 6
LIST 4 ! automatically inserted. Change 6 to 4 for CHECKCIF!!
temp -173
size 0.16 0.09 0.02
mpla 6 c311 c312 c313 c314 c315 c316
mpla 10 o1 c2 c3 c4 c4a c5 c6 c7 c8 c8a
mpla 3 o3 c31 n3
mpla 6 c311 c312 c313 c314 c315 c316
eqiv $1 1+x,y,z
eqiv $2 -1+x,y,z
htab n3 o4
htab c312 o3
htab c2 o4_$1
htab c316 o3_$2
L.S. 5
FMAP 2
PLAN -20
ACTA 50
BOND $H
CONF
WGHT    0.068700    0.145400
FVAR      14.59448
O1    4    0.822246    0.286910    0.530400    11.00000    0.01737    0.02644 =
         0.02641    0.00036    0.00039    0.00907
O3    4    0.752294    0.362632    0.271077    11.00000    0.02017    0.03586 =
         0.02974    0.00466    0.00799    0.00977
O4    4    0.213162    0.234967    0.421757    11.00000    0.01739    0.03316 =
         0.02515    0.00484    0.00282    0.01196
N3    3    0.383098    0.289687    0.266102    11.00000    0.01938    0.02565 =
         0.02127    0.00334    0.00417    0.00957
H3    2    0.282166    0.275953    0.303576    11.00000    0.04345
C2    1    0.780918    0.305153    0.444637    11.00000    0.01883    0.02025 =
         0.02615    0.00011    0.00266    0.00682
AFIX  43
H2    2    0.898516    0.328603    0.409703    11.00000    0.03151
AFIX   0
C3    1    0.586401    0.293010    0.403790    11.00000    0.01821    0.01659 =
         0.02449    0.00103    0.00326    0.00692
C4    1    0.397771    0.249196    0.453616    11.00000    0.01775    0.01719 =
         0.02488    0.00130    0.00213    0.00732
C4A   1    0.442341    0.222561    0.546900    11.00000    0.02011    0.01684 =
         0.02261    0.00006    0.00108    0.00798
C5    1    0.275531    0.172593    0.602934    11.00000    0.02220    0.02215 =
         0.02644    0.00109    0.00312    0.01036
AFIX  43
H5    2    0.129754    0.152840    0.580349    11.00000   -1.20000
AFIX   0
C6    1    0.322519    0.152130    0.690492    11.00000    0.02961    0.02667 =
         0.02543    0.00142    0.00598    0.01287
AFIX  43
H6    2    0.208562    0.116005    0.727898    11.00000   -1.20000
AFIX   0
C7    1    0.538076    0.184462    0.724591    11.00000    0.03427    0.02683 =
         0.02214   -0.00062   -0.00069    0.01399
AFIX  43
H7    2    0.569708    0.173408    0.785338    11.00000   -1.20000
AFIX   0
C8    1    0.704765    0.232145    0.670928    11.00000    0.02513    0.02497 =
         0.02673   -0.00258   -0.00415    0.01142
AFIX  43
H8    2    0.850882    0.254059    0.693904    11.00000   -1.20000
AFIX   0
C8A   1    0.653138    0.247274    0.582269    11.00000    0.02015    0.01751 =
         0.02567   -0.00038    0.00200    0.00775
C311  1    0.324314    0.288169    0.175056    11.00000    0.02245    0.02029 =
         0.02181    0.00196    0.00361    0.00582
C312  1    0.443609    0.248485    0.111626    11.00000    0.02448    0.02779 =
         0.02850    0.00109    0.00590    0.00910
AFIX  43
H312  2    0.575850    0.228902    0.128433    11.00000   -1.20000
AFIX   0
C313  1    0.367480    0.237851    0.023754    11.00000    0.03134    0.02967 =
         0.02535   -0.00025    0.01018    0.00771
AFIX  43
H313  2    0.450152    0.211794   -0.019101    11.00000   -1.20000
AFIX   0
C314  1    0.173474    0.264220   -0.003572    11.00000    0.03178    0.02167 =
         0.02278    0.00185    0.00374    0.00401
C315  1    0.056963    0.302956    0.060838    11.00000    0.02687    0.02562 =
         0.02526    0.00255    0.00120    0.00926
AFIX  43
H315  2   -0.076246    0.320762    0.043988    11.00000   -1.20000
AFIX   0
C316  1    0.130567    0.316251    0.149198    11.00000    0.02448    0.02515 =
         0.02334    0.00199    0.00438    0.00991
AFIX  43
H316  2    0.048931    0.344453    0.191949    11.00000   -1.20000
AFIX   0
C317  1    0.091484    0.248584   -0.099252    11.00000    0.04247    0.03008 =
         0.02245    0.00088    0.00289    0.00832
AFIX 137
H31C  2   -0.043201    0.276625   -0.105674    11.00000   -1.50000
H31D  2    0.059783    0.109008   -0.124375    11.00000   -1.50000
H31E  2    0.204546    0.349951   -0.129936    11.00000   -1.50000
AFIX   0
C31   1    0.583148    0.319605    0.307155    11.00000    0.02006    0.01976 =
         0.02575    0.00257    0.00470    0.00784
HKLF 4
REM  F01579 - EXOR               New: P-1
REM R1 =  0.0430 for    2645 Fo > 4sig(Fo)  and  0.0473 for all    2986 data
REM    196 parameters refined using      0 restraints
END
WGHT      0.0688      0.1460
REM Highest difference peak  0.330,  deepest hole -0.260,  1-sigma level  0.047
Q1    1   0.5060  0.2828  0.4283  11.00000  0.05    0.33
Q2    1   0.4198  0.2372  0.5015  11.00000  0.05    0.32
Q3    1   0.5828  0.3139  0.3573  11.00000  0.05    0.30
Q4    1   0.6667  0.2215  0.6238  11.00000  0.05    0.25
Q5    1   0.5403  0.2551  0.5622  11.00000  0.05    0.25
Q6    1   0.3594  0.1897  0.5729  11.00000  0.05    0.23
Q7    1   0.6647  0.3029  0.4253  11.00000  0.05    0.22
Q8    1   0.1134  0.2692  0.0333  11.00000  0.05    0.21
Q9    1   0.1255  0.2614 -0.0475  11.00000  0.05    0.20
Q10   1   0.2095  0.2586  0.1611  11.00000  0.05    0.19
Q11   1   0.4320  0.1494  0.7063  11.00000  0.05    0.19
Q12   1   0.2791  0.2970  0.0066  11.00000  0.05    0.19
Q13   1   0.3019  0.1394  0.6424  11.00000  0.05    0.19
Q14   1   0.6281  0.2663  0.7002  11.00000  0.05    0.18
Q15   1   0.3985  0.2774  0.1483  11.00000  0.05    0.18
Q16   1  -0.0419  0.1472 -0.1127  11.00000  0.05    0.17
Q17   1   0.3563  0.3073  0.2231  11.00000  0.05    0.17
Q18   1   0.7275  0.2722  0.5591  11.00000  0.05    0.16
Q19   1   0.6028  0.1652  0.6918  11.00000  0.05    0.15
Q20   1   0.1762  0.2062 -0.1218  11.00000  0.05    0.15
;
_shelx_res_checksum              11084
_shelxl_version_number           2014/6
loop_
_space_group_symop_operation_xyz
'x, y, z'
'-x, -y, -z'
loop_
_atom_site_type_symbol
_atom_site_label
_atom_site_fract_x
_atom_site_fract_y
_atom_site_fract_z
_atom_site_U_iso_or_equiv
_atom_site_adp_type
_atom_site_calc_flag
_atom_site_occupancy
O O1 0.82225(13) 0.28691(13) 0.53040(5) 0.0234(2) Uani d 1
O O3 0.75229(13) 0.36263(14) 0.27108(6) 0.0285(2) Uani d 1
O O4 0.21316(13) 0.23497(13) 0.42176(5) 0.0245(2) Uani d 1
N N3 0.38310(16) 0.28969(15) 0.26610(6) 0.0217(2) Uani d 1
H H3 0.282(3) 0.276(3) 0.3036(11) 0.043(5) Uiso d 1
C C2 0.78092(18) 0.30515(17) 0.44464(8) 0.0220(2) Uani d 1
H H2 0.8985 0.3286 0.4097 0.032(4) Uiso calc 1
C C3 0.58640(17) 0.29301(16) 0.40379(7) 0.0197(2) Uani d 1
C C4 0.39777(18) 0.24920(16) 0.45362(7) 0.0198(2) Uani d 1
C C4A 0.44234(18) 0.22256(16) 0.54690(7) 0.0197(2) Uani d 1
C C5 0.27553(19) 0.17259(18) 0.60293(8) 0.0230(2) Uani d 1
H H5 0.1298 0.1528 0.5803 0.028 Uiso calc 1
C C6 0.3225(2) 0.15213(19) 0.69049(8) 0.0264(3) Uani d 1
H H6 0.2086 0.1160 0.7279 0.032 Uiso calc 1
C C7 0.5381(2) 0.18446(19) 0.72459(8) 0.0274(3) Uani d 1
H H7 0.5697 0.1734 0.7853 0.033 Uiso calc 1
C C8 0.7048(2) 0.23214(18) 0.67093(8) 0.0256(3) Uani d 1
H H8 0.8509 0.2541 0.6939 0.031 Uiso calc 1
C C8A 0.65314(18) 0.24727(17) 0.58227(8) 0.0210(2) Uani d 1
C C311 0.32431(18) 0.28817(17) 0.17506(7) 0.0222(2) Uani d 1
C C312 0.4436(2) 0.24849(19) 0.11163(8) 0.0271(3) Uani d 1
H H312 0.5759 0.2289 0.1284 0.032 Uiso calc 1
C C313 0.3675(2) 0.23785(19) 0.02375(8) 0.0296(3) Uani d 1
H H313 0.4502 0.2118 -0.0191 0.036 Uiso calc 1
C C314 0.1735(2) 0.26422(18) -0.00357(8) 0.0273(3) Uani d 1
C C315 0.0570(2) 0.30296(19) 0.06084(8) 0.0263(3) Uani d 1
H H315 -0.0762 0.3208 0.0440 0.032 Uiso calc 1
C C316 0.13057(19) 0.31625(18) 0.14920(8) 0.0241(3) Uani d 1
H H316 0.0489 0.3445 0.1919 0.029 Uiso calc 1
C C317 0.0915(2) 0.2486(2) -0.09925(8) 0.0335(3) Uani d 1
H H31C -0.0432 0.2766 -0.1057 0.050 Uiso calc 1
H H31D 0.0598 0.1090 -0.1244 0.050 Uiso calc 1
H H31E 0.2045 0.3500 -0.1299 0.050 Uiso calc 1
C C31 0.58315(18) 0.31961(17) 0.30716(8) 0.0216(2) Uani d 1
loop_
_atom_site_aniso_label
_atom_site_aniso_U_11
_atom_site_aniso_U_22
_atom_site_aniso_U_33
_atom_site_aniso_U_12
_atom_site_aniso_U_13
_atom_site_aniso_U_23
O1 0.0174(4) 0.0264(4) 0.0264(4) 0.0091(3) 0.0004(3) 0.0004(3)
O3 0.0202(4) 0.0359(5) 0.0297(5) 0.0098(4) 0.0080(3) 0.0047(4)
O4 0.0174(4) 0.0332(5) 0.0252(4) 0.0120(3) 0.0028(3) 0.0048(3)
N3 0.0194(5) 0.0256(5) 0.0213(5) 0.0096(4) 0.0042(4) 0.0033(4)
C2 0.0188(5) 0.0203(5) 0.0261(6) 0.0068(4) 0.0027(4) 0.0001(4)
C3 0.0182(5) 0.0166(5) 0.0245(6) 0.0069(4) 0.0033(4) 0.0010(4)
C4 0.0178(5) 0.0172(5) 0.0249(5) 0.0073(4) 0.0021(4) 0.0013(4)
C4A 0.0201(5) 0.0168(5) 0.0226(5) 0.0080(4) 0.0011(4) 0.0001(4)
C5 0.0222(5) 0.0221(5) 0.0264(6) 0.0104(4) 0.0031(4) 0.0011(4)
C6 0.0296(6) 0.0267(6) 0.0254(6) 0.0129(5) 0.0060(5) 0.0014(4)
C7 0.0343(6) 0.0268(6) 0.0221(5) 0.0140(5) -0.0007(5) -0.0006(4)
C8 0.0251(6) 0.0250(6) 0.0267(6) 0.0114(5) -0.0042(4) -0.0026(4)
C8A 0.0202(5) 0.0175(5) 0.0257(6) 0.0078(4) 0.0020(4) -0.0004(4)
C311 0.0224(5) 0.0203(5) 0.0218(5) 0.0058(4) 0.0036(4) 0.0020(4)
C312 0.0245(6) 0.0278(6) 0.0285(6) 0.0091(5) 0.0059(4) 0.0011(5)
C313 0.0313(6) 0.0297(6) 0.0253(6) 0.0077(5) 0.0102(5) -0.0003(5)
C314 0.0318(6) 0.0217(5) 0.0228(6) 0.0040(5) 0.0037(5) 0.0019(4)
C315 0.0269(6) 0.0256(6) 0.0253(6) 0.0093(5) 0.0012(4) 0.0025(4)
C316 0.0245(6) 0.0252(6) 0.0233(6) 0.0099(5) 0.0044(4) 0.0020(4)
C317 0.0425(7) 0.0301(6) 0.0224(6) 0.0083(6) 0.0029(5) 0.0009(5)
C31 0.0201(5) 0.0198(5) 0.0257(6) 0.0078(4) 0.0047(4) 0.0026(4)
loop_
_atom_type_symbol
_atom_type_description
_atom_type_scat_dispersion_real
_atom_type_scat_dispersion_imag
_atom_type_scat_source
C C 0.0033 0.0016 'International Tables Vol C Tables 4.2.6.8 and 6.1.1.4'
H H 0.0000 0.0000 'International Tables Vol C Tables 4.2.6.8 and 6.1.1.4'
N N 0.0061 0.0033 'International Tables Vol C Tables 4.2.6.8 and 6.1.1.4'
O O 0.0106 0.0060 'International Tables Vol C Tables 4.2.6.8 and 6.1.1.4'
loop_
_geom_angle_atom_site_label_1
_geom_angle_atom_site_label_2
_geom_angle_atom_site_label_3
_geom_angle
C2 O1 C8A 118.52(9)
C31 N3 C311 127.52(10)
C31 N3 H3 112.7(11)
C311 N3 H3 119.7(11)
O1 C2 C3 125.51(10)
O1 C2 H2 117.2
C3 C2 H2 117.2
C2 C3 C4 119.57(10)
C2 C3 C31 115.13(10)
C4 C3 C31 125.27(10)
O4 C4 C3 124.11(10)
O4 C4 C4A 121.31(10)
C3 C4 C4A 114.58(9)
C8A C4A C5 118.12(10)
C8A C4A C4 120.48(10)
C5 C4A C4 121.39(10)
C6 C5 C4A 120.25(11)
C6 C5 H5 119.9
C4A C5 H5 119.9
C5 C6 C7 120.20(11)
C5 C6 H6 119.9
C7 C6 H6 119.9
C8 C7 C6 120.76(11)
C8 C7 H7 119.6
C6 C7 H7 119.6
C7 C8 C8A 118.23(11)
C7 C8 H8 120.9
C8A C8 H8 120.9
O1 C8A C8 116.38(10)
O1 C8A C4A 121.24(10)
C8 C8A C4A 122.38(11)
C316 C311 C312 119.49(11)
C316 C311 N3 117.29(10)
C312 C311 N3 123.11(10)
C313 C312 C311 119.44(11)
C313 C312 H312 120.3
C311 C312 H312 120.3
C312 C313 C314 122.04(11)
C312 C313 H313 119.0
C314 C313 H313 119.0
C315 C314 C313 117.49(11)
C315 C314 C317 121.24(12)
C313 C314 C317 121.26(12)
C316 C315 C314 121.62(11)
C316 C315 H315 119.2
C314 C315 H315 119.2
C315 C316 C311 119.91(11)
C315 C316 H316 120.0
C311 C316 H316 120.0
C314 C317 H31C 109.5
C314 C317 H31D 109.5
H31C C317 H31D 109.5
C314 C317 H31E 109.5
H31C C317 H31E 109.5
H31D C317 H31E 109.5
O3 C31 N3 124.93(11)
O3 C31 C3 120.73(10)
N3 C31 C3 114.33(9)
loop_
_geom_bond_atom_site_label_1
_geom_bond_atom_site_label_2
_geom_bond_distance
O1 C2 1.3414(14)
O1 C8A 1.3779(14)
O3 C31 1.2296(14)
O4 C4 1.2386(13)
N3 C31 1.3488(14)
N3 C311 1.4168(14)
N3 H3 0.900(18)
C2 C3 1.3494(15)
C2 H2 0.9500
C3 C4 1.4590(15)
C3 C31 1.5013(16)
C4 C4A 1.4688(15)
C4A C8A 1.3926(15)
C4A C5 1.4047(16)
C5 C6 1.3773(16)
C5 H5 0.9500
C6 C7 1.4023(17)
C6 H6 0.9500
C7 C8 1.3799(18)
C7 H7 0.9500
C8 C8A 1.3914(16)
C8 H8 0.9500
C311 C316 1.3935(16)
C311 C312 1.3948(16)
C312 C313 1.3878(17)
C312 H312 0.9500
C313 C314 1.3939(18)
C313 H313 0.9500
C314 C315 1.3907(17)
C314 C317 1.5068(16)
C315 C316 1.3889(16)
C315 H315 0.9500
C316 H316 0.9500
C317 H31C 0.9800
C317 H31D 0.9800
C317 H31E 0.9800
loop_
_geom_hbond_atom_site_label_D
_geom_hbond_atom_site_label_H
_geom_hbond_atom_site_label_A
_geom_hbond_site_symmetry_A
_geom_hbond_distance_DH
_geom_hbond_distance_HA
_geom_hbond_distance_DA
_geom_hbond_angle_DHA
N3 H3 O4 . 0.900(18) 1.916(18) 2.7098(13) 146.1(15)
C312 H312 O3 . 0.95 2.37 2.9240(16) 116
C2 H2 O4 1_655 0.95 2.40 3.1280(14) 133
C316 H316 O3 1_455 0.95 2.44 3.3644(14) 164
loop_
_geom_torsion_atom_site_label_1
_geom_torsion_atom_site_label_2
_geom_torsion_atom_site_label_3
_geom_torsion_atom_site_label_4
_geom_torsion
C8A O1 C2 C3 1.72(17)
O1 C2 C3 C4 -2.37(17)
O1 C2 C3 C31 179.75(9)
C2 C3 C4 O4 -179.91(10)
C31 C3 C4 O4 -2.27(18)
C2 C3 C4 C4A 0.18(15)
C31 C3 C4 C4A 177.83(9)
O4 C4 C4A C8A -177.42(10)
C3 C4 C4A C8A 2.48(15)
O4 C4 C4A C5 2.32(17)
C3 C4 C4A C5 -177.77(10)
C8A C4A C5 C6 0.93(17)
C4 C4A C5 C6 -178.83(10)
C4A C5 C6 C7 1.07(18)
C5 C6 C7 C8 -1.57(18)
C6 C7 C8 C8A 0.02(18)
C2 O1 C8A C8 -179.25(9)
C2 O1 C8A C4A 1.19(15)
C7 C8 C8A O1 -177.48(10)
C7 C8 C8A C4A 2.07(17)
C5 C4A C8A O1 176.98(10)
C4 C4A C8A O1 -3.26(16)
C5 C4A C8A C8 -2.55(17)
C4 C4A C8A C8 177.21(10)
C31 N3 C311 C316 -161.26(11)
C31 N3 C311 C312 22.52(18)
C316 C311 C312 C313 0.07(18)
N3 C311 C312 C313 176.21(10)
C311 C312 C313 C314 -0.46(19)
C312 C313 C314 C315 0.26(19)
C312 C313 C314 C317 -178.96(11)
C313 C314 C315 C316 0.35(18)
C317 C314 C315 C316 179.57(11)
C314 C315 C316 C311 -0.73(18)
C312 C311 C316 C315 0.51(18)
N3 C311 C316 C315 -175.85(10)
C311 N3 C31 O3 4.35(19)
C311 N3 C31 C3 -174.78(10)
C2 C3 C31 O3 -4.51(16)
C4 C3 C31 O3 177.76(10)
C2 C3 C31 N3 174.67(10)
C4 C3 C31 N3 -3.07(16)

_cod_database_fobs_code 2240664
