#------------------------------------------------------------------------------
#$Date: 2016-02-21 11:56:54 +0200 (Sun, 21 Feb 2016) $
#$Revision: 176809 $
#$URL: svn://www.crystallography.net/cod/cif/2/24/02/2240239.cif $
#------------------------------------------------------------------------------
#
# This file is available in the Crystallography Open Database (COD),
# http://www.crystallography.net/. The original data for this entry
# were provided by IUCr Journals, http://journals.iucr.org/.
#
# The file may be used within the scientific community so long as
# proper attribution is given to the journal article from which the
# data were obtained.
#
data_2240239
loop_
_publ_author_name
'Geiger, David K.'
'Parsons, Dylan E.'
'Zick, Patricia L.'
_publ_section_title
;
 Crystal structures of three lead(II) acetate-bridged diaminobenzene
 coordination polymers
;
_journal_coeditor_code           ZL2608
_journal_issue                   12
_journal_name_full               'Acta Crystallographica Section E'
_journal_page_first              566
_journal_page_last               572
_journal_paper_doi               10.1107/S1600536814025380
_journal_volume                  70
_journal_year                    2014
_chemical_formula_iupac          '[Pb (C2 H3 O2)2 (C6 H7 Cl N2)]'
_chemical_formula_moiety         'C10 H13 Cl N2 O4 Pb'
_chemical_formula_sum            'C10 H13 Cl N2 O4 Pb'
_chemical_formula_weight         467.86
_chemical_name_systematic
Poly[acetato-\k^2^<i>O</i>,<i>O</i>')(\m~3~-acetato-\k^4^<i>O</i>,<i>O</i>':<i>O</i>:<i>O</i>')(4-chlorobenzene-1,2-diamine-\k<i>N</i>)lead(II)]
_space_group_crystal_system      triclinic
_space_group_IT_number           2
_space_group_name_Hall           '-P 1'
_space_group_name_H-M_alt        'P -1'
_symmetry_space_group_name_Hall  '-P 1'
_symmetry_space_group_name_H-M   'P -1'
_atom_sites_solution_hydrogens   mixed
_cell_angle_alpha                89.762(4)
_cell_angle_beta                 76.405(4)
_cell_angle_gamma                66.691(4)
_cell_formula_units_Z            2
_cell_length_a                   7.3623(10)
_cell_length_b                   7.6177(10)
_cell_length_c                   13.1413(17)
_cell_measurement_reflns_used    120
_cell_measurement_temperature    200.(2)
_cell_measurement_theta_max      25.6798
_cell_measurement_theta_min      3.5862
_cell_volume                     654.63(15)
_computing_cell_refinement
;
APEX2 (Bruker, 2013)
;
_computing_data_collection
;
APEX2 (Bruker, 2013)
;
_computing_data_reduction
;
SAINT (Bruker, 2013)
;
_computing_molecular_graphics
;
PLATON (Spek, 2009), Mercury (Macrae <i>et al.</i>, 2006) and
ORTEP-3 for
Windows (Farrugia, 2012)
;
_computing_publication_material
;
publCIF (Westrip, 2010)
;
_computing_structure_refinement
;
SHELXL2014 (Sheldrick, 2008)
;
_computing_structure_solution
;
SHELXS97 (Sheldrick, 2008)
;
_diffrn_ambient_temperature      200.(2)
_diffrn_measured_fraction_theta_full 0.957
_diffrn_measured_fraction_theta_max 0.957
_diffrn_measurement_device_type  'Bruker SMART X2S benchtop'
_diffrn_measurement_method       '\w scans'
_diffrn_radiation_monochromator  'doubly curved silicon crystal'
_diffrn_radiation_type           'Mo Ka'
_diffrn_radiation_wavelength     0.71073
_diffrn_reflns_av_R_equivalents  0.0570
_diffrn_reflns_limit_h_max       9
_diffrn_reflns_limit_h_min       -9
_diffrn_reflns_limit_k_max       9
_diffrn_reflns_limit_k_min       -9
_diffrn_reflns_limit_l_max       16
_diffrn_reflns_limit_l_min       -15
_diffrn_reflns_number            6572
_diffrn_reflns_theta_full        26.37
_diffrn_reflns_theta_max         26.37
_diffrn_reflns_theta_min         2.93
_exptl_absorpt_coefficient_mu    13.098
_exptl_absorpt_correction_T_max  0.35
_exptl_absorpt_correction_T_min  0.11
_exptl_absorpt_correction_type   multi-scan
_exptl_absorpt_process_details
;
(SADABS; Bruker, 2013)
;
_exptl_crystal_colour            'clear orange'
_exptl_crystal_density_diffrn    2.374
_exptl_crystal_density_method    'not measured'
_exptl_crystal_description       needle
_exptl_crystal_F_000             436
_exptl_crystal_size_max          0.300
_exptl_crystal_size_mid          0.100
_exptl_crystal_size_min          0.100
_refine_diff_density_max         3.380
_refine_diff_density_min         -3.080
_refine_ls_extinction_coef       0.0042(8)
_refine_ls_extinction_method
;
SHELXL2014 (Sheldrick, 2008)
;
_refine_ls_goodness_of_fit_ref   1.037
_refine_ls_hydrogen_treatment    mixed
_refine_ls_matrix_type           full
_refine_ls_number_parameters     178
_refine_ls_number_reflns         2572
_refine_ls_number_restraints     6
_refine_ls_restrained_S_all      1.036
_refine_ls_R_factor_all          0.0442
_refine_ls_R_factor_gt           0.0375
_refine_ls_shift/su_max          0.001
_refine_ls_shift/su_mean         0.000
_refine_ls_structure_factor_coef Fsqd
_refine_ls_weighting_details
'w=1/[\s^2^(Fo^2^)+(0.0540P)^2^] where P=(Fo^2^+2Fc^2^)/3'
_refine_ls_weighting_scheme      calc
_refine_ls_wR_factor_gt          0.0939
_refine_ls_wR_factor_ref         0.0995
_reflns_number_gt                2262
_reflns_number_total             2572
_reflns_threshold_expression     I>2\s(I)
_cod_data_source_file            zl2608sup1.cif
_cod_data_source_block           II
_cod_database_code               2240239
_cod_database_fobs_code          2240239
#BEGIN Tags that were not found in dictionaries:
_shelx_hkl_file
;
  -1   0   0  213.76    9.73
   1   0   0  228.53   12.67
   1   0   0  223.32    9.76
  -2   0   0  280.75   13.04
  -2   0   0  285.30   17.64
   2   0   0  286.24   13.10
   2   0   0  306.56   17.30
   3   0   0  537.70   31.09
   3   0   0  539.11   24.08
   4   0   0   74.33    5.10
   4   0   0   70.51    7.07
   5   0   0   85.23    6.18
   5   0   0   91.76    8.92
   6   0   0  281.12   15.02
   6   0   0  254.28   19.58
   7   0   0   20.02    5.51
   7   0   0   17.76    4.07
   8   0   0   64.10    7.31
   8   0   0   50.65    9.98
   8  -1   0   10.32    3.95
   8  -1   0   10.96    5.33
  -8   1   0   -0.25    6.08
   7  -1   0   80.68    7.48
   7  -1   0   67.19    9.60
   6  -1   0   74.88    6.57
   6  -1   0   74.40    8.93
   5  -1   0   33.91    6.09
   5  -1   0   24.62    3.66
   4  -1   0  329.55   21.50
   4  -1   0  330.33   16.35
   3  -1   0  228.75   15.29
   3  -1   0  232.63   11.57
   2  -1   0  112.94    6.04
   2  -1   0  116.41    8.20
  -2   1   0  109.12    5.85
  -2   1   0  111.32    8.36
   1  -1   0  483.59   20.69
   1  -1   0  448.03   26.07
  -1   1   0  496.22   20.64
  -1   1   0  471.00   26.21
   0  -1   0  257.36   12.56
   0  -1   0  281.82   15.37
   0  -1   0  269.23   14.55
   0   1   0  280.45   14.45
   0   1   0  272.99   12.47
   0   1   0  297.99   15.40
  -1  -1   0   47.03    6.15
   1   1   0   75.00    3.44
   1   1   0   68.80    4.81
   1   1   0   66.75    6.77
  -2  -1   0  619.91   38.32
   2   1   0  760.22   29.61
   2   1   0  575.83   37.36
   2   1   0  677.14   29.02
   2   1   0  726.65   38.47
  -3  -1   0  220.57   16.34
   3   1   0  224.60   15.27
   3   1   0  223.90   10.83
   4   1   0   47.25    5.95
   4   1   0   48.38    3.74
   5   1   0  432.18   20.74
   5   1   0  427.12   27.64
   6   1   0   18.07    4.77
   6   1   0   16.27    3.20
   7   1   0   96.80   11.04
   7   1   0   95.85    7.83
   8   1   0  121.91   10.03
   8   1   0  123.39   13.75
  -8   2   0    3.11    6.85
   7  -2   0   42.37    6.53
   7  -2   0   62.85   10.56
   6  -2   0   29.46    6.55
   6  -2   0   30.90    5.02
   5  -2   0  172.93   10.82
   5  -2   0  177.51   14.68
   4  -2   0   23.82    3.50
   4  -2   0   21.83    4.57
   3  -2   0   39.06    4.99
   3  -2   0   39.14    3.54
   2  -2   0  157.89   11.89
   1  -2   0  139.76    9.51
   1  -2   0  136.61    7.40
  -1   2   0  131.94    7.05
  -1   2   0  147.52    9.76
   0  -2   0  181.55   11.69
   0  -2   0  179.15   10.38
   0  -2   0  172.70    9.87
   0   2   0  201.43   11.76
   0   2   0  186.68    9.48
   0   2   0  197.43    9.99
  -1  -2   0  508.90   28.46
  -1  -2   0  521.80   22.76
  -1  -2   0  483.15   28.16
   1   2   0  567.50   27.73
   1   2   0  517.36   22.82
   1   2   0  527.75   28.49
  -2  -2   0    9.68    4.29
  -2  -2   0   12.71    1.70
  -2  -2   0    5.12    2.29
   2   2   0    9.46    4.28
   2   2   0   12.90    2.68
   2   2   0   11.92    1.47
  -3  -2   0   75.55    9.78
   3   2   0  104.51    9.11
   3   2   0  113.01   10.95
   4   2   0  157.59    8.93
   4   2   0  176.86   14.45
   5   2   0   21.79    3.15
   5   2   0   23.17    5.54
   6   2   0   98.96    7.32
   6   2   0  107.65   11.37
   7   2   0  172.59   16.17
   7   2   0  181.57   11.59
   8   2   0   19.51    6.31
   8   2   0   18.65    4.42
   9   2   0   50.13   10.65
   7  -3   0   16.36    5.11
   6  -3   0   91.41    8.46
   6  -3   0   87.68   11.01
   5  -3   0  104.45   11.25
   5  -3   0  109.65    8.64
   4  -3   0   11.00    2.77
   4  -3   0   13.97    4.01
  -4   3   0    1.17    3.27
   3  -3   0  371.76   18.43
   3  -3   0  352.71   23.47
   2  -3   0  116.88    7.13
   2  -3   0   84.54    8.66
   2  -3   0  117.11    9.28
   1  -3   0   93.76    6.52
   1  -3   0   92.96    7.98
   1  -3   0  100.96    6.11
  -1   3   0  101.83    6.01
   0  -3   0  491.97   29.02
   0  -3   0  464.73   26.56
   0  -3   0  517.11   24.26
   0   3   0  538.13   23.33
  -1  -3   0    2.51    1.19
  -1  -3   0    2.99    1.18
  -1  -3   0    2.80    1.41
   1   3   0    1.41    1.18
   1   3   0    2.59    1.17
   1   3   0    3.01    0.80
  -2  -3   0  182.09    9.33
   2   3   0  193.99    9.34
   2   3   0  183.16   11.78
   2   3   0  190.89   11.41
  -3  -3   0  332.65   16.48
   3   3   0  310.22   27.09
   3   3   0  380.73   21.50
  -4  -3   0   32.94    7.08
   4   3   0   71.98   11.82
   5   3   0   87.55   11.65
   5   3   0   88.45    6.36
   6   3   0  312.31   24.04
   6   3   0  272.78   15.37
  -7  -3   0   -1.42    3.23
   7   3   0   -0.37    1.22
   7   3   0    2.87    3.54
   8   3   0   82.48   11.83
   8   3   0   73.73    7.38
   9   3   0   70.34   13.08
   9   3   0   65.42    8.07
   6  -4   0   54.83    8.11
   6  -4   0   60.22   11.04
   5  -4   0   18.63    5.59
   5  -4   0   18.37    4.44
   4  -4   0  145.39   10.54
   4  -4   0  147.69   13.69
   4  -4   0  147.06   10.50
   3  -4   0   87.07    6.62
   3  -4   0   83.27    9.03
   3  -4   0   78.69    6.87
   2  -4   0   70.21    6.19
   2  -4   0   76.67    5.51
   2  -4   0   71.25    7.36
   2  -4   0   73.61    7.81
   1  -4   0  232.53   16.60
   1  -4   0  246.91   13.72
   1  -4   0  235.41   13.71
   0  -4   0  195.37   12.26
   0  -4   0  198.61   14.52
   0  -4   0  214.31   11.11
  -1  -4   0   94.39    6.88
  -1  -4   0   96.10    6.61
  -1  -4   0  108.32    8.81
   1   4   0  109.73    6.27
   1   4   0  103.43    6.93
  -2  -4   0  564.90   26.49
  -2  -4   0  553.30   33.36
   2   4   0  636.78   31.69
  -3  -4   0   72.33    5.20
   3   4   0   52.16   12.44
   3   4   0   88.30    6.56
  -4  -4   0  161.36    9.74
   4   4   0  169.64   19.65
   5   4   0  303.31   16.37
   5   4   0  365.07   29.65
  -6  -4   0    8.39    4.72
   6   4   0   22.52    3.62
   6   4   0   25.56    8.07
   7   4   0   69.00    6.58
   7   4   0   66.70   12.79
   8   4   0  135.55   16.66
   8   4   0  134.32   10.40
  -9  -4   0   -1.57    6.66
   9   4   0    0.24    4.53
   9   4   0    2.44    2.80
   6  -5   0    3.76    4.02
   5  -5   0   94.13    9.64
   5  -5   0   76.03   10.86
   4  -5   0   79.30   10.08
   4  -5   0   68.78    7.76
   3  -5   0    6.74    3.03
   3  -5   0    5.61    3.60
   2  -5   0  232.97   13.79
   2  -5   0  224.98   17.57
   2  -5   0  230.10   14.24
   1  -5   0   74.49    5.29
   1  -5   0   77.17    7.09
   1  -5   0   76.57    8.32
   0  -5   0  132.06   11.55
   0  -5   0  132.82    9.76
  -1  -5   0  246.82   17.18
  -1  -5   0  226.82   13.59
  -2  -5   0   70.39    5.59
  -2  -5   0   73.09    7.54
   2   5   0   85.95    5.59
  -3  -5   0   40.51    3.83
   3   5   0   41.19    3.93
   3   5   0   16.54    7.67
  -4  -5   0  225.48   12.08
   4   5   0  173.29   22.37
  -5  -5   0   95.51    7.47
   5   5   0   83.02   16.51
   6   5   0   67.45    6.02
   6   5   0   60.17   13.81
   7   5   0  113.70   17.27
   7   5   0  135.33    9.62
  -8  -5   0    2.49    5.67
   8   5   0    6.45    6.46
   8   5   0    6.69    3.07
   9   5   0   38.80   11.06
   9   5   0   41.47    6.76
   4  -6   0   15.83    4.82
   4  -6   0   15.74    5.98
   3  -6   0  111.79    9.98
   3  -6   0  109.90   12.57
   2  -6   0   15.32    4.95
   2  -6   0   15.32    4.20
   1  -6   0   31.75    5.30
   1  -6   0   31.46    6.26
   0  -6   0  142.74   10.21
   0  -6   0  124.44   12.04
  -1  -6   0   47.96    6.80
  -1  -6   0   46.44    5.34
  -2  -6   0   61.20    5.50
  -2  -6   0   62.37    7.71
   2   6   0   57.31    4.35
  -3  -6   0  235.92   13.54
  -3  -6   0  248.48   17.98
   3   6   0  262.90   15.00
  -4  -6   0   11.54    2.79
  -4  -6   0    4.92    3.46
   4   6   0    4.12    5.68
  -5  -6   0   18.47    6.25
   5   6   0   36.54   11.96
   6   6   0   99.24    7.84
   6   6   0  126.18   22.34
  -7  -6   0   -0.88    4.05
   7   6   0    5.95    2.74
   7   6   0    6.51    7.98
   8   6   0   25.65   10.68
   8   6   0   29.22    5.34
  -9  -6   0    0.01    7.42
   9   6   0   52.05   13.77
   3  -7   0   27.52    7.75
   2  -7   0   25.81    6.78
   2  -7   0   30.00    5.69
   1  -7   0  124.15   13.12
   1  -7   0  123.61   10.06
   0  -7   0   25.91    4.86
   0  -7   0   29.03    6.65
  -1  -7   0   85.64   10.30
  -1  -7   0   87.38    7.60
  -2  -7   0  161.07   14.71
  -2  -7   0  159.38   10.51
  -3  -7   0   34.33    4.91
  -3  -7   0   34.27    6.80
  -4  -7   0   15.93    5.30
   4   7   0   26.64   11.11
  -5  -7   0   25.54    7.20
   5   7   0   49.81   14.82
  -6  -7   0   11.39    3.67
  -6  -7   0    1.48    4.39
   6   7   0    3.08    6.74
   7   7   0   34.86    5.26
   7   7   0   39.74   14.32
   8   7   0   68.53   17.15
   8   7   0   80.93    8.07
   9   7   0   -2.40    6.03
   1  -8   0   10.42    5.06
   0  -8   0   26.33    5.19
   0  -8   0   16.64    5.34
  -1  -8   0   90.90   11.15
  -1  -8   0   84.46    7.65
  -2  -8   0   30.21    4.93
  -2  -8   0   30.44    7.33
  -3  -8   0   42.66    5.81
  -3  -8   0   47.37    9.22
   4   8   0   27.32   12.17
  -5  -8   0   13.93    3.93
   5   8   0    2.91    7.45
  -6  -8   0   52.68    7.68
   6   8   0   23.31   11.91
   7   8   0   37.08    5.64
   7   8   0   33.76   14.77
  -8  -8   0   -4.17    5.57
   8   8   0    7.00    3.27
   8   8   0    7.91    9.51
   0  -9   0   74.46   10.88
  -1  -9   0   11.14    5.00
  -2  -9   0   26.36    7.50
  -3  -9   0   87.91   12.04
  -4  -9   0    3.33    2.75
   4   9   0    2.95    9.03
  -5  -9   0   23.69    5.11
   5   9   0   14.13   11.12
  -6  -9   0   44.79    7.32
   6   9   0    5.98    9.48
   7   9   0    2.21    8.52
   7   9   0    2.27    2.71
  -3 -10   0   11.58    6.37
   4  10   0    5.99   10.35
   5  10   0    7.15   11.41
   6  10   0    0.47   10.88
   5  10  -1    7.28   10.52
   4  10  -1    8.23   11.74
  -3 -10   1    8.71    6.14
   7   9  -1   -1.52    7.57
   6   9  -1    6.33    9.76
  -6  -9   1   43.02    7.57
   5   9  -1    3.34    9.17
  -5  -9   1   10.02    3.99
   4   9  -1    0.57    7.31
  -4  -9   1   12.48    3.90
  -3  -9   1   86.01    8.37
  -3  -9   1   88.00   12.33
  -2  -9   1    6.18    4.32
  -2  -9   1    5.16    3.16
  -1  -9   1   17.03    5.97
   0  -9   1   51.45   10.39
   8   8  -1   10.51    3.98
   8   8  -1    6.36   10.64
  -8  -8   1    0.00    6.96
   7   8  -1   70.67   19.93
   6   8  -1   16.12   10.96
  -6  -8   1   37.20    6.67
   5   8  -1    3.47    8.45
  -5  -8   1   27.37    5.35
  -3  -8   1   40.93    8.48
  -3  -8   1   33.67    5.60
  -2  -8   1   19.35    4.51
  -2  -8   1   29.18    7.48
  -1  -8   1  118.24   13.25
  -1  -8   1  125.53    9.95
   0  -8   1   13.08    5.30
   0  -8   1   18.41    4.62
   1  -8   1   39.72    8.43
   1  -8   1   40.68    6.72
   9   7  -1    6.42    8.88
   8   7  -1   67.90    7.68
   8   7  -1   72.60   18.38
   7   7  -1   34.79   14.23
   7   7  -1   40.56    6.07
   6   7  -1   -0.59    5.52
  -6  -7   1    3.85    3.01
  -6  -7   1    1.02    3.82
   5   7  -1   43.02   14.21
  -5  -7   1   22.63    6.63
   4   7  -1   29.70   12.50
  -4  -7   1   26.57    6.36
  -3  -7   1   47.66    5.49
  -3  -7   1   55.78    7.91
  -2  -7   1  177.02   12.09
  -2  -7   1  191.01   16.18
  -1  -7   1   15.40    4.89
  -1  -7   1   23.50    4.85
   0  -7   1   56.32    7.47
   0  -7   1   52.90    7.92
   1  -7   1   98.32   11.39
   1  -7   1   90.33    8.70
   2  -7   1   22.05    5.07
   2  -7   1   27.37    7.21
   3  -7   1   28.35    7.55
   3  -7   1   27.52    6.10
   9   6  -1   67.67   16.21
   8   6  -1   20.70   10.83
   8   6  -1   22.62    4.79
   7   6  -1   16.26    9.91
   7   6  -1   23.09    4.58
  -7  -6   1    6.38    5.97
   6   6  -1  117.75   22.43
   5   6  -1   14.50    8.75
  -5  -6   1   20.84    4.08
  -5  -6   1    8.21    4.64
   4   6  -1   20.86    9.56
  -4  -6   1   29.09    6.44
  -3  -6   1   81.48    8.49
   2   6  -1   11.85    2.38
  -2  -6   1   12.56    3.26
  -2  -6   1   14.50    4.03
  -2  -6   1   10.54    2.83
  -1  -6   1   53.18    7.25
  -1  -6   1   42.31    4.09
  -1  -6   1   48.74    5.84
   0  -6   1  215.96   14.07
   0  -6   1  205.87   16.76
   1  -6   1   37.26    6.99
   1  -6   1   43.18    6.33
   2  -6   1   46.68    6.85
   2  -6   1   55.50    9.20
   3  -6   1  149.46   14.71
   3  -6   1  143.42   11.67
   4  -6   1    6.72    4.53
   4  -6   1    8.14    3.91
   5  -6   1   33.56    7.44
   9   5  -1   28.06   10.81
   8   5  -1   37.22    5.97
   8   5  -1   42.42   12.47
   7   5  -1   99.34   18.58
   7   5  -1   99.48    8.47
   6   5  -1   42.29    4.85
   6   5  -1   54.88   14.34
   5   5  -1   47.31   13.61
  -5  -5   1   41.39    5.71
   4   5  -1  187.62   23.66
  -4  -5   1  226.03   12.53
   3   5  -1   27.55   10.29
  -3  -5   1   47.88    4.39
  -3  -5   1   34.23    6.21
   2   5  -1  215.37   12.79
  -2  -5   1  221.37   15.15
  -2  -5   1  218.01   12.04
  -2  -5   1  181.07   13.50
   1   5  -1  280.24   15.12
  -1  -5   1  225.86   15.01
  -1  -5   1  269.34   18.65
  -1  -5   1  277.49   15.39
   0  -5   1   26.87    5.26
   0  -5   1   28.25    2.48
   0  -5   1   32.20    5.23
   1  -5   1   72.44    7.10
   1  -5   1   72.19    5.73
   1  -5   1   80.80    8.65
   2  -5   1  128.66   11.80
   2  -5   1  115.33    9.46
   2  -5   1  123.87    8.56
   3  -5   1    8.70    3.22
   3  -5   1    7.52    3.45
   4  -5   1   26.72    6.55
   4  -5   1   31.45    5.99
   5  -5   1   76.81    8.89
   5  -5   1   79.25   10.84
   9   4  -1    6.52    6.39
   8   4  -1  109.46    9.54
   8   4  -1  122.04   16.67
   7   4  -1   47.55    5.49
   7   4  -1   52.08   12.11
   6   4  -1   47.73    5.15
   6   4  -1   68.10   13.80
  -5  -4   1  129.48   13.51
   4   4  -1   88.88   16.63
  -4  -4   1  103.45    7.12
   3   4  -1  105.44   15.75
  -3  -4   1  137.46   11.11
   2   4  -1  313.55   15.99
  -2  -4   1  286.43   14.00
  -2  -4   1  248.49   17.09
  -2  -4   1  242.16   16.80
   1   4  -1   28.60    2.90
  -1  -4   1   30.37    4.29
  -1  -4   1   21.89    3.66
  -1  -4   1   29.74    2.83
   0   4  -1  169.65    9.53
   0  -4   1  166.57   10.00
   0  -4   1  160.05   12.51
   0  -4   1  167.38   11.05
   1  -4   1  370.47   19.23
   1  -4   1  342.37   22.80
   1  -4   1  358.00   20.23
   2  -4   1  100.18    7.64
   2  -4   1   88.22    8.86
   2  -4   1   95.41    6.85
   3  -4   1  210.96   13.24
   3  -4   1  217.84   13.74
   3  -4   1  222.24   16.80
   4  -4   1  132.50   12.78
   4  -4   1  141.26   10.33
   4  -4   1  144.57   10.50
   5  -4   1    0.91    2.36
   5  -4   1    0.56    1.93
   5  -4   1    0.89    2.49
   6  -4   1   71.15    8.23
   6  -4   1   58.77   10.50
   9   3  -1   73.86   13.85
   8   3  -1   33.41    8.93
   8   3  -1   36.83    5.76
   7   3  -1   24.06    4.49
   7   3  -1   24.16    7.70
   6   3  -1  211.82   20.03
   6   3  -1  209.36   12.48
   5   3  -1   41.35    9.37
   5   3  -1   35.02    3.97
   4   3  -1   50.74   10.52
  -4  -3   1   22.05    6.02
  -4  -3   1   32.83    3.70
   3   3  -1  379.05   30.93
  -3  -3   1  385.07   18.33
   2   3  -1  138.32    8.44
   2   3  -1  137.12    7.17
   2   3  -1  125.49    8.91
  -2  -3   1  118.20    9.31
  -2  -3   1  125.78    7.10
   1   3  -1   87.12    5.88
   1   3  -1   97.48    7.25
   1   3  -1   92.98    6.13
  -1  -3   1   95.09    7.22
  -1  -3   1   88.54    5.99
  -1  -3   1   94.75    6.10
   0   3  -1  500.44   24.88
   0   3  -1  487.52   22.32
   0  -3   1  461.65   27.19
   0  -3   1  481.61   23.06
   0  -3   1  389.09   25.33
   1  -3   1   40.26    4.19
   1  -3   1   40.70    4.80
   1  -3   1   42.05    3.48
   2  -3   1  170.54   10.81
   2  -3   1  170.85   10.23
   2  -3   1  193.97   13.36
   3  -3   1  238.04   16.57
   3  -3   1  225.78   14.09
   3  -3   1  225.89   12.83
   4  -3   1   21.92    3.68
   4  -3   1   13.92    3.97
   4  -3   1   16.95    3.46
   5  -3   1   95.68    8.06
   5  -3   1   88.68   10.02
   5  -3   1   93.55    8.20
   6  -3   1  129.73   10.42
   6  -3   1  132.97   13.59
   6  -3   1  124.78   10.87
   7  -3   1    3.84    4.04
   7  -3   1    6.40    3.80
   7  -3   1    1.67    3.11
   9   2  -1    9.39    5.69
   8   2  -1   25.17    5.20
   8   2  -1   25.24    7.42
   7   2  -1  109.53   12.95
   7   2  -1  124.20    9.14
   6   2  -1   64.16    9.36
   6   2  -1   57.40    5.37
   5   2  -1   63.58    8.88
   5   2  -1   59.80    4.99
   4   2  -1  289.02   15.41
   4   2  -1  360.39   24.27
   3   2  -1   21.74    5.76
  -3  -2   1   14.39    3.83
  -3  -2   1   22.12    2.69
   2   2  -1  343.46   18.01
   2   2  -1  331.42   14.07
   2   2  -1  260.19   22.85
  -2  -2   1  259.66   18.30
   1   2  -1   64.94    4.92
   1   2  -1   71.86    4.45
   1   2  -1   60.44    3.97
  -1  -2   1   57.10    4.72
  -1  -2   1   66.62    4.61
  -1  -2   1   65.76    3.97
   0   2  -1    2.74    0.91
   0   2  -1    2.96    1.49
   0   2  -1    2.10    1.23
   0  -2   1    2.47    1.23
   0  -2   1    2.96    1.31
   0  -2   1    3.70    1.51
  -1   2  -1  149.41    7.95
  -1   2  -1  146.72   10.06
   1  -2   1  147.34    8.68
   1  -2   1  146.06   10.00
   1  -2   1  144.19    8.14
   2  -2   1  484.15   22.62
   2  -2   1  497.19   28.51
   3  -2   1   17.90    3.54
   3  -2   1   15.36    2.56
   4  -2   1  162.77   12.94
   4  -2   1  169.88   10.07
   5  -2   1  143.25    9.48
   5  -2   1  134.79   12.19
  -6   2  -1   -3.50    3.96
   6  -2   1    0.70    2.52
   6  -2   1   -0.51    1.82
   7  -2   1   59.67    9.02
   7  -2   1   59.87    7.13
   8  -2   1   67.37    8.99
   8   1  -1  133.32   10.74
   8   1  -1  145.26   15.50
   7   1  -1   38.23    7.84
   7   1  -1   40.99    5.55
   6   1  -1  107.38    7.71
   6   1  -1  102.98   11.08
   5   1  -1  281.82   14.67
   5   1  -1  288.29   20.66
   4   1  -1   16.22    2.44
   4   1  -1   12.03    3.58
  -4  -1   1    6.26    3.50
   3   1  -1   66.39    7.29
   3   1  -1   73.60    4.59
   2   1  -1  518.93   30.12
   2   1  -1  551.89   22.00
  -2  -1   1  439.48   29.70
  -2  -1   1  453.00   21.96
   1   1  -1  199.70   10.89
   1   1  -1  187.65    8.64
  -1  -1   1  188.70   11.08
  -1  -1   1  180.90    8.67
   0   1  -1  282.65   15.00
   0   1  -1  297.16   15.22
   0  -1   1  233.95   15.01
   0  -1   1  261.19   12.72
   0  -1   1  279.23   15.14
  -1   1  -1  404.79   22.33
   1  -1   1  395.11   22.20
   1  -1   1  398.36   17.84
   1  -1   1  398.76   21.45
  -2   1  -1    4.96    1.12
  -2   1  -1    4.65    1.67
   2  -1   1    0.82    2.15
   2  -1   1    6.80    1.76
   2  -1   1    5.98    1.24
   3  -1   1  483.61   22.77
   3  -1   1  514.17   29.07
   4  -1   1  192.58   13.95
   4  -1   1  195.22   10.69
  -5   1  -1    2.13    3.60
   5  -1   1   10.51    2.39
   5  -1   1   12.60    3.60
   6  -1   1   63.22    7.99
   6  -1   1   66.53    6.13
   7  -1   1   91.08    8.19
   7  -1   1   90.69   10.81
  -8   1  -1    2.13    6.47
   8  -1   1    2.67    3.02
   8  -1   1    0.52    2.73
   8   0  -1   20.61    4.91
   8   0  -1   31.58    7.96
   7   0  -1   27.62    4.86
   7   0  -1   27.44    6.60
   6   0  -1  272.65   20.70
   6   0  -1  277.95   15.19
   5   0  -1  105.77    7.13
   5   0  -1  108.83   10.33
   4   0  -1   58.37    4.42
   4   0  -1   58.89    6.60
   3   0  -1  512.59   30.23
   3   0  -1  510.20   22.96
   2   0  -1   32.42    3.84
   2   0  -1   35.52    4.27
   2   0  -1   33.05    2.40
  -2   0   1   34.30    4.59
   1   0  -1  167.02    9.05
   1   0  -1  139.09    6.61
   1   0  -1  137.44    6.87
   1   0  -1  151.84    9.36
  -1   0   1  133.10    8.97
   0   0  -1   -0.70    0.14
   0   0  -1   -0.68    0.31
   0   0  -1   -0.52    0.34
   0   0   1   -0.74    0.24
   0   0   1   -0.59    0.21
   0   0   1   -0.73    0.08
  -1   0  -1   14.26    1.46
  -1   0  -1   13.98    1.12
   1   0   1   13.32    1.11
   1   0   1   14.29    1.40
  -2   0  -1  111.59    7.54
  -2   0  -1   96.05    5.30
   2   0   1  106.39    7.10
   2   0   1  109.38    5.48
  -3   0  -1  471.42   29.06
   3   0   1  523.64   28.45
   3   0   1  485.67   22.19
   4   0   1   27.21    3.95
   4   0   1   24.48    2.70
   5   0   1  172.32   13.63
   5   0   1  190.51   10.51
   6   0   1  162.92   13.66
   6   0   1  164.05   10.29
  -7   0  -1   -2.20    3.89
   7   0   1    0.20    2.19
   7   0   1    1.07    2.00
   8   0   1   71.19   10.06
   8   0   1   68.83    7.31
  -8   1   1    1.12    6.71
   7  -1  -1  124.41    9.79
   7  -1  -1  134.28   13.98
   6  -1  -1   48.09    8.23
   6  -1  -1   44.93    5.16
   5  -1  -1  132.62    8.64
   5  -1  -1  135.99   12.17
   4  -1  -1  251.30   17.87
   4  -1  -1  264.48   13.34
   3  -1  -1   55.02    3.96
   3  -1  -1   53.97    5.78
   2  -1  -1   78.67    4.49
   2  -1  -1   80.86    6.52
   2  -1  -1   78.01    7.04
  -2   1   1   75.29    6.90
  -2   1   1   74.83    4.33
   1  -1  -1  780.19   40.10
   1  -1  -1  735.39   40.21
   1  -1  -1  749.65   31.71
  -1   1   1  755.89   40.39
  -1   1   1  698.43   31.58
   0  -1  -1  113.74    6.35
   0  -1  -1  113.22    5.31
   0  -1  -1  115.54    6.91
   0   1   1  120.47    6.28
   0   1   1  114.02    5.14
   1   1   1  294.24   17.79
  -2  -1  -1  806.81   49.17
  -2  -1  -1  871.65   38.31
   2   1   1  978.55   38.45
   2   1   1  943.38   49.01
  -3  -1  -1    1.76    1.94
  -3  -1  -1    1.43    0.86
  -3  -1  -1    1.53    1.83
   3   1   1    2.04    0.88
   3   1   1    0.84    2.38
   3   1   1    0.67    1.23
   4   1   1  298.98   18.94
   4   1   1  284.83   14.14
   5   1   1  244.42   17.10
   5   1   1  239.11   12.73
   6   1   1   25.76    3.82
   6   1   1   18.18    4.55
   7   1   1   55.87    7.83
   7   1   1   57.19    5.72
   8   1   1  136.48   14.20
   8   1   1  145.47   10.89
   9   1   1    2.52    3.85
   7  -2  -1   12.20    5.11
   7  -2  -1    9.97    3.79
  -7   2   1    0.22    4.91
   6  -2  -1   44.95    5.93
   6  -2  -1   30.84    7.10
   5  -2  -1  124.09   11.86
   5  -2  -1  123.85    8.60
   4  -2  -1   15.37    2.86
   4  -2  -1   15.97    3.92
   3  -2  -1   77.45    7.66
   3  -2  -1   78.83    5.38
   2  -2  -1  453.61   21.35
   2  -2  -1  476.24   27.89
   2  -2  -1  485.97   27.87
   1  -2  -1   32.82    3.59
   1  -2  -1   34.24    3.44
   1  -2  -1   30.61    2.50
  -1   2   1   28.98    2.27
  -1   2   1   31.32    3.75
   0  -2  -1  633.02   28.79
   0  -2  -1  637.97   35.52
   0   2   1  678.47   35.52
   0   2   1  650.96   28.10
  -1  -2  -1  516.19   21.85
  -1  -2  -1  508.52   27.74
   1   2   1  514.78   27.66
   1   2   1  491.57   21.93
  -2  -2  -1    4.70    1.06
  -2  -2  -1    0.72    1.53
   2   2   1    4.22    1.95
   2   2   1    3.00    0.99
   2   2   1    4.52    0.95
   2   2   1    4.64    3.03
  -3  -2  -1  125.99   12.76
   3   2   1  167.60    8.23
   3   2   1  175.23   13.42
   3   2   1  168.07    8.61
   4   2   1  354.02   23.55
   4   2   1  357.21   16.85
  -5  -2  -1    4.07    3.60
   5   2   1   11.80    2.17
   5   2   1   14.90    4.07
   6   2   1  230.81   17.62
   6   2   1  219.36   12.55
   7   2   1  145.02   10.02
   7   2   1  154.96   14.20
  -8  -2  -1    1.22    4.81
   8   2   1    0.11    2.08
   8   2   1    3.31    3.11
   9   2   1   72.53   11.04
   7  -3  -1   18.47    5.03
   6  -3  -1  136.60   10.49
   6  -3  -1  129.66   13.86
   5  -3  -1    7.03    3.32
   5  -3  -1    5.83    2.42
  -5   3   1    2.22    3.87
   4  -3  -1  205.73   15.90
   4  -3  -1  186.85   11.60
   3  -3  -1  275.44   14.37
   3  -3  -1  264.30   18.79
   2  -3  -1    9.74    1.99
   2  -3  -1    7.81    2.50
   2  -3  -1    8.86    2.79
  -2   3   1    2.33    2.31
   1  -3  -1   99.43    6.74
   1  -3  -1   94.75    6.17
   1  -3  -1   96.38    8.00
  -1   3   1   91.50    5.42
   0  -3  -1  547.35   26.34
   0  -3  -1  550.88   32.21
   0   3   1  545.14   25.14
   0   3   1  619.40   32.92
  -1  -3  -1    0.66    0.74
  -1  -3  -1    0.68    1.05
  -1  -3  -1    0.47    0.86
   1   3   1    1.82    1.20
   1   3   1    1.63    0.47
   1   3   1    1.38    0.91
  -2  -3  -1  333.71   15.49
  -2  -3  -1  319.58   19.52
   2   3   1  363.26   15.55
   2   3   1  341.51   19.75
   2   3   1  348.34   19.65
  -3  -3  -1  440.63   21.65
   3   3   1  539.49   26.82
   3   3   1  416.82   32.76
  -4  -3  -1    0.55    2.31
   4   3   1    0.27    0.75
   4   3   1   -1.10    2.31
   5   3   1  197.84   17.00
   5   3   1  182.48   10.38
   6   3   1  231.74   18.61
   6   3   1  201.49   11.98
  -7  -3  -1    1.95    4.06
   7   3   1   -0.94    1.21
   7   3   1    2.68    3.16
   8   3   1  117.36   13.32
   8   3   1  103.62    8.74
   9   3   1   77.72    8.28
   9   3   1   76.26   11.54
   6  -4  -1   18.50    5.04
   5  -4  -1   49.86    9.03
   5  -4  -1   34.39    5.78
   4  -4  -1  126.08    9.65
   4  -4  -1  142.01   13.14
   3  -4  -1   88.14    7.14
   3  -4  -1   93.91    9.73
   2  -4  -1  114.01    7.94
   2  -4  -1  108.54    7.37
   2  -4  -1   98.58    9.84
   2  -4  -1  135.44    9.17
   1  -4  -1  525.79   29.47
   1  -4  -1  541.54   26.64
   1  -4  -1  530.53   33.04
   1  -4  -1  615.64   30.02
   0  -4  -1   61.13    5.60
   0  -4  -1   57.08    6.36
   0   4   1   63.77    4.56
  -1  -4  -1  207.12   11.22
  -1  -4  -1  224.09   14.87
   1   4   1  206.96   11.21
  -2  -4  -1  159.72    8.05
  -2  -4  -1  141.64   10.64
   2   4   1  161.19    9.11
   2   4   1  140.05    8.16
  -3  -4  -1    1.77    2.30
  -3  -4  -1    1.58    1.08
   3   4   1    4.52    4.56
   3   4   1    1.58    1.54
  -4  -4  -1   91.99    6.47
   4   4   1   87.52   13.43
   5   4   1  256.71   23.22
   5   4   1  238.72   12.95
  -6  -4  -1    0.72    3.37
   6   4   1    6.44    4.63
   6   4   1    1.05    1.25
   7   4   1  126.92   15.06
   7   4   1  138.28    9.54
   8   4   1  138.89   10.36
   8   4   1  134.75   15.63
  -9  -4  -1    6.53    7.97
   9   4   1   -0.10    2.27
   9   4   1    1.18    4.13
   5  -5  -1  104.04   10.07
   5  -5  -1   99.66   12.55
   4  -5  -1   22.33    4.90
   4  -5  -1   27.34    6.96
   3  -5  -1   56.76    6.35
   3  -5  -1   60.18    8.42
   2  -5  -1  143.89   10.19
   2  -5  -1  146.26   12.98
   1  -5  -1   42.80    5.13
   1  -5  -1   39.60    6.78
   0  -5  -1   86.72    8.51
   0  -5  -1   69.05    6.56
  -1  -5  -1  193.91   11.00
  -1  -5  -1  175.74   14.04
  -2  -5  -1   10.96    3.24
  -2  -5  -1   12.82    2.20
   2   5   1    9.96    1.50
  -3  -5  -1  166.51    9.50
   3   5   1  182.74   11.07
  -4  -5  -1  221.81   11.71
   4   5   1  166.75   21.24
  -5  -5  -1    1.58    3.10
   5   5   1    1.85    5.02
   6   5   1  202.33   22.32
   6   5   1  192.69   11.68
   7   5   1   83.97   15.19
   7   5   1   81.20    7.07
  -8  -5  -1    2.50    5.48
   8   5   1    1.10    4.31
   8   5   1    0.19    1.83
   9   5   1   60.81   12.95
   9   5   1   52.00    7.36
   4  -6  -1   37.50    8.84
   3  -6  -1  102.47    9.37
   3  -6  -1   95.49   11.55
   2  -6  -1   22.06    4.61
   2  -6  -1   20.55    5.71
   1  -6  -1   80.45    9.51
   1  -6  -1   82.92    7.55
   0  -6  -1  273.14   15.83
   0  -6  -1  271.86   20.11
  -1  -6  -1    8.29    3.58
  -1  -6  -1    8.27    2.62
  -2  -6  -1  158.23   13.21
  -2  -6  -1  141.64    8.86
  -3  -6  -1  170.01   13.83
  -3  -6  -1  155.74    9.80
   3   6   1  194.81   10.86
  -4  -6  -1    1.11    2.92
  -4  -6  -1    1.72    1.54
   4   6   1   -0.42    4.77
  -5  -6  -1   79.85    6.75
   5   6   1   55.09   14.62
   6   6   1  204.92   25.04
   6   6   1  230.50   13.11
  -7  -6  -1    2.92    5.47
   7   6   1    2.58    2.11
   7   6   1   -0.06    5.74
   8   6   1   69.14    7.17
   8   6   1   83.40   16.25
   9   6   1   63.09    7.59
   9   6   1   56.44   13.75
   2  -7  -1   89.62   11.55
   1  -7  -1   99.72    8.71
   1  -7  -1  115.18   12.23
   0  -7  -1    3.17    2.34
   0  -7  -1    3.00    3.19
  -1  -7  -1   99.56    7.62
  -1  -7  -1   88.93   10.61
  -2  -7  -1  123.31   12.53
  -2  -7  -1  119.63    8.17
  -3  -7  -1   21.12    5.56
  -3  -7  -1   26.89    3.91
  -4  -7  -1   11.44    4.76
   4   7   1   24.99   10.36
   5   7   1   80.70   18.42
  -6  -7  -1    2.26    4.40
   6   7   1    0.03    5.53
   7   7   1   47.98   14.66
   7   7   1   68.30    6.58
   8   7   1   61.13    6.90
   8   7   1   72.28   17.09
  -9  -7  -1   -6.07    6.97
   1  -8  -1   13.81    5.44
   0  -8  -1   53.50    9.92
  -1  -8  -1  138.86   14.43
  -2  -8  -1    7.68    4.66
  -2  -8  -1    9.92    2.85
  -3  -8  -1   85.87   11.03
  -3  -8  -1   76.21    6.53
   4   8   1   12.99    9.88
  -5  -8  -1    2.55    2.28
   5   8   1    2.14    6.86
   6   8   1   33.79   12.91
   7   8   1   45.65   15.97
   7   8   1   63.11    6.42
   8   8   1   -1.04    2.14
   0  -9  -1   46.41    9.66
  -1  -9  -1    1.39    4.31
  -2  -9  -1   24.67    7.52
  -3  -9  -1   91.38   12.87
   4   9   1    2.71    8.62
   5   9   1    2.06    8.19
   6   9   1   14.52   11.33
   7   9   1    0.16    2.23
   7   9   1   -1.44    8.90
   8   9   1   35.09    5.83
  -3 -10  -1    2.18    4.95
   4  10   1    9.45   11.17
   5  10   1    5.33   11.27
  -5 -10   2   25.57    6.51
  -4 -10   2    6.30    4.22
   7   9  -2    8.46   11.58
  -7  -9   2    9.91    5.55
   6   9  -2   27.49   14.18
  -6  -9   2   67.73    9.79
   5   9  -2   -1.83    7.35
  -5  -9   2    2.40    3.19
   4   9  -2    2.38    8.31
  -4  -9   2   26.17    5.61
  -3  -9   2   49.57    7.27
  -2  -9   2    4.64    4.15
  -2  -9   2    4.87    3.17
  -1  -9   2   38.91    6.54
  -1  -9   2   50.71   10.08
   8   8  -2   15.89   12.33
  -8  -8   2    1.41    6.83
   7   8  -2   32.14   14.96
   6   8  -2    2.48    8.58
  -6  -8   2   11.50    4.28
  -6  -8   2    3.01    4.93
   5   8  -2    9.72    9.61
  -5  -8   2   30.26    5.79
   4   8  -2   25.92   13.39
  -4  -8   2   94.89    8.53
  -3  -8   2    7.90    3.58
  -2  -8   2   59.14    7.85
  -2  -8   2   44.02    8.58
  -1  -8   2  114.25   12.75
  -1  -8   2  103.01    9.48
   0  -8   2    2.29    2.74
   0  -8   2    0.66    3.07
   1  -8   2   57.52   10.28
   1  -8   2   56.49    8.09
   2  -8   2   47.15    7.56
   8   7  -2   73.32    8.22
   8   7  -2   59.65   17.83
   7   7  -2   15.77    4.30
   7   7  -2   14.60   11.61
  -7  -7   2    3.14    4.98
   6   7  -2   50.79   16.24
  -6  -7   2   51.35    7.69
   5   7  -2   91.30   21.61
  -5  -7   2  126.74   10.17
   4   7  -2    6.99    8.74
  -4  -7   2   12.10    4.96
  -4  -7   2   18.72    4.11
  -3  -7   2   61.12    6.47
  -3  -7   2   46.79    7.61
  -2  -7   2  145.97   13.37
  -2  -7   2  131.45   10.58
  -1  -7   2   13.60    4.08
  -1  -7   2   11.62    4.30
   0  -7   2   60.75    8.68
   0  -7   2   63.17    7.30
   1  -7   2  114.89   12.31
   1  -7   2  115.60   10.08
   2  -7   2    2.50    3.62
   2  -7   2    4.48    3.13
   3  -7   2   74.74   11.07
   3  -7   2   78.91    9.06
   4  -7   2   66.28    9.92
   9   6  -2   93.77   20.13
   8   6  -2   11.14    3.92
   8   6  -2   11.39    8.70
  -8  -6   2   -2.22    4.63
   7   6  -2   39.45   14.28
   7   6  -2   30.16    5.07
  -7  -6   2   10.32    6.38
   6   6  -2  140.78   25.29
  -6  -6   2  101.49    9.49
   5   6  -2   17.26   10.44
  -5  -6   2   22.57    4.43
  -5  -6   2   11.78    5.24
   4   6  -2   15.04    8.94
  -4  -6   2   46.94    5.04
  -4  -6   2   29.57    6.68
  -3  -6   2  221.16   12.47
  -3  -6   2  163.70   14.01
   2   6  -2   48.31    5.02
  -2  -6   2   34.14    6.12
  -2  -6   2   34.13    4.71
  -2  -6   2   39.11    5.67
  -1  -6   2   97.08    7.06
  -1  -6   2  101.78    8.96
  -1  -6   2  100.64   10.34
   0  -6   2  172.86   10.03
   0  -6   2  155.85   13.99
   0  -6   2  159.77   12.16
   1  -6   2    3.06    2.55
   1  -6   2    1.27    2.68
   2  -6   2   69.35    9.21
   2  -6   2   69.66    7.68
   3  -6   2   83.43    9.03
   3  -6   2   85.84   10.82
   4  -6   2    3.55    3.56
   4  -6   2    3.95    3.27
   5  -6   2   54.41    9.29
   9   5  -2   16.22    9.63
   8   5  -2   61.74   15.08
   8   5  -2   69.16    7.67
   7   5  -2  114.73   20.63
   7   5  -2  112.34    9.35
   6   5  -2   28.95    4.49
   6   5  -2   32.31   11.53
   5   5  -2   54.00   13.68
  -5  -5   2   36.47    8.07
   4   5  -2  196.84   24.32
  -4  -5   2  145.95   14.83
  -4  -5   2  234.93   12.26
   3   5  -2    3.04    4.84
  -3  -5   2    2.45    2.49
  -3  -5   2    2.41    1.60
   2   5  -2  194.63   12.70
  -2  -5   2  190.47   11.83
  -2  -5   2  212.57   14.71
  -2  -5   2  193.56   13.19
   1   5  -2  188.97   11.35
  -1  -5   2  187.37   11.19
  -1  -5   2  159.17   11.63
  -1  -5   2  172.17   13.72
   0   5  -2   11.46    2.00
   0  -5   2   12.79    2.30
   0  -5   2    7.60    2.96
   0  -5   2   10.81    3.42
   1  -5   2  112.88   10.55
   1  -5   2  108.82    9.00
   1  -5   2  105.33    8.04
   2  -5   2  234.08   14.60
   2  -5   2  225.40   17.60
   2  -5   2  231.32   14.74
   3  -5   2   -0.35    1.75
   3  -5   2   -0.35    1.43
   3  -5   2   -0.19    1.98
   4  -5   2  119.77   12.82
   4  -5   2  138.22   11.19
   5  -5   2  113.87   13.23
   5  -5   2  105.09   10.52
   9   4  -2   26.97   10.00
   8   4  -2  130.68   10.79
   8   4  -2  137.86   18.85
   7   4  -2   16.41    7.52
   7   4  -2   18.13    4.06
  -7  -4   2    3.37    4.47
   6   4  -2   93.16    7.64
   6   4  -2   97.61   17.18
   5   4  -2  216.48   23.04
  -5  -4   2  161.08   11.14
   4   4  -2   48.97   12.91
  -4  -4   2   30.45    6.49
  -4  -4   2   41.86    4.31
   3   4  -2  132.63   18.63
  -3  -4   2  172.30    9.28
  -3  -4   2  137.00   11.98
  -2  -4   2  307.21   18.58
  -2  -4   2  296.95   15.44
   1   4  -2   25.69    3.30
  -1  -4   2   29.07    4.46
  -1  -4   2   34.33    3.28
  -1  -4   2   38.34    4.70
   0   4  -2  342.70   19.20
   0  -4   2  343.55   19.97
   0  -4   2  353.02   19.13
   0  -4   2  333.49   21.89
   1  -4   2  233.50   14.05
   1  -4   2  242.30   14.47
   1  -4   2  218.19   16.21
   2  -4   2    5.20    2.50
   2  -4   2    1.74    2.84
   2  -4   2    5.86    2.50
   2  -4   2    6.64    2.00
   3  -4   2  157.12   10.74
   3  -4   2  154.20   13.04
   3  -4   2  144.43   10.41
   4  -4   2  136.45   10.44
   4  -4   2  144.64   10.71
   4  -4   2  140.96   13.02
   5  -4   2    5.11    3.53
   5  -4   2    5.36    2.94
   5  -4   2    4.82    2.50
   6  -4   2   67.44   11.19
   6  -4   2   50.13    7.85
   9   3  -2   71.49   14.42
   8   3  -2    6.22    3.01
   8   3  -2    5.93    5.12
  -8  -3   2    1.89    5.31
   7   3  -2   21.90    4.31
   7   3  -2   16.88    7.41
  -7  -3   2    4.88    4.63
   6   3  -2  170.32   11.01
   6   3  -2  161.09   18.22
   5   3  -2   61.10   12.04
   5   3  -2   50.99    4.98
  -4  -3   2  140.55   14.16
  -4  -3   2  210.64   11.11
   3   3  -2  601.57   42.17
  -3  -3   2  597.14   25.51
  -3  -3   2  460.63   32.33
   2   3  -2    0.73    0.93
   2   3  -2    1.05    3.83
  -2  -3   2    1.60    1.06
  -2  -3   2    1.47    1.31
   1   3  -2  269.63   14.23
   1   3  -2  268.05   16.37
  -1  -3   2  280.15   14.41
  -1  -3   2  309.22   16.46
  -1  -3   2  273.84   17.07
   0   3  -2  378.94   21.34
   0  -3   2  405.53   23.22
   0  -3   2  392.30   19.91
   0  -3   2  356.74   22.13
   1  -3   2   29.25    4.26
   1  -3   2   27.56    4.14
   1  -3   2   30.62    3.27
   2  -3   2  155.28    9.86
   2  -3   2  148.81    9.42
   2  -3   2  147.11   11.44
   3  -3   2  238.74   14.04
   3  -3   2  263.49   15.71
   3  -3   2  258.22   17.74
   4  -3   2    1.76    1.48
   4  -3   2    1.88    2.04
   4  -3   2    0.49    1.71
   5  -3   2  174.69   12.74
   5  -3   2  170.77   11.86
   5  -3   2  179.32   15.04
   6  -3   2   86.32   10.52
   6  -3   2   98.81    8.90
   6  -3   2   89.59    8.82
   7  -3   2    1.08    3.64
   7  -3   2    0.19    2.79
   7  -3   2   -0.13    2.41
   8   2  -2   52.61   11.02
   8   2  -2   61.95    7.32
   7   2  -2  130.88    9.91
   7   2  -2  143.26   15.58
   6   2  -2   13.70    5.31
   6   2  -2    5.15    2.30
  -6  -2   2   -0.10    3.13
   5   2  -2  165.04   16.23
   5   2  -2  179.69   10.51
   4   2  -2  335.58   25.75
   4   2  -2  347.39   17.01
   3   2  -2   66.45    9.62
  -3  -2   2   57.45    4.41
  -3  -2   2   44.08    6.22
   2   2  -2  245.32   21.79
   2   2  -2  257.05   12.32
   2   2  -2  287.07   15.60
  -2  -2   2  250.94   12.45
  -2  -2   2  252.71   16.22
   1   2  -2  403.78   18.55
   1   2  -2  401.78   22.77
  -1  -2   2  389.63   18.42
  -1  -2   2  418.87   22.57
   0   2  -2  266.52   15.58
   0   2  -2  275.28   14.00
   0  -2   2  255.23   13.89
   0  -2   2  275.97   16.16
  -1   2  -2  314.21   16.07
  -1   2  -2  341.97   19.87
  -1   2  -2  347.57   18.39
   1  -2   2  332.51   16.40
   1  -2   2  329.84   18.60
   1  -2   2  308.80   19.52
   2  -2   2  525.51   25.33
   2  -2   2  555.59   30.14
   2  -2   2  568.31   31.63
   3  -2   2    0.45    1.05
   3  -2   2    0.02    1.13
   3  -2   2   -0.62    0.90
   4  -2   2  168.62   12.76
   4  -2   2  155.36    9.91
   5  -2   2  118.00   10.92
   5  -2   2  113.31    8.49
   6  -2   2    0.28    1.75
   6  -2   2    0.00    2.18
   7  -2   2   85.11    9.24
   7  -2   2   75.57    8.15
   7  -2   2   89.78   10.92
   8  -2   2   76.07    9.47
   8   1  -2   88.95   12.92
   8   1  -2  102.30    9.22
   7   1  -2   12.29    3.49
   7   1  -2    8.38    4.34
  -7  -1   2    6.18    5.75
   6   1  -2   36.28    7.60
   6   1  -2   44.17    4.84
   5   1  -2  244.20   12.85
   5   1  -2  218.87   18.22
   4   1  -2   17.27    4.58
  -4  -1   2   13.09    4.57
   3   1  -2  398.75   18.76
   3   1  -2  414.96   26.66
   2   1  -2  491.04   31.53
   2   1  -2  564.75   22.68
  -2  -1   2  456.18   31.53
   1   1  -2    6.31    3.10
   1   1  -2    9.50    1.66
   1   1  -2   10.78    1.31
  -1  -1   2    8.89    1.18
  -1  -1   2    9.39    1.84
  -1  -1   2    8.32    3.41
   0   1  -2  172.75    9.93
   0   1  -2  157.35   10.33
   0   1  -2  170.43    8.87
   0  -1   2  177.68    9.89
   0  -1   2  160.26    8.63
  -1   1  -2   55.22    4.44
  -1   1  -2   49.94    3.75
  -1   1  -2   54.11    3.99
   1  -1   2   60.67    4.50
   1  -1   2   58.73    4.14
   1  -1   2   49.58    3.70
  -2   1  -2   23.62    2.34
  -2   1  -2   27.08    3.36
   2  -1   2   26.54    3.05
   2  -1   2   28.87    2.63
   2  -1   2   28.65    2.78
   3  -1   2  329.96   20.38
   3  -1   2  346.03   16.30
   4  -1   2  222.04   11.85
   4  -1   2  214.18   14.99
  -5   1  -2   -1.21    2.84
   5  -1   2   -0.19    1.24
   5  -1   2    1.60    1.75
   6  -1   2  214.66   17.23
   6  -1   2  243.48   13.83
   7  -1   2   88.69   10.28
   7  -1   2   92.19    8.04
   8  -1   2    1.75    2.74
   8  -1   2   -1.69    2.80
   8   0  -2   14.38    6.26
   8   0  -2   21.86    5.11
  -8   0   2    5.57    7.35
   7   0  -2   38.00    7.97
   7   0  -2   38.86    5.65
   6   0  -2  236.04   13.58
   6   0  -2  232.87   18.86
   5   0  -2   30.57    3.91
   5   0  -2   24.55    5.36
  -5   0   2   10.92    5.18
   4   0  -2  137.32   11.80
   4   0  -2  144.86    8.19
   3   0  -2  365.62   16.99
   3   0  -2  365.59   23.15
   2   0  -2    7.57    1.33
   2   0  -2   10.88    2.50
   2   0  -2    6.88    2.32
   2   0  -2    7.36    1.60
  -2   0   2    8.94    3.16
  -2   0   2    5.00    2.04
   1   0  -2   75.91    3.99
   1   0  -2   87.22    5.34
   1   0  -2   72.75    6.16
  -1   0   2   79.22    5.51
  -1   0   2   69.33    4.08
  -1   0   2   75.85    6.60
   0   0  -2  410.37   25.48
   0   0  -2  512.87   26.33
   0   0  -2  480.28   20.24
   0   0   2  514.65   20.09
   0   0   2  404.42   25.33
   0   0   2  484.46   26.56
  -1   0  -2   63.65    4.49
  -1   0  -2   69.84    4.27
  -1   0  -2   75.38    3.69
   1   0   2   70.36    3.69
   1   0   2   66.88    4.23
   1   0   2   67.19    4.56
  -2   0  -2  574.33   31.25
  -2   0  -2  554.15   24.93
   2   0   2  580.52   31.05
   2   0   2  585.26   25.08
  -3   0  -2  302.86   19.04
   3   0   2  320.15   18.50
   3   0   2  308.93   14.66
   4   0   2   19.10    2.68
   4   0   2   16.37    3.22
   5   0   2  187.05   10.54
   5   0   2  179.15   13.49
   6   0   2  120.45    8.25
   6   0   2  106.40   10.39
  -7   0  -2    2.15    4.25
   7   0   2    1.85    2.11
   7   0   2    0.31    1.86
   8   0   2   84.94   10.71
   8   0   2   88.77    8.30
  -8   1   2    2.60    6.53
   7  -1  -2   98.98   12.22
   7  -1  -2   97.86    8.54
   6  -1  -2   10.93    4.29
   6  -1  -2   10.09    3.04
  -6   1   2    3.58    4.14
   5  -1  -2   58.98    7.75
   5  -1  -2   60.13    5.20
   4  -1  -2  188.19   14.83
   4  -1  -2  204.91   10.79
   3  -1  -2   67.55    6.91
   3  -1  -2   66.68    4.51
   2  -1  -2  295.00   13.94
   2  -1  -2  298.98   18.79
   2  -1  -2  358.30   18.91
  -2   1   2  275.19   13.77
   1  -1  -2  503.36   21.58
   1  -1  -2  520.90   28.13
   1  -1  -2  549.32   27.24
  -1   1   2  450.62   27.58
  -1   1   2  459.30   21.49
  -1   1   2  526.68   28.52
   0  -1  -2   25.26    1.33
   0  -1  -2   26.02    2.37
   0   1   2   26.03    2.45
   0   1   2   26.45    2.19
  -1  -1  -2  119.87    5.42
  -1  -1  -2  118.02    6.59
  -1  -1  -2  129.44    7.12
   1   1   2  120.31    7.13
   1   1   2  124.88    6.65
   1   1   2  122.75    5.43
  -2  -1  -2  367.06   16.06
  -2  -1  -2  340.36   20.80
   2   1   2  375.34   20.26
   2   1   2  376.57   16.10
  -3  -1  -2    1.07    0.81
  -3  -1  -2    1.34    2.37
  -3  -1  -2    0.64    1.53
   3   1   2    0.53    0.77
   3   1   2    1.14    1.13
   3   1   2    1.77    2.16
   4   1   2  242.12   15.31
   4   1   2  226.96   11.70
   5   1   2  210.70   11.24
   5   1   2  200.81   14.52
  -6  -1  -2    0.97    3.30
   6   1   2    2.40    2.18
   6   1   2    2.02    1.46
   7   1   2   92.57    7.67
   7   1   2  111.83   10.84
   8   1   2   63.00    9.02
   8   1   2   59.08    6.67
   9   1   2    7.05    4.41
   7  -2  -2   16.86    4.40
   7  -2  -2   10.07    5.12
  -7   2   2    3.03    5.74
   6  -2  -2   66.68    9.15
   6  -2  -2   62.83    6.39
   5  -2  -2  257.59   14.25
   5  -2  -2  247.02   19.27
   4  -2  -2    0.22    1.21
   4  -2  -2    1.95    2.23
  -4   2   2    1.01    2.53
   3  -2  -2  231.01   11.92
   3  -2  -2  233.82   16.40
   2  -2  -2  284.05   16.17
   2  -2  -2  241.29   16.48
   2  -2  -2  239.06   12.17
   1  -2  -2    0.23    0.92
   1  -2  -2    0.84    0.85
   1  -2  -2    0.60    0.65
  -1   2   2    0.49    0.57
  -1   2   2    0.51    1.26
  -1   2   2    0.19    1.00
   0  -2  -2  366.49   16.27
   0  -2  -2  344.26   20.48
   0   2   2  351.96   15.57
   0   2   2  375.55   19.29
   0   2   2  369.11   20.59
  -1  -2  -2  815.92   34.53
  -1  -2  -2  798.49   43.84
   1   2   2  842.42   42.86
   1   2   2  857.28   43.66
   1   2   2  786.43   34.62
   2   2   2  106.61   10.72
   2   2   2  150.16    8.19
   2   2   2  128.46    6.50
   2   2   2  150.98    6.81
   3   2   2  499.97   22.88
   3   2   2  536.99   23.68
   3   2   2  521.66   30.82
  -4  -2  -2  170.28   15.82
   4   2   2  226.35   10.73
   4   2   2  223.99   14.97
  -5  -2  -2    0.97    3.16
   5   2   2    2.40    2.12
   5   2   2    1.65    1.24
   6   2   2  198.44   14.98
   6   2   2  180.25   10.82
   7   2   2   91.93    7.30
   7   2   2   89.05    9.83
  -8  -2  -2   -1.24    4.14
   8   2   2    0.51    1.68
   8   2   2    0.34    2.56
   9   2   2   80.83    8.33
   9   2   2   85.76   11.35
   7  -3  -2   33.35    6.33
   6  -3  -2   88.67   11.07
   6  -3  -2   83.43    7.98
   5  -3  -2    1.70    2.54
   5  -3  -2    4.22    2.56
  -5   3   2    1.08    4.03
   4  -3  -2   61.32    7.84
   4  -3  -2   59.43    5.46
   3  -3  -2  278.74   14.64
   3  -3  -2  286.80   19.81
   2  -3  -2   14.12    3.55
   2  -3  -2   23.20    3.59
   2  -3  -2   13.03    2.27
   1  -3  -2  192.43   10.15
   1  -3  -2  215.25   11.40
   1  -3  -2  182.57   13.25
  -1   3   2  190.38    9.42
   0  -3  -2  657.95   37.50
   0  -3  -2  673.26   30.31
   0   3   2  675.05   28.94
  -1  -3  -2    5.41    1.01
  -1  -3  -2    5.34    1.81
   1   3   2    4.04    0.96
   1   3   2    6.37    1.73
   1   3   2    4.26    1.18
  -2  -3  -2  366.47   16.77
  -2  -3  -2  368.08   21.21
   2   3   2  392.37   16.73
   2   3   2  373.98   21.22
   3   3   2  379.42   16.34
   3   3   2  339.11   16.16
   3   3   2  288.94   24.88
   3   3   2  386.53   20.27
  -4  -3  -2    1.26    2.56
  -4  -3  -2   -0.14    2.52
   4   3   2    1.46    0.96
   4   3   2    0.75    2.24
   5   3   2  133.84   12.34
   5   3   2  122.44    7.60
   6   3   2  206.12   16.58
   6   3   2  196.58   11.35
  -7  -3  -2   -0.11    4.96
   7   3   2    0.52    1.40
   7   3   2    1.76    2.69
   8   3   2  161.43   11.18
   8   3   2  158.98   15.24
   9   3   2   54.15   10.14
   9   3   2   63.86    8.22
   6  -4  -2   11.23    4.19
   5  -4  -2   54.64    6.58
   5  -4  -2   55.46    9.69
   4  -4  -2   89.73   10.36
   4  -4  -2   74.90    7.06
   3  -4  -2    3.66    2.56
   3  -4  -2    0.17    1.49
  -3   4   2    0.08    2.65
   2  -4  -2  167.34   10.45
   2  -4  -2  195.18   11.59
   2  -4  -2  174.76   14.01
   1  -4  -2  162.15    8.79
   1  -4  -2  144.25    9.25
   1  -4  -2  155.11    8.67
   1  -4  -2  136.72   11.64
   0  -4  -2    5.02    2.13
   0  -4  -2    2.52    1.77
   0   4   2    3.97    1.22
  -1  -4  -2  168.34    8.85
  -1  -4  -2  162.57   12.33
   1   4   2  177.90    9.13
  -2  -4  -2  334.37   20.47
  -2  -4  -2  343.63   15.36
   2   4   2  338.13   20.06
   2   4   2  346.15   18.81
   2   4   2  309.98   15.59
  -3  -4  -2    0.07    1.82
  -3  -4  -2    1.34    1.03
   3   4   2    1.44    0.93
   3   4   2   -0.37    1.56
   3   4   2    2.24    1.25
   3   4   2   -1.83    2.23
   4   4   2  247.07   12.14
   4   4   2  223.40   21.67
   5   4   2  154.96   16.22
   5   4   2  152.59    8.97
  -6  -4  -2    4.34    4.33
   6   4   2   16.77    2.84
   6   4   2   23.80    6.73
   7   4   2  135.07    9.20
   7   4   2  126.97   13.96
   8   4   2   98.84   12.45
   8   4   2  102.11    8.49
  -9  -4  -2    3.32    6.70
   9   4   2    0.86    2.64
   9   4   2    3.60    4.36
   4  -5  -2    2.50    3.07
   4  -5  -2   -0.84    2.10
   3  -5  -2   73.89    9.15
   3  -5  -2   62.42    6.68
   2  -5  -2  132.59   12.30
   2  -5  -2  132.47    9.47
   1  -5  -2   15.51    3.38
   1  -5  -2   13.58    4.00
   0  -5  -2  220.98   16.33
   0  -5  -2  223.82   12.93
  -1  -5  -2  226.62   12.09
  -1  -5  -2  216.56   16.50
   1   5   2  245.44   12.15
  -2  -5  -2   12.76    1.99
  -2  -5  -2   15.32    3.87
   2   5   2   14.16    1.34
   2   5   2   15.23    1.44
  -3  -5  -2  188.36   10.15
  -3  -5  -2  184.06   13.51
   3   5   2  209.74   12.39
  -4  -5  -2   86.22    6.01
   4   5   2   58.37   12.90
  -5  -5  -2    0.98    3.33
   5   5   2   -0.91    3.57
   5   5   2    0.24    1.05
   6   5   2  108.81   15.37
   6   5   2  112.07    7.82
   7   5   2   85.77   12.68
   7   5   2   75.52    6.66
  -8  -5  -2    4.56    5.87
   8   5   2    3.93    2.52
   8   5   2    8.32    5.73
   9   5   2   87.53   13.26
   9   5   2  106.34    9.37
   3  -6  -2  126.22   13.77
   2  -6  -2    1.67    2.43
   2  -6  -2    2.17    2.38
   1  -6  -2  127.62    9.57
   1  -6  -2  145.23   13.23
   0  -6  -2  152.85   13.81
   0  -6  -2  168.62   10.63
  -1  -6  -2    1.90    2.40
  -1  -6  -2    1.28    1.41
  -2  -6  -2   95.22    6.24
  -2  -6  -2   99.76   10.16
  -3  -6  -2  157.36    9.13
  -3  -6  -2  175.44   13.63
  -4  -6  -2   -2.33    2.78
  -4  -6  -2    6.16    1.95
   4   6   2    1.30    4.14
   5   6   2  101.92   18.69
   6   6   2   83.74    6.58
   6   6   2   70.89   15.63
  -7  -6  -2    0.60    4.80
   7   6   2   14.16    3.38
   7   6   2    7.79    7.21
   8   6   2  104.22    8.64
   8   6   2   93.24   16.68
  -9  -6  -2   -2.90    6.44
   9   6   2   35.56    5.76
   2  -7  -2   33.83    7.78
   1  -7  -2  103.18   11.84
   0  -7  -2   11.49    4.66
   0  -7  -2    9.57    3.22
  -1  -7  -2  132.10    8.64
  -1  -7  -2  136.71   13.31
  -2  -7  -2  128.35   12.83
  -2  -7  -2  119.95    7.71
  -3  -7  -2    2.31    2.64
  -3  -7  -2    0.12    1.28
   4   7   2   38.75   12.50
   5   7   2   35.21   12.34
  -6  -7  -2   -0.31    4.25
   6   7   2    2.79    6.50
   6   7   2    0.27    1.51
   7   7   2   67.44   16.23
   7   7   2   84.08    7.29
  -9  -7  -2   -1.23    6.47
   9   7   2    4.14    3.06
   1  -8  -2    1.95    3.36
   0  -8  -2   73.52   10.22
  -1  -8  -2   49.39    9.46
  -2  -8  -2    3.72    3.86
  -3  -8  -2   69.52   10.19
   4   8   2   11.76    8.90
  -5  -8  -2    1.69    2.17
   5   8   2    3.62    7.09
   6   8   2   87.82    6.94
   6   8   2   38.65   14.37
   7   8   2   46.82    5.58
   7   8   2   41.85   14.68
   8   8   2    3.47    2.61
   0  -9  -2   47.27    9.76
  -1  -9  -2   -0.80    3.28
  -2  -9  -2  103.38   13.33
  -3  -9  -2   83.86   12.32
   5   9   2    3.85    9.10
   6   9   2    8.95    9.65
  -3 -10  -2   -0.13    5.49
   4  10   2   10.97   11.78
  -4 -10   3    0.90    3.41
  -3 -10   3   35.43    6.93
   6   9  -3   24.63   14.14
  -6  -9   3   34.34    7.64
   5   9  -3   -3.98    9.05
  -5  -9   3    1.71    3.46
   4   9  -3    4.62    9.06
  -4  -9   3   31.65    6.89
   3   9  -3   13.52   11.92
  -3  -9   3   52.66    7.92
  -2  -9   3    0.81    3.65
  -2  -9   3   -0.33    2.93
  -1  -9   3   69.53   10.55
  -1  -9   3   72.44    8.27
   0  -9   3   51.97    7.73
  -8  -8   3    5.60    7.42
   7   8  -3   46.16   17.25
  -7  -8   3   39.33    8.23
   6   8  -3    0.01    7.66
  -6  -8   3    0.36    3.30
  -6  -8   3    2.58    5.13
   5   8  -3   30.29   14.40
  -5  -8   3   71.98    8.35
   4   8  -3   34.43   15.03
  -4  -8   3   74.32    8.36
   3   8  -3   -0.03    6.82
  -3  -8   3    2.38    2.98
  -2  -8   3   68.31    8.11
  -2  -8   3   75.68   10.23
  -1  -8   3   86.17   10.97
  -1  -8   3   92.11    9.21
   0  -8   3   -0.40    2.59
   0  -8   3    0.21    2.58
   1  -8   3   52.22    7.87
   1  -8   3   62.14   10.79
   2  -8   3   55.54    8.32
   8   7  -3   56.58   18.23
  -8  -7   3    7.53    7.18
   7   7  -3    9.70   10.47
  -7  -7   3    0.80    5.26
   6   7  -3   51.14   17.45
  -6  -7   3   49.29    7.85
   5   7  -3   39.58   15.63
  -5  -7   3   43.55    6.92
   4   7  -3   -0.05    4.74
  -4  -7   3    0.89    2.91
  -4  -7   3    0.78    2.30
   3   7  -3   22.23   11.28
  -3  -7   3   66.36    7.04
  -3  -7   3   46.63    6.83
  -2  -7   3  142.36   12.82
  -2  -7   3  106.99    9.93
  -2  -7   3  117.71    9.90
  -1  -7   3   -0.58    2.29
  -1  -7   3    1.77    2.17
   0  -7   3  128.91   12.93
   0  -7   3  121.84   10.66
   1  -7   3   46.99    8.69
   1  -7   3   50.67    7.65
   2  -7   3    2.18    2.76
   2  -7   3    4.48    3.10
   3  -7   3   51.64    9.99
   3  -7   3   56.53    8.89
   4  -7   3   20.20    6.06
   8   6  -3    3.53    7.16
   8   6  -3    1.49    2.65
  -8  -6   3    0.73    5.90
   7   6  -3   27.14    5.06
   7   6  -3   47.62   15.62
  -7  -6   3    8.44    5.91
   6   6  -3   94.28   21.18
  -6  -6   3   87.32    8.91
   5   6  -3    0.26    5.46
  -5  -6   3    0.33    3.11
  -5  -6   3   -0.89    1.71
   4   6  -3   60.91   16.87
  -4  -6   3  113.88    8.52
  -4  -6   3   81.62   10.13
  -3  -6   3  128.61   11.62
  -3  -6   3  148.31   10.32
  -2  -6   3    0.77    2.34
  -2  -6   3    1.25    1.72
  -2  -6   3    0.33    1.97
  -1  -6   3  120.73   11.48
  -1  -6   3  124.96   10.38
  -1  -6   3  119.28    8.53
   0  -6   3  120.81    7.97
   0  -6   3   91.15   10.41
   0  -6   3  117.66   10.09
   1  -6   3    7.61    3.38
   2  -6   3  104.91   11.47
   2  -6   3  109.98    9.84
   3  -6   3   77.19   10.03
   3  -6   3   87.31    9.08
   4  -6   3    3.72    3.49
   4  -6   3    5.91    4.22
   5  -6   3   92.33   10.89
   8   5  -3   79.53   18.53
   8   5  -3   68.48    7.89
   7   5  -3  141.73   24.24
   7   5  -3  141.49   10.97
   6   5  -3   -0.42    4.51
  -6  -5   3    0.86    3.81
   5   5  -3  105.79   20.99
  -5  -5   3   66.73   10.31
  -5  -5   3   97.72    7.93
   4   5  -3   92.82   19.50
  -4  -5   3   87.05   10.51
  -4  -5   3  120.63    8.34
   3   5  -3    2.98    6.28
  -3  -5   3    4.80    2.16
  -3  -5   3    1.81    2.39
  -2  -5   3  194.99   13.91
  -2  -5   3  165.79   11.40
  -2  -5   3  187.18   12.75
   1   5  -3  422.33   22.45
  -1  -5   3  325.39   19.80
  -1  -5   3  339.59   23.16
  -1  -5   3  338.31   20.78
   0   5  -3    2.93    1.47
   0  -5   3    1.37    1.81
   0  -5   3    1.11    1.29
   0  -5   3    1.19    1.95
   1  -5   3  190.93   12.84
   1  -5   3  174.86   14.44
   1  -5   3  180.59   12.47
   2  -5   3  132.93   12.18
   2  -5   3  131.76    9.72
   2  -5   3  126.06   10.26
   3  -5   3   11.18    3.76
   3  -5   3   10.51    3.11
   3  -5   3   11.40    4.45
   4  -5   3   65.21    9.05
   4  -5   3   77.05    8.31
   5  -5   3   52.46    8.25
   5  -5   3   55.62    9.86
   8   4  -3   60.06   14.96
   8   4  -3   77.43    8.40
   7   4  -3    2.33    2.39
   7   4  -3    0.85    5.23
  -7  -4   3    2.11    4.44
   6   4  -3  108.84    8.60
   6   4  -3  102.59   18.38
   5   4  -3  195.97   23.07
  -5  -4   3  154.15   11.02
   4   4  -3   11.14    7.12
  -4  -4   3   11.04    4.34
  -4  -4   3   14.47    3.03
   3   4  -3  189.98   24.27
  -3  -4   3  237.78   16.95
  -3  -4   3  253.35   13.13
  -2  -4   3  317.40   18.89
  -2  -4   3  282.41   15.56
   1   4  -3    3.22    1.74
  -1  -4   3    2.78    2.00
  -1  -4   3    1.54    1.37
  -1  -4   3    4.84    1.84
   0   4  -3  391.56   21.83
   0  -4   3  345.86   23.58
   0  -4   3  389.26   22.74
   0  -4   3  391.24   20.96
  -1   4  -3  130.83    8.34
   1  -4   3  128.91    9.48
   1  -4   3  109.85   10.20
   1  -4   3  125.16    9.29
   2  -4   3    1.45    1.57
   2  -4   3    0.42    1.74
   2  -4   3    0.48    1.41
   3  -4   3  175.09   11.86
   3  -4   3  169.78   11.87
   3  -4   3  171.39   14.13
   4  -4   3  176.95   14.87
   4  -4   3  165.41   12.14
   4  -4   3  172.47   12.46
   5  -4   3    4.89    2.94
   5  -4   3    6.15    2.87
   5  -4   3    7.30    4.03
   6  -4   3   85.13    9.35
   6  -4   3   81.16   11.09
   8   3  -3    1.86    5.31
   8   3  -3    1.98    2.69
  -8  -3   3   -2.20    4.34
   7   3  -3  105.01   15.52
   7   3  -3  117.26    9.50
   6   3  -3  216.43   13.43
   6   3  -3  211.38   21.87
   5   3  -3   -0.34    2.71
   5   3  -3    0.87    1.50
  -5  -3   3    0.29    2.84
  -4  -3   3  150.11    9.22
  -4  -3   3  123.27   12.60
   3   3  -3  142.49   18.23
  -3  -3   3  154.99    8.80
  -3  -3   3  137.56   11.87
   2   3  -3    1.30    3.99
  -2  -3   3    3.71    1.91
  -2  -3   3    3.23    1.32
   1   3  -3  277.08   17.20
  -1  -3   3  300.88   14.98
  -1  -3   3  282.89   17.22
  -1  -3   3  278.04   17.41
   0   3  -3  438.79   24.37
   0  -3   3  424.59   25.26
   0  -3   3  404.88   25.11
   0  -3   3  435.08   21.99
  -1   3  -3    0.39    0.94
   1  -3   3    0.82    1.33
   1  -3   3    0.65    1.20
   1  -3   3    0.16    1.29
   2  -3   3  236.24   16.45
   2  -3   3  240.66   13.82
   2  -3   3  250.45   15.07
   3  -3   3  127.00   10.73
   3  -3   3  121.67    8.69
   3  -3   3  126.34    9.13
   4  -3   3    5.88    2.69
   4  -3   3    8.46    2.60
   4  -3   3    8.36    2.66
   5  -3   3  136.96   12.47
   5  -3   3  121.94   10.34
   5  -3   3  135.68   10.17
   6  -3   3   57.68    8.53
   6  -3   3   55.01    6.92
   6  -3   3   60.11    7.14
   7  -3   3    4.00    3.44
   7  -3   3    3.59    3.74
   7  -3   3    4.92    3.47
   8   2  -3   69.90    7.74
   8   2  -3   72.52   13.44
   7   2  -3   98.55    8.45
   7   2  -3   86.40   12.91
   6   2  -3    2.19    3.59
   6   2  -3    3.92    2.13
  -6  -2   3    1.38    3.99
   5   2  -3  144.52   15.35
   5   2  -3  139.39    9.16
   4   2  -3  311.03   25.01
   4   2  -3  305.80   15.75
   3   2  -3    5.52    3.96
  -3  -2   3    4.56    1.54
  -3  -2   3    3.72    2.41
   2   2  -3  612.82   43.05
  -2  -2   3  615.37   28.18
  -2  -2   3  661.46   35.89
   1   2  -3  239.47   12.22
   1   2  -3  246.84   14.66
   1   2  -3  256.15   14.85
  -1  -2   3  249.61   15.01
  -1  -2   3  228.59   11.97
   0   2  -3  240.34   14.24
   0   2  -3  237.03   14.36
   0  -2   3  193.04   14.43
   0  -2   3  237.59   12.63
   0  -2   3  235.65   14.04
  -1   2  -3  542.47   29.65
  -1   2  -3  518.43   28.35
   1  -2   3  495.88   24.50
   1  -2   3  498.55   29.22
   1  -2   3  508.83   28.66
   2  -2   3  246.24   15.48
   2  -2   3  229.42   12.65
   2  -2   3  237.79   14.41
   3  -2   3    0.77    1.32
   3  -2   3    0.62    1.21
   3  -2   3    1.92    1.36
   4  -2   3  242.36   15.46
   4  -2   3  240.16   13.58
   4  -2   3  238.82   16.77
   5  -2   3  156.71   11.38
   5  -2   3  137.67    9.96
   5  -2   3  150.00   12.59
   6  -2   3   37.29    7.23
   6  -2   3   33.02    5.42
   6  -2   3   37.47    6.23
   7  -2   3  124.27   13.02
   7  -2   3  119.61   10.39
   7  -2   3  126.72   11.48
   8  -2   3   35.06    7.46
   8   1  -3   89.32    8.84
   8   1  -3   85.89   12.67
   7   1  -3   14.46    3.91
   7   1  -3   12.17    5.27
  -7  -1   3    2.00    4.01
   6   1  -3  119.84   12.86
   6   1  -3   98.62    7.86
   5   1  -3  250.78   13.69
   5   1  -3  253.86   20.17
   4   1  -3    0.99    2.07
   4   1  -3   -0.36    0.87
  -4  -1   3    1.08    2.29
   3   1  -3  472.92   30.17
   3   1  -3  489.67   21.30
  -3  -1   3  402.11   28.17
   2   1  -3  316.54   17.82
   2   1  -3  325.17   14.06
   2   1  -3  292.11   21.34
  -2  -1   3  290.42   18.52
  -2  -1   3  270.17   14.13
   1   1  -3   63.50    3.83
   1   1  -3   57.89    8.06
   1   1  -3   63.44    4.83
  -1  -1   3   58.48    3.74
  -1  -1   3   67.79    5.28
   0   1  -3  922.17   45.48
   0   1  -3  827.44   37.67
   0   1  -3  788.78   46.20
   0  -1   3  895.52   37.47
   0  -1   3  733.64   46.17
   0  -1   3  929.01   45.38
  -1   1  -3  742.90   32.79
  -1   1  -3  752.65   39.52
  -1   1  -3  730.43   39.69
   1  -1   3  721.73   39.48
   1  -1   3  717.07   39.44
   1  -1   3  718.25   32.61
  -2   1  -3    8.52    2.19
  -2   1  -3   10.25    1.81
   2  -1   3   10.80    2.16
   2  -1   3   11.45    2.12
   2  -1   3   10.97    1.93
   3  -1   3  660.74   28.75
   3  -1   3  604.52   34.61
   3  -1   3  623.32   35.34
   4  -1   3  290.34   14.88
   4  -1   3  283.55   18.41
   5  -1   3   22.05    4.48
   5  -1   3   16.15    3.13
   6  -1   3  185.39   11.79
   6  -1   3  185.67   14.85
   7  -1   3   57.02    6.46
   7  -1   3   56.86    8.06
   8  -1   3    4.28    3.05
   8  -1   3    3.65    3.77
   8  -1   3    4.41    3.27
   8   0  -3   -1.33    2.43
  -8   0   3    0.07    5.78
   7   0  -3   82.88    7.61
   7   0  -3   76.95   10.86
   6   0  -3   90.98   10.84
   6   0  -3   83.03    7.00
   5   0  -3    0.72    2.14
   5   0  -3    2.31    1.59
  -5   0   3    0.41    3.08
   4   0  -3  118.75   11.33
   4   0  -3  133.62    7.72
   3   0  -3  338.61   15.90
   3   0  -3  334.29   22.16
   2   0  -3    3.96    1.07
   2   0  -3    5.11    1.76
   2   0  -3    3.39    1.16
   2   0  -3    3.21    2.16
  -2   0   3    3.53    2.13
   1   0  -3  360.85   19.20
   1   0  -3  329.83   20.77
   1   0  -3  353.93   15.11
  -1   0   3  312.06   21.28
  -1   0   3  349.67   19.49
  -1   0   3  328.25   15.21
   0   0  -3  349.71   15.96
   0   0  -3  394.55   21.43
   0   0  -3  322.18   20.45
   0   0   3  379.92   15.63
   0   0   3  351.83   20.34
   0   0   3  327.73   21.63
  -1   0  -3    3.13    0.89
  -1   0  -3    4.01    1.01
  -1   0  -3    3.32    1.29
   1   0   3    2.61    0.69
   1   0   3    5.27    1.48
   1   0   3    3.02    1.03
  -2   0  -3  467.95   25.51
  -2   0  -3  450.99   20.66
   2   0   3  471.25   25.41
   2   0   3  459.55   25.67
   2   0   3  485.37   20.86
  -3   0  -3  267.78   16.54
   3   0   3  275.99   13.12
   3   0   3  268.59   16.05
  -4   0  -3   -0.13    2.42
   4   0   3    8.12    1.89
   4   0   3    7.21    2.09
   5   0   3  233.01   12.57
   5   0   3  223.88   15.61
   6   0   3  113.79   10.28
   6   0   3  114.61    8.13
  -7   0  -3    2.45    5.31
   7   0   3   16.89    4.71
   7   0   3   17.33    3.88
   8   0   3  124.64   13.13
   8   0   3  138.99   10.74
   9   0   3   24.35    7.24
   7  -1  -3   91.67    8.34
   7  -1  -3   98.80   12.27
   6  -1  -3    8.39    4.29
   6  -1  -3    9.40    2.95
  -6   1   3    0.60    3.62
   5  -1  -3  176.85   10.48
   5  -1  -3  172.47   14.89
   4  -1  -3  285.63   20.74
   4  -1  -3  314.48   15.22
   3  -1  -3   10.19    1.83
   3  -1  -3   11.70    3.23
  -3   1   3    5.07    3.03
   2  -1  -3  464.53   21.58
   2  -1  -3  471.62   20.89
   2  -1  -3  474.40   27.90
   1  -1  -3  146.40    9.49
   1  -1  -3  126.26    6.59
   1  -1  -3  124.65    6.28
   1  -1  -3  145.00    8.46
  -1   1   3  128.42    8.76
  -1   1   3  138.42   10.02
   0  -1  -3    0.36    1.09
   0  -1  -3    0.48    0.34
   0  -1  -3    0.77    0.75
   0   1   3    0.22    0.93
   0   1   3    0.63    0.80
  -1  -1  -3  207.16   10.97
  -1  -1  -3  202.90   11.98
  -1  -1  -3  210.65    8.96
   1   1   3  204.62   11.23
   1   1   3  206.10    9.11
   1   1   3  202.27   11.96
  -2  -1  -3  223.82   13.60
  -2  -1  -3  245.64   10.88
   2   1   3  246.80   10.97
   2   1   3  248.15   13.89
   2   1   3  239.05   13.01
  -3  -1  -3   35.01    4.23
  -3  -1  -3   37.27    2.81
   3   1   3   40.06    3.47
   3   1   3   39.35    2.90
  -4  -1  -3  441.95   28.06
   4   1   3  465.94   21.16
   4   1   3  463.61   26.35
   5   1   3   98.60    6.70
   5   1   3  111.32    8.79
   6   1   3   34.74    3.98
   6   1   3   29.68    5.28
   7   1   3   95.17    7.64
   7   1   3  100.95   10.04
   8   1   3   55.20    7.07
   8   1   3   47.45    8.18
   9   1   3   11.28    5.28
   7  -2  -3    1.62    2.50
  -7   2   3   -1.59    5.66
   6  -2  -3   81.56    7.28
   6  -2  -3   87.31   10.91
   5  -2  -3  197.41   11.93
   5  -2  -3  211.47   17.13
   4  -2  -3   16.82    2.86
   4  -2  -3   13.18    4.15
  -4   2   3    6.01    3.61
   3  -2  -3  143.65    8.16
   3  -2  -3  145.90   11.91
   2  -2  -3  273.02   18.20
   2  -2  -3  274.19   13.26
   2  -2  -3  315.13   17.08
  -2   2   3  260.01   13.38
   1  -2  -3   25.97    3.55
   1  -2  -3   28.32    2.09
   1  -2  -3   28.98    2.69
  -1   2   3   20.50    3.13
  -1   2   3   26.18    1.90
   0  -2  -3  520.51   28.57
   0  -2  -3  538.37   22.12
   0  -2  -3  459.74   28.10
   0   2   3  544.74   27.52
   0   2   3  538.85   28.74
   0   2   3  484.52   21.70
  -1  -2  -3  440.96   22.75
  -1  -2  -3  423.48   23.33
   1   2   3  444.18   23.05
   1   2   3  420.57   17.76
   1   2   3  408.21   17.87
   1   2   3  402.98   22.91
   2   2   3   51.81    3.07
   2   2   3   36.89    5.23
   2   2   3   51.49    3.40
   2   2   3   49.97    2.77
   2   2   3   53.99    3.88
  -3  -2  -3  477.28   21.81
   3   2   3  509.71   28.26
   3   2   3  502.81   21.91
  -4  -2  -3   71.45    8.52
   4   2   3   84.33    7.11
   4   2   3   95.70    5.42
  -5  -2  -3   -1.37    2.66
   5   2   3    5.82    2.27
   5   2   3    8.40    1.82
   6   2   3  262.13   13.94
   6   2   3  253.49   17.75
   7   2   3   61.63    5.78
   7   2   3   60.03    7.53
  -8  -2  -3    1.95    4.83
   8   2   3   15.11    3.62
   8   2   3   12.64    4.53
   9   2   3   96.42   11.93
   9   2   3  100.99    9.37
   6  -3  -3   76.28   10.75
   6  -3  -3   70.04    7.33
   5  -3  -3    4.64    2.42
   5  -3  -3    3.81    3.16
  -5   3   3    2.81    4.40
   4  -3  -3  129.20   12.30
   4  -3  -3  129.20    8.61
   3  -3  -3  322.08   16.29
   3  -3  -3  326.62   22.22
   2  -3  -3   11.15    2.09
   2  -3  -3    9.80    3.10
   2  -3  -3   14.97    2.75
   1  -3  -3  145.24    8.40
   1  -3  -3  135.75   10.35
   1  -3  -3  131.77    7.36
  -1   3   3  133.41    6.76
   0  -3  -3  229.27   14.06
   0  -3  -3  214.70   10.86
   0  -3  -3  215.82   12.25
   0   3   3  198.68   12.14
   0   3   3  217.19    9.64
  -1  -3  -3   10.90    2.41
  -1  -3  -3   10.65    0.96
   1   3   3   10.70    1.25
   1   3   3    7.44    1.20
   1   3   3   10.45    2.08
  -2  -3  -3  434.20   25.12
   2   3   3  467.57   19.71
   2   3   3  451.61   25.03
   2   3   3  455.89   24.47
   3   3   3  607.52   27.12
   3   3   3  625.88   33.64
   3   3   3  631.17   27.31
  -4  -3  -3   10.42    4.41
   4   3   3   15.35    4.24
   4   3   3   11.95    1.83
   5   3   3  376.51   18.20
   5   3   3  383.82   24.77
   6   3   3  187.63   11.14
   6   3   3  217.94   15.81
  -7  -3  -3    0.96    4.32
   7   3   3    2.75    2.50
   7   3   3    6.04    2.25
   8   3   3  144.04   10.23
   8   3   3  132.59   13.07
   9   3   3   32.28    7.46
   9   3   3   30.22    5.52
   5  -4  -3  106.33   12.24
   5  -4  -3   89.27    8.34
   4  -4  -3   78.64    7.10
   4  -4  -3   80.48    9.86
   3  -4  -3    0.36    1.56
   3  -4  -3    1.71    2.35
  -3   4   3    0.08    2.90
   2  -4  -3  116.92    7.88
   2  -4  -3  127.96   11.20
   1  -4  -3  184.74   10.62
   1  -4  -3  192.40   10.92
   1  -4  -3  191.00   14.10
   0  -4  -3    0.95    1.42
   0  -4  -3    1.17    1.37
   0   4   3    0.27    0.68
  -1  -4  -3  353.95   22.36
  -1  -4  -3  359.18   16.09
   1   4   3  361.41   16.33
  -2  -4  -3  373.31   16.64
  -2  -4  -3  387.62   22.60
   2   4   3  368.86   20.14
   2   4   3  349.83   16.88
   2   4   3  382.61   21.77
  -3  -4  -3    1.94    2.58
   3   4   3    5.83    2.70
   3   4   3   10.35    1.56
   3   4   3   11.56    2.20
   3   4   3    4.04    3.74
   4   4   3  207.49   12.77
   4   4   3  182.91   18.10
   4   4   3  202.31   10.28
   5   4   3  143.18    8.35
   5   4   3  149.93   14.62
  -6  -4  -3   -0.08    3.50
   6   4   3    1.02    1.26
   6   4   3    1.90    2.82
   7   4   3  115.75   12.01
   7   4   3  100.28    7.72
   8   4   3  114.34   12.50
   8   4   3  109.04    8.74
  -9  -4  -3    4.58    7.66
   9   4   3    1.89    2.36
   9   4   3    1.81    3.50
   4  -5  -3   -0.81    2.65
   3  -5  -3  135.11    9.93
   3  -5  -3  142.44   13.64
   2  -5  -3  139.30    9.24
   2  -5  -3  110.34   11.44
   1  -5  -3   12.91    4.02
   1  -5  -3   14.80    3.20
   0  -5  -3  203.03   15.30
   0  -5  -3  200.42   11.49
   0   5   3  202.66   10.10
  -1  -5  -3  108.28    9.93
  -1  -5  -3  113.57    6.37
   1   5   3  106.75    6.26
  -2  -5  -3   28.67    2.52
  -2  -5  -3   27.60    5.03
   2   5   3   29.85    3.14
  -3  -5  -3  283.57   14.00
  -3  -5  -3  294.52   18.64
   3   5   3  290.32   16.30
   3   5   3  289.42   17.68
   4   5   3   59.72   12.19
  -5  -5  -3    0.94    3.50
   5   5   3    7.73    2.00
   5   5   3    6.29    4.85
   6   5   3  183.79   18.32
   6   5   3  178.75   10.53
   7   5   3   51.35   10.04
   7   5   3   45.99    4.96
   8   5   3   21.57    6.82
   8   5   3   22.37    4.40
   3  -6  -3   74.14   10.31
   2  -6  -3    1.85    2.70
   1  -6  -3   82.57    7.13
   1  -6  -3   95.50   10.21
   0  -6  -3  173.25   10.26
   0  -6  -3  158.41   14.06
  -1  -6  -3    1.75    1.26
  -1  -6  -3    0.35    1.85
  -2  -6  -3  212.23   10.68
  -2  -6  -3  210.46   16.72
  -3  -6  -3  157.64   13.01
  -3  -6  -3  150.65    8.64
   3   6   3  163.13    9.32
  -4  -6  -3   58.59    4.82
   4   6   3   26.77    9.67
   5   6   3  108.28   19.01
   5   6   3  140.26    8.31
   6   6   3   62.09    5.41
   6   6   3   51.42   12.59
  -7  -6  -3    2.22    5.63
   7   6   3   13.86    3.14
   7   6   3   11.76    7.19
  -9  -6  -3   -3.18    6.36
   9   6   3   31.74    5.72
   2  -7  -3   75.82   12.35
   1  -7  -3  103.48   11.81
   0  -7  -3    2.43    3.11
  -1  -7  -3  101.52   11.16
  -2  -7  -3   46.79    3.99
  -2  -7  -3   52.61    9.02
  -3  -7  -3    2.43    3.05
  -3  -7  -3    3.01    1.56
   5   7   3   41.31   12.82
  -6  -7  -3    1.12    4.22
   6   7   3    7.03    7.22
   6   7   3    5.44    2.21
   7   7   3  101.85    7.92
   7   7   3   98.83   18.05
  -8  -7  -3    3.35    6.88
   8   7   3   50.46    5.70
  -9  -7  -3    5.06    8.68
   9   7   3   18.95    4.57
   1  -8  -3    1.04    3.23
   0  -8  -3   52.40    9.57
  -1  -8  -3   68.24    9.73
  -2  -8  -3    1.09    3.39
  -3  -8  -3  117.24   13.36
   5   8   3   -0.03    6.68
   6   8   3   38.05   13.69
   6   8   3   80.29    6.42
   7   8   3   37.64    5.29
   8   8   3    1.03    2.24
   9   8   3   52.07    7.58
  -1  -9  -3    7.42    4.52
  -2  -9  -3   61.58   11.34
  -3  -9  -3   33.96    9.12
   5   9   3    8.19    9.71
  -2 -10  -3   35.58   10.25
  -3 -10  -3    3.39    5.18
  -3 -10   4   25.12    6.35
  -2 -10   4   21.38    5.64
   5   9  -4    4.87   10.25
  -5  -9   4   -0.75    3.49
   4   9  -4   24.07   14.66
  -4  -9   4   49.02    8.54
   3   9  -4    6.69   10.62
  -3  -9   4   32.16    6.64
  -2  -9   4   -0.58    3.02
  -2  -9   4    1.99    3.66
  -1  -9   4   37.51    6.83
  -1  -9   4   52.94   10.29
   0  -9   4   42.60    7.41
   1  -9   4   -0.81    2.82
   7   8  -4   32.02   14.96
  -7  -8   4    8.18    7.20
   6   8  -4    0.76    8.28
  -6  -8   4   -0.74    4.93
  -6  -8   4   -1.23    3.15
   5   8  -4   14.32   10.76
  -5  -8   4   32.57    6.42
  -5  -8   4   10.98    5.69
   4   8  -4   10.29    9.55
  -4  -8   4   48.43    7.85
   3   8  -4   -0.11    6.40
  -3  -8   4   -0.85    2.89
  -2  -8   4   52.51    8.12
  -2  -8   4   64.21    9.63
  -1  -8   4   77.17   10.20
  -1  -8   4   73.64    8.59
   0  -8   4    2.71    3.35
   0  -8   4    1.87    3.17
   1  -8   4   79.96    8.99
   1  -8   4   80.87   10.91
   2  -8   4   32.77    6.78
   7   7  -4    2.71    8.86
  -7  -7   4    1.36    5.94
   6   7  -4   46.51   15.73
  -6  -7   4   54.05    8.33
   5   7  -4   52.94   16.76
  -5  -7   4   45.54    7.05
  -5  -7   4   33.19    8.47
   4   7  -4    0.67    6.38
  -4  -7   4    2.62    3.00
  -4  -7   4    2.28    3.48
  -3  -7   4   93.45    9.87
  -3  -7   4   87.34    9.00
  -2  -7   4   46.47    7.45
  -2  -7   4   41.76    5.57
  -2  -7   4   56.46    8.09
  -1  -7   4   20.56    5.04
  -1  -7   4   15.71    4.74
   0  -7   4  130.62   13.21
   0  -7   4  136.18   11.58
   1  -7   4   61.24    8.72
   1  -7   4   60.90    8.74
   2  -7   4    2.57    3.42
   2  -7   4    2.52    3.10
   3  -7   4   72.40   10.65
   3  -7   4   74.70    9.89
   8   6  -4    4.28    8.17
  -8  -6   4    4.50    6.85
   7   6  -4   71.80   20.06
   7   6  -4   55.45    6.71
   6   6  -4   61.15   17.09
  -6  -6   4   54.20    7.89
  -6  -6   4   34.34    9.65
   5   6  -4    9.66    7.92
  -5  -6   4    5.14    4.71
  -5  -6   4   12.22    3.65
   4   6  -4   93.00   21.35
  -4  -6   4  111.96    8.98
  -4  -6   4   90.78   10.93
   3   6  -4   47.54   15.55
  -3  -6   4   76.38    7.37
  -3  -6   4   69.75    8.04
  -2  -6   4    6.34    3.07
  -2  -6   4    5.07    2.44
  -2  -6   4    9.63    3.45
  -1  -6   4  145.41   10.41
  -1  -6   4  153.42   11.82
  -1  -6   4  139.27   12.78
   0  -6   4  132.86   11.09
   0  -6   4  135.56    9.49
   0  -6   4  114.99   11.84
   1  -6   4   32.56    4.30
   1  -6   4   35.66    6.30
   1  -6   4   25.20    5.63
   2  -6   4  169.58   12.70
   2  -6   4  148.48   14.19
   3  -6   4   26.58    6.00
   3  -6   4   18.75    5.59
   4  -6   4    8.41    4.09
   4  -6   4    5.85    3.87
   8   5  -4   50.74    7.42
   8   5  -4   80.22   18.98
  -8  -5   4   18.05    9.47
   7   5  -4   60.37    7.02
   7   5  -4   90.47   19.82
   6   5  -4    3.20    7.16
  -6  -5   4    1.66    4.41
  -6  -5   4    0.25    2.00
   5   5  -4   87.66   19.26
  -5  -5   4   81.53    7.82
   4   5  -4  113.58   21.85
  -4  -5   4  127.03   13.18
  -4  -5   4  156.69   10.12
   3   5  -4   -0.92    3.86
  -3  -5   4    0.43    2.01
  -3  -5   4    0.69    1.67
  -2  -5   4  243.60   16.02
  -2  -5   4  223.67   14.14
  -1  -5   4  188.63   12.68
  -1  -5   4  180.78   14.01
  -1  -5   4  179.44   12.69
   0  -5   4   25.08    5.08
   0  -5   4   27.66    3.90
   0  -5   4   18.64    4.41
   1  -5   4  136.46   10.97
   1  -5   4  160.55   11.57
   1  -5   4  151.44   12.86
   2  -5   4   99.20   10.39
   2  -5   4  108.78    9.44
   2  -5   4  109.87    8.88
   3  -5   4   10.83    4.25
   3  -5   4   14.21    4.13
   3  -5   4   17.86    4.00
   4  -5   4  102.08   11.69
   4  -5   4  119.27   10.34
   4  -5   4  106.64   10.26
   5  -5   4   43.63    8.94
   5  -5   4   40.35    7.50
   8   4  -4   77.49   17.08
   8   4  -4   70.05    8.52
   7   4  -4   -0.77    5.03
   7   4  -4    3.96    2.94
  -7  -4   4    0.90    4.91
   6   4  -4  212.64   24.34
   6   4  -4  159.73   11.66
   5   4  -4  107.11   19.54
  -5  -4   4   87.21    7.77
  -5  -4   4   69.67   10.76
   4   4  -4    2.53    5.69
  -4  -4   4    0.97    1.52
  -4  -4   4   -2.30    2.15
   3   4  -4   83.67   17.68
  -3  -4   4  111.85    7.52
  -3  -4   4   91.66    9.46
   2   4  -4   89.14   17.88
  -2  -4   4  133.27    8.80
  -2  -4   4  152.35   10.89
  -1  -4   4   24.42    4.18
  -1  -4   4   27.55    4.06
  -1  -4   4   24.44    4.36
   0  -4   4  143.58   10.59
   0  -4   4  132.19   11.04
   0  -4   4  151.19   11.06
   1  -4   4  110.35    8.92
   1  -4   4  110.14    8.80
   1  -4   4   96.70    9.27
   2  -4   4   15.15    3.32
   2  -4   4   12.79    3.72
   2  -4   4   10.93    3.23
   3  -4   4  170.27   12.42
   3  -4   4  172.23   12.14
   3  -4   4  193.82   14.78
   4  -4   4   62.55    8.33
   4  -4   4   71.94    7.37
   4  -4   4   66.44    6.92
   5  -4   4   11.02    4.08
   5  -4   4    8.06    3.77
   5  -4   4   12.30    3.78
   6  -4   4   63.74    9.71
   6  -4   4   73.42    8.90
   6  -4   4   65.28    8.06
   8   3  -4    2.46    2.91
   8   3  -4    0.74    5.05
  -8  -3   4    0.46    5.02
   7   3  -4  109.99    9.70
   7   3  -4  139.04   17.74
   6   3  -4   90.74    8.04
   6   3  -4   87.52   16.39
   5   3  -4    1.15    4.36
   5   3  -4    2.88    2.09
  -5  -3   4    2.84    3.37
   4   3  -4  150.78   18.32
  -4  -3   4  121.05    8.34
  -4  -3   4   96.31   11.52
   3   3  -4  223.68   23.64
  -3  -3   4  195.66   11.25
  -3  -3   4  207.59   15.52
   2   3  -4   46.34   11.55
  -2  -3   4   36.62    3.65
  -2  -3   4   45.52    5.26
  -1  -3   4  468.56   22.18
  -1  -3   4  435.00   26.63
   0   3  -4   70.53    6.50
   0  -3   4   76.77    7.37
   0  -3   4   85.05    6.97
   0  -3   4   75.34    6.64
   1  -3   4  113.12    9.32
   1  -3   4  113.96    8.97
   1  -3   4  122.14    8.78
   2  -3   4  163.85   10.69
   2  -3   4  165.36   11.15
   2  -3   4  151.99   12.01
   3  -3   4   47.22    5.27
   3  -3   4   42.33    4.86
   3  -3   4   42.77    5.72
   4  -3   4   15.77    3.62
   4  -3   4   16.55    4.45
   4  -3   4   20.48    4.00
   5  -3   4  164.57   11.77
   5  -3   4  148.30   13.62
   5  -3   4  169.72   12.53
   6  -3   4   45.70    8.38
   6  -3   4   60.93    7.37
   6  -3   4   70.97    7.84
   7  -3   4   18.80    5.43
   7  -3   4   13.96    5.53
   7  -3   4   20.14    5.39
   8   2  -4   63.37   13.00
   8   2  -4   72.54    8.10
   7   2  -4  112.43   14.96
   7   2  -4   99.71    8.79
   6   2  -4    6.68    2.50
   6   2  -4    1.22    3.81
  -6  -2   4    3.50    4.23
   5   2  -4  354.61   18.23
   5   2  -4  313.95   26.98
  -4  -2   4  119.35   12.32
   3   2  -4    4.80    4.23
  -3  -2   4    4.04    2.47
  -3  -2   4    2.69    1.29
   2   2  -4  445.17   33.89
  -2  -2   4  462.65   26.43
  -2  -2   4  412.90   20.31
   1   2  -4  220.22   13.80
   1   2  -4  222.96   13.63
   1   2  -4  182.76   20.23
  -1  -2   4  218.73   14.23
  -1  -2   4  210.58   11.02
   0   2  -4  142.20    9.89
   0   2  -4  147.88    9.58
   0   2  -4  139.43   10.48
   0  -2   4  140.56   10.94
   0  -2   4  164.59    9.42
   0  -2   4  147.22    9.71
  -1   2  -4  462.07   26.45
  -1   2  -4  432.87   25.72
   1  -2   4  424.04   22.20
   1  -2   4  471.23   26.27
   1  -2   4  460.30   26.11
   2  -2   4  276.39   17.42
   2  -2   4  264.18   14.61
   2  -2   4  283.29   16.86
   3  -2   4   99.54    7.63
   3  -2   4  100.10    8.36
   3  -2   4   86.73    6.80
   4  -2   4  348.71   18.57
   4  -2   4  358.88   22.69
   4  -2   4  349.87   21.52
   5  -2   4   74.72    8.11
   5  -2   4   73.93    7.17
   5  -2   4   67.16    6.56
   6  -2   4   34.64    6.69
   6  -2   4   37.39    5.69
   6  -2   4   41.30    5.69
   7  -2   4   71.96    8.00
   7  -2   4   62.30    8.95
   7  -2   4   64.10    8.01
   8  -2   4   19.27    6.48
   8  -2   4   17.61    5.51
   8   1  -4   79.06    8.51
   7   1  -4   -0.49    3.47
   7   1  -4   -0.23    2.11
  -7  -1   4    0.47    4.44
   6   1  -4  150.99   10.14
   6   1  -4  138.17   14.92
   5   1  -4   78.39   10.63
   5   1  -4   91.03    6.81
   4   1  -4    1.19    2.59
   4   1  -4   -0.06    1.10
  -4  -1   4    0.03    2.68
   3   1  -4  256.65   19.83
  -3  -1   4  245.86   18.10
   2   1  -4  381.39   26.62
  -2  -1   4  395.43   23.33
  -2  -1   4  369.98   17.82
   1   1  -4    0.83    2.47
   1   1  -4   -0.28    0.93
   1   1  -4    0.58    0.71
  -1  -1   4    3.32    3.28
  -1  -1   4   -0.67    0.91
  -1  -1   4    1.42    0.87
   0   1  -4 1000.00   47.87
   0   1  -4  851.81   39.72
   0  -1   4  867.72   39.12
   0  -1   4  832.10   48.98
  -1   1  -4   86.25    6.44
  -1   1  -4   83.76    6.81
  -1   1  -4   86.80    6.40
   1  -1   4   92.66    6.95
   1  -1   4   83.68    6.01
   1  -1   4   89.99    6.16
  -2   1  -4   20.76    3.03
   2  -1   4   21.62    2.82
   2  -1   4   21.64    2.89
   2  -1   4   17.40    2.65
   3  -1   4  297.62   18.19
   3  -1   4  288.86   17.88
   3  -1   4  309.48   15.17
   4  -1   4  149.26   10.88
   4  -1   4  141.16    8.93
   4  -1   4  149.04   10.49
   5  -1   4   30.58    5.10
   5  -1   4   28.40    4.29
   5  -1   4   23.71    4.46
   6  -1   4  240.34   14.60
   6  -1   4  274.08   17.61
   6  -1   4  230.99   17.79
   7  -1   4   48.99    7.39
   7  -1   4   53.39    7.02
   7  -1   4   50.21    6.87
   8  -1   4   32.10    7.51
   8  -1   4   26.53    5.77
   8  -1   4   34.39    7.22
   7   0  -4   55.56    6.30
   7   0  -4   48.76    9.85
   6   0  -4   84.19   10.88
   6   0  -4   77.91    6.87
   5   0  -4   -1.61    1.44
   5   0  -4    1.64    1.58
  -5   0   4   -0.14    3.09
   4   0  -4  262.87   13.70
   4   0  -4  274.04   19.95
   3   0  -4  291.52   13.58
   3   0  -4  292.80   19.74
  -3   0   4  233.63   18.88
   2   0  -4   47.17    3.30
   2   0  -4   46.24    3.29
   2   0  -4   39.97    5.64
  -2   0   4   42.49    5.16
   1   0  -4  381.91   16.39
   1   0  -4  371.66   20.96
   1   0  -4  371.33   22.91
  -1   0   4  335.37   23.66
  -1   0   4  357.16   16.45
  -1   0   4  372.65   21.33
   0   0  -4   80.60    7.12
   0   0  -4  106.01    8.13
   0   0  -4   85.76    5.25
   0   0   4   90.48    6.97
   0   0   4   70.46    8.14
   0   0   4   93.85    4.72
  -1   0  -4    6.17    1.50
  -1   0  -4    2.73    2.32
  -1   0  -4   10.20    2.46
  -1   0  -4    7.20    1.24
   1   0   4    9.32    1.73
   1   0   4    9.95    2.25
  -2   0  -4  308.15   18.48
  -2   0  -4  329.79   14.89
  -2   0  -4  325.39   17.94
   2   0   4  333.67   15.08
   2   0   4  320.73   17.84
   2   0   4  299.54   18.44
  -3   0  -4  352.26   20.09
   3   0   4  335.40   20.00
   3   0   4  338.45   19.65
   3   0   4  349.07   16.34
   4   0   4   23.92    3.33
   4   0   4   24.59    3.27
   4   0   4   19.08    2.81
   5   0   4  287.96   15.14
   5   0   4  290.19   18.61
   6   0   4   38.44    4.57
   6   0   4   39.94    5.53
   7   0   4   24.23    5.36
   7   0   4   25.80    4.40
   8   0   4  114.01    9.39
   8   0   4   98.18   11.18
   8   0   4   98.64   10.68
   9   0   4   15.71    5.78
   7  -1  -4   52.62   10.41
   7  -1  -4   55.36    6.61
   6  -1  -4    6.50    2.64
   6  -1  -4    3.38    3.08
  -6   1   4    1.37    3.94
   5  -1  -4  148.94    9.26
   5  -1  -4  142.04   13.60
   4  -1  -4   30.66    5.81
   4  -1  -4   37.03    3.64
   3  -1  -4   19.97    2.27
   3  -1  -4   19.98    4.34
  -3   1   4    9.72    3.78
   2  -1  -4  403.01   17.66
   2  -1  -4  372.45   17.03
   2  -1  -4  392.62   23.58
  -2   1   4  335.86   23.05
   1  -1  -4  319.87   14.34
   1  -1  -4  327.20   19.74
   1  -1  -4  324.50   14.48
   1  -1  -4  322.59   18.59
  -1   1   4  326.98   18.98
  -1   1   4  323.75   20.80
   0  -1  -4   69.31    5.34
   0  -1  -4   61.04    5.89
   0  -1  -4   73.73    3.67
   0   1   4   71.64    6.09
   0   1   4   69.99    3.46
   0   1   4   66.59    5.30
  -1  -1  -4  496.84   20.57
  -1  -1  -4  508.45   25.50
  -1  -1  -4  482.76   27.00
   1   1   4  452.67   26.48
   1   1   4  465.41   26.67
   1   1   4  466.40   20.95
  -2  -1  -4   29.07    2.97
  -2  -1  -4   26.98    2.02
   2   1   4   26.33    2.87
   2   1   4   30.35    2.19
  -3  -1  -4  137.99    7.10
  -3  -1  -4  130.07    9.09
   3   1   4  141.56    8.34
   3   1   4  140.50    7.26
   3   1   4  137.82    9.17
  -4  -1  -4  315.11   21.12
   4   1   4  353.04   16.33
   4   1   4  346.21   19.76
   5   1   4   66.93    5.17
   5   1   4   73.21    6.44
   6   1   4   79.47    7.69
   6   1   4   80.31    6.34
   7   1   4  129.38    9.16
   7   1   4  128.59   11.34
   8   1   4   39.14    5.91
   8   1   4   38.58    7.11
   9   1   4   30.26    7.37
   7  -2  -4    3.88    3.39
  -7   2   4    3.50    6.94
   6  -2  -4   70.74    9.99
   6  -2  -4   65.39    6.53
   5  -2  -4  131.14    8.71
   5  -2  -4  118.82   12.44
   4  -2  -4    9.25    2.25
   4  -2  -4    9.64    3.80
  -4   2   4    3.90    3.40
   3  -2  -4  441.39   28.02
   3  -2  -4  440.20   20.60
   2  -2  -4  138.51   10.97
   2  -2  -4  132.80    7.25
   2  -2  -4  146.02    8.24
   1  -2  -4  108.12    5.44
   1  -2  -4  116.43    7.37
   1  -2  -4  102.85    5.74
   1  -2  -4  102.28    8.27
  -1   2   4  103.01    7.85
   0  -2  -4  688.33   37.98
   0  -2  -4  704.23   29.17
   0  -2  -4  649.93   38.12
   0  -2  -4  698.06   29.24
   0   2   4  722.01   38.51
   0   2   4  695.17   37.16
  -1  -2  -4   64.19    4.74
  -1  -2  -4   66.95    5.05
   1   2   4   71.13    4.80
   1   2   4   66.27    5.07
  -2  -2  -4   19.17    1.43
   2   2   4   12.80    2.59
   2   2   4   21.50    1.50
   2   2   4   22.21    1.56
   2   2   4   21.82    2.45
  -3  -2  -4  515.21   23.49
   3   2   4  550.52   29.71
   3   2   4  538.89   28.97
   3   2   4  543.92   23.61
  -4  -2  -4  120.73   11.32
   4   2   4  153.75    7.95
   4   2   4  158.43    9.74
  -5  -2  -4   88.01   10.51
   5   2   4   90.71    6.04
   5   2   4   95.86    7.56
   6   2   4  403.08   19.69
   6   2   4  387.54   24.35
  -7  -2  -4    3.07    4.82
   7   2   4   10.59    3.41
   7   2   4   11.52    2.77
   8   2   4   49.56    7.25
   8   2   4   55.92    6.17
   9   2   4   88.86    8.61
   9   2   4   99.58   11.22
   6  -3  -4   88.21    8.22
   5  -3  -4    3.52    3.76
   5  -3  -4    3.61    2.27
  -5   3   4    0.41    3.99
   4  -3  -4  145.81   13.76
   4  -3  -4  151.43    9.43
   3  -3  -4  164.09   14.01
   3  -3  -4  176.82    9.79
   2  -3  -4    4.55    2.47
   2  -3  -4    7.12    1.68
  -2   3   4    1.02    2.29
   1  -3  -4  248.46   14.07
   1  -3  -4  234.47   11.44
   1  -3  -4  251.88   16.15
  -1   3   4  223.17   10.90
   0  -3  -4  393.67   23.15
   0  -3  -4  371.89   22.00
   0  -3  -4  393.76   17.75
   0   3   4  375.55   16.73
   0   3   4  419.52   21.60
  -1  -3  -4    2.09    0.88
  -1  -3  -4    1.28    1.21
   1   3   4    2.65    1.32
   1   3   4    1.79    0.90
  -2  -3  -4  359.73   21.09
   2   3   4  378.96   16.24
   2   3   4  369.29   16.13
   2   3   4  374.12   20.85
   2   3   4  389.34   20.80
   3   3   4  109.75    7.40
   3   3   4  116.26    5.97
   3   3   4   96.00    9.74
   3   3   4  108.42    5.64
   3   3   4  111.53    6.92
   4   3   4   95.66    6.43
   4   3   4   95.18    8.12
   4   3   4   93.10    5.53
  -5  -3  -4  171.74   15.96
   6   3   4   44.76    4.35
   6   3   4   48.10    5.90
  -7  -3  -4    1.66    4.67
   7   3   4   14.13    4.02
   7   3   4   12.01    2.93
   8   3   4  127.35    9.57
   8   3   4  134.08   12.29
  -9  -3  -4   -2.09    5.09
   9   3   4   29.55    5.44
   5  -4  -4   78.03   10.90
   4  -4  -4   90.75   10.71
   4  -4  -4   84.57    7.25
   3  -4  -4    1.53    2.24
   3  -4  -4    1.92    1.72
  -3   4   4    1.76    3.32
   2  -4  -4  197.55   11.12
   2  -4  -4  204.60   15.59
   1  -4  -4  114.92    7.26
   1  -4  -4  115.08    7.69
   1  -4  -4  128.28   10.43
  -1   4   4  114.39    6.11
   0  -4  -4   34.82    4.69
   0  -4  -4   33.15    2.52
   0  -4  -4   34.11    3.27
   0   4   4   32.53    2.21
  -1  -4  -4  257.32   11.32
  -1  -4  -4  256.14   16.98
   1   4   4  256.61   11.37
   1   4   4  258.04   13.83
  -2  -4  -4  125.93    9.41
   2   4   4  128.06    8.50
   2   4   4  110.24    6.07
   2   4   4  119.03    7.47
   3   4   4   13.54    2.38
   3   4   4   12.84    2.15
   3   4   4   12.65    1.63
   3   4   4    5.60    2.87
   3   4   4   14.03    1.54
   4   4   4  218.54   18.94
   4   4   4  235.46   11.48
   4   4   4  244.49   14.28
   5   4   4  110.79    6.71
   5   4   4  107.59   10.92
   6   4   4   90.57    9.48
   6   4   4   87.47    6.32
   7   4   4  167.77   10.47
   7   4   4  163.70   13.95
   8   4   4   28.27    4.84
   8   4   4   36.34    7.02
  -9  -4  -4    1.37    6.19
   9   4   4   14.95    4.15
   4  -5  -4   10.09    4.87
   3  -5  -4  149.82   14.36
   2  -5  -4   33.92    6.61
   2  -5  -4   39.72    5.02
   1  -5  -4   12.17    3.66
   1  -5  -4   14.98    3.03
   0  -5  -4  179.11    9.96
   0  -5  -4  184.11   14.22
  -1  -5  -4  144.16   12.41
  -1  -5  -4  160.07    7.68
   1   5   4  159.77    7.67
  -2  -5  -4   31.97    5.59
  -2  -5  -4   37.23    2.62
   2   5   4   32.22    2.98
  -3  -5  -4  385.61   24.93
   3   5   4  424.45   19.24
   3   5   4  437.22   23.15
   4   5   4   53.95    4.65
   4   5   4   33.10    9.13
   4   5   4   55.65    3.93
   5   5   4   33.63    8.36
   5   5   4   40.80    3.67
   6   5   4  200.96   18.19
   6   5   4  209.00   11.57
   7   5   4   61.80    9.99
   7   5   4   43.55    4.76
  -8  -5  -4   -1.03    6.25
   8   5   4   25.06    4.40
   3  -6  -4   61.41   10.75
   2  -6  -4   26.70    6.80
   1  -6  -4  179.03   15.40
   0  -6  -4   92.45   10.01
  -1  -6  -4   83.35    9.35
  -1  -6  -4   79.76    4.90
  -2  -6  -4  231.68   11.36
  -2  -6  -4  250.86   18.49
  -3  -6  -4   89.72    8.95
  -3  -6  -4   77.04    5.26
   3   6   4   81.69    5.39
   4   6   4   50.64    4.44
   4   6   4   50.88    3.94
   5   6   4  176.55    9.90
   6   6   4   52.25    4.72
   6   6   4   48.51   11.50
   7   6   4   38.04    4.55
   7   6   4   41.58    9.72
  -9  -6  -4    0.78    7.04
   9   6   4   14.57    4.10
   2  -7  -4   77.57   11.02
   1  -7  -4   45.03    8.91
   0  -7  -4    3.87    3.49
  -1  -7  -4  153.11   14.49
  -2  -7  -4  125.88   12.95
  -3  -7  -4   35.51    7.51
   5   7   4   14.77    8.48
   6   7   4   39.43    4.33
   6   7   4   22.52    9.73
  -8  -7  -4    2.02    6.31
   8   7   4   17.33    3.87
  -9  -7  -4    2.11    8.64
   9   7   4   23.79    4.91
   1  -8  -4    0.01    3.50
   0  -8  -4   74.08   10.66
  -1  -8  -4   69.83   11.44
  -2  -8  -4   18.37    6.28
  -3  -8  -4   67.84   10.30
   5   8   4    2.58    6.57
  -1  -9  -4   12.38    5.86
  -2  -9  -4   59.94   11.27
  -3  -9  -4   38.45    9.72
  -5  -9   5    3.47    4.49
   4   9  -5   11.86   11.73
  -4  -9   5   32.47    7.61
   3   9  -5    2.34   10.08
  -3  -9   5   23.99    6.95
  -2  -9   5    1.72    3.64
  -2  -9   5    3.08    4.50
  -1  -9   5   43.12    7.82
  -1  -9   5   67.10   11.68
   0  -9   5   25.36    6.06
  -7  -8   5    5.97    7.73
   6   8  -5   -1.43    7.22
  -6  -8   5    1.33    5.75
  -6  -8   5    1.88    3.78
   5   8  -5   35.56   16.17
  -5  -8   5   42.10    7.97
  -5  -8   5   34.44    9.06
   4   8  -5   22.37   12.68
  -4  -8   5   47.23    8.11
   3   8  -5    6.63    8.63
  -3  -8   5    5.03    3.87
  -2  -8   5   81.56    9.87
  -2  -8   5  111.45   12.44
  -1  -8   5   28.37    7.13
  -1  -8   5   30.63    6.36
   0  -8   5    4.83    3.76
   0  -8   5    4.95    3.70
   1  -8   5   41.91    8.62
   1  -8   5   52.12    8.41
   2  -8   5   25.45    6.03
   7   7  -5    3.83    9.99
  -7  -7   5    0.60    3.74
  -7  -7   5    4.15    6.52
   6   7  -5   91.54   22.37
  -6  -7   5   76.96   10.37
  -6  -7   5   44.64   11.42
   5   7  -5   44.76   16.75
  -5  -7   5   39.39    7.13
  -5  -7   5   28.30    8.24
   4   7  -5    8.72   10.22
  -4  -7   5   12.64    4.22
  -4  -7   5    9.53    5.34
   3   7  -5   39.42   16.33
  -3  -7   5   92.49    9.84
  -2  -7   5   39.52    7.12
  -2  -7   5   42.93    6.02
  -1  -7   5    3.12    2.99
  -1  -7   5    4.77    2.44
  -1  -7   5    5.20    3.26
   0  -7   5  161.60   12.45
   0  -7   5  112.21   12.34
   1  -7   5   37.45    7.60
   1  -7   5   40.16    6.77
   2  -7   5   20.71    5.44
   2  -7   5   21.36    6.14
   3  -7   5   56.51   10.29
   3  -7   5   78.38    9.24
   7   6  -5   67.07   19.67
   7   6  -5   61.97    8.34
   6   6  -5   53.08   17.94
  -6  -6   5   41.38    7.50
  -6  -6   5   34.77   10.20
   5   6  -5    9.42    8.83
  -5  -6   5   16.11    4.43
  -5  -6   5    8.86    5.96
   4   6  -5  153.16   28.27
  -4  -6   5  147.28   15.11
  -4  -6   5  161.64   11.71
   3   6  -5   42.42   14.44
  -3  -6   5   84.10    9.15
  -3  -6   5   69.70    7.37
   2   6  -5   20.23   11.32
  -2  -6   5   34.77    6.00
  -2  -6   5   42.17    5.71
  -1  -6   5  218.55   14.92
  -1  -6   5  241.43   15.73
  -1  -6   5  201.10   16.66
   0  -6   5   62.54    8.20
   0  -6   5   68.05    8.00
   0  -6   5   71.18    6.75
   1  -6   5   36.65    6.95
   1  -6   5   37.90    5.07
   1  -6   5   46.44    7.32
   2  -6   5  148.31   14.28
   2  -6   5  179.18   13.17
   3  -6   5   35.87    7.49
   3  -6   5   17.33    5.01
   4  -6   5   19.29    6.35
   4  -6   5   17.31    5.46
   8   5  -5   41.21   15.09
   7   5  -5   77.36    8.44
   7   5  -5   90.62   20.58
   6   5  -5    1.12    6.99
  -6  -5   5    2.43    4.63
  -6  -5   5    2.00    2.56
   5   5  -5  173.49   24.66
  -5  -5   5  123.53    9.63
  -5  -5   5   79.45   12.48
   4   5  -5   37.43   13.54
  -4  -5   5   61.11    6.18
  -4  -5   5   66.80   10.87
   3   5  -5   27.72   11.34
  -3  -5   5   43.37    7.40
  -3  -5   5   41.49    4.97
  -2  -5   5  151.72   12.00
  -2  -5   5  144.71   10.61
  -1  -5   5   98.67    9.44
  -1  -5   5   94.45    8.82
  -1  -5   5  110.41    9.17
   0  -5   5   22.69    4.87
   0  -5   5   24.08    5.02
   0  -5   5   27.71    4.92
   1  -5   5  219.46   17.07
   1  -5   5  255.93   15.68
   1  -5   5  218.17   15.84
   2  -5   5   91.01    8.90
   2  -5   5   97.22   10.09
   2  -5   5   92.56    8.49
   3  -5   5   63.55    6.85
   3  -5   5   68.54    8.62
   3  -5   5   64.09    7.56
   4  -5   5  112.54   10.72
   4  -5   5  123.29   10.46
   4  -5   5  112.96   12.18
   5  -5   5    7.87    4.21
   5  -5   5   12.31    5.52
   8   4  -5   38.78   12.87
   8   4  -5   35.81    7.45
   7   4  -5    3.31    6.40
   7   4  -5    4.06    2.89
  -7  -4   5   -1.67    5.21
   6   4  -5   80.35    7.82
   6   4  -5   71.96   16.79
   5   4  -5   40.17   12.59
  -5  -4   5   41.35    6.11
  -5  -4   5   31.29    8.96
   4   4  -5   11.43    7.83
  -4  -4   5   12.39    2.96
  -4  -4   5   10.63    4.43
   3   4  -5  184.74   24.66
  -3  -4   5  211.22   12.36
  -3  -4   5  215.21   16.49
   2   4  -5  104.08   20.91
  -2  -4   5  145.37    9.40
  -2  -4   5  143.87   11.53
  -1  -4   5   18.11    3.66
  -1  -4   5   16.87    3.54
  -1  -4   5   15.30    3.79
   0  -4   5  377.72   20.77
   0  -4   5  381.87   23.54
   0  -4   5  343.85   22.99
   1  -4   5   55.53    6.28
   1  -4   5   55.56    6.22
   1  -4   5   50.39    6.28
   2  -4   5   73.55    7.88
   2  -4   5   66.74    6.73
   2  -4   5   76.77    7.31
   3  -4   5  131.55   10.34
   3  -4   5  124.22   11.57
   3  -4   5  128.91   10.30
   4  -4   5   39.21    5.37
   4  -4   5   34.35    6.63
   4  -4   5   42.69    6.76
   5  -4   5   24.88    5.32
   5  -4   5   26.88    5.98
   5  -4   5   19.75    5.52
   6  -4   5  100.46   12.28
   6  -4   5  112.12   10.91
   6  -4   5  109.12   11.03
   8   3  -5    3.78    7.25
   8   3  -5    7.10    4.06
   7   3  -5  109.70    9.86
   7   3  -5  110.67   19.25
   6   3  -5   86.64   16.63
   6   3  -5   99.34    8.63
   5   3  -5   12.85    7.30
  -5  -3   5    5.68    4.97
  -4  -3   5  191.27   11.49
  -4  -3   5  165.64   15.90
   3   3  -5   92.12   17.51
  -3  -3   5  104.21   10.09
  -3  -3   5   86.88    6.51
   2   3  -5   52.27   12.98
  -2  -3   5   71.22    5.37
  -2  -3   5   72.27    7.32
  -1  -3   5  196.12   14.38
  -1  -3   5  204.66   11.61
   0  -3   5  238.72   14.32
   0  -3   5  265.95   17.33
   0  -3   5  230.25   15.60
   1  -3   5    5.39    2.43
   1  -3   5    4.05    1.90
   1  -3   5    3.09    2.01
   2  -3   5  255.81   17.43
   2  -3   5  257.52   16.70
   2  -3   5  260.56   15.24
   3  -3   5   53.62    5.88
   3  -3   5   54.10    6.48
   3  -3   5   53.15    5.68
   4  -3   5   52.18    6.64
   4  -3   5   53.18    6.00
   4  -3   5   50.02    5.95
   5  -3   5  117.60    9.71
   5  -3   5  117.98   10.21
   5  -3   5  112.53   11.17
   6  -3   5   12.05    4.22
   6  -3   5   13.57    4.21
   6  -3   5    7.37    3.72
   7  -3   5   20.57    5.64
   7  -3   5   24.20    5.90
   7  -3   5   25.77    7.05
   8   2  -5  137.07   12.94
   7   2  -5   96.40    8.67
   7   2  -5   78.49   14.43
   6   2  -5   37.99    5.56
   6   2  -5   23.75    7.55
  -6  -2   5    7.92    5.07
   5   2  -5  234.34   13.75
   5   2  -5  224.54   22.00
   4   2  -5  108.19   13.41
  -4  -2   5   60.95    5.96
  -4  -2   5   72.09    9.74
   3   2  -5   13.65    5.62
  -3  -2   5    9.46    2.31
  -3  -2   5   11.59    4.00
   2   2  -5  416.34   32.16
  -2  -2   5  378.38   18.40
  -2  -2   5  374.98   23.98
   1   2  -5  288.43   26.45
  -1  -2   5  307.37   14.59
  -1  -2   5  275.64   18.73
   0  -2   5  141.38    8.92
   0  -2   5  141.64   11.24
   0  -2   5  139.52    9.54
   1  -2   5  335.61   20.88
   1  -2   5  340.75   20.09
   1  -2   5  326.62   17.74
   2  -2   5   56.85    5.51
   2  -2   5   54.51    5.27
   2  -2   5   49.86    5.21
   3  -2   5  117.96    9.41
   3  -2   5  102.51    7.87
   3  -2   5  124.62    9.15
   4  -2   5  132.04   10.87
   4  -2   5  133.39   10.28
   4  -2   5  135.16    9.31
   5  -2   5   51.28    6.15
   5  -2   5   51.28    6.63
   5  -2   5   61.65    6.24
   6  -2   5   50.93    6.55
   6  -2   5   45.77    6.54
   6  -2   5   45.21    6.91
   7  -2   5  110.49   11.98
   7  -2   5  115.48   10.40
   7  -2   5  119.25   11.38
   8  -2   5   15.13    5.50
   8  -2   5   15.94    5.98
   7   1  -5    0.24    2.52
   7   1  -5    1.09    3.95
  -7  -1   5    1.45    5.36
   6   1  -5  127.32    9.22
   6   1  -5  118.51   14.19
   5   1  -5  131.62   14.55
   5   1  -5  152.15    9.65
   4   1  -5    0.43    1.26
   4   1  -5    3.79    3.21
  -4  -1   5    0.71    2.57
   3   1  -5  390.32   27.31
  -3  -1   5  387.26   25.18
  -3  -1   5  349.34   18.45
   2   1  -5  134.37   13.14
  -2  -1   5  118.31    7.10
   1   1  -5  103.27    5.89
  -1  -1   5   90.48    5.38
  -1  -1   5   68.47   10.46
  -1  -1   5   92.00    7.82
   0   1  -5  589.43   29.67
   0   1  -5  670.48   38.13
   0   1  -5  647.74   35.08
   0  -1   5  669.63   37.01
   0  -1   5  621.31   28.79
  -1   1  -5  155.60   10.18
  -1   1  -5  139.99    9.79
   1  -1   5  160.40   11.17
   1  -1   5  155.64    9.33
   1  -1   5  157.64    9.71
  -2   1  -5   42.16    4.63
   2  -1   5   39.06    3.95
   2  -1   5   43.85    4.59
   2  -1   5   47.71    4.31
   3  -1   5  321.09   19.14
   3  -1   5  294.10   18.98
   3  -1   5  329.49   16.20
   4  -1   5   79.89    6.90
   4  -1   5   71.72    5.82
   4  -1   5   68.88    6.61
   5  -1   5   95.39    8.59
   5  -1   5   99.14    8.49
   5  -1   5   86.17    7.11
   6  -1   5  236.68   16.16
   6  -1   5  220.78   16.39
   6  -1   5  201.34   13.42
   7  -1   5   22.92    5.34
   7  -1   5   30.09    5.44
   7  -1   5   28.91    6.32
   8  -1   5   36.19    6.58
   8  -1   5   43.61    8.21
   8  -1   5   39.99    8.07
   7   0  -5  113.07   13.82
   7   0  -5   95.53    8.70
   6   0  -5   45.28    5.73
   6   0  -5   35.55    7.89
   5   0  -5   27.65    3.94
   5   0  -5   20.15    5.67
  -5   0   5   12.06    5.70
   4   0  -5   87.50    9.93
   4   0  -5   91.92    6.09
  -4   0   5   54.02   10.11
   3   0  -5  101.44    6.15
   3   0  -5   89.24    9.55
  -3   0   5   85.84    9.55
   2   0  -5    8.30    3.09
  -2   0   5    5.91    2.40
   1   0  -5  270.95   12.13
   1   0  -5  258.92   17.76
  -1   0   5  230.42   18.80
  -1   0   5  260.23   16.21
  -1   0   5  254.30   12.08
   0   0  -5   81.56    7.93
   0   0  -5   84.28    5.58
   0   0  -5   92.22    7.93
   0   0   5   88.65    4.75
   0   0   5   91.50    7.34
   0   0   5   70.74    8.99
  -1   0  -5  158.13    8.97
  -1   0  -5  139.43   10.75
  -1   0  -5  153.73    8.78
  -1   0  -5  138.91   12.03
   1   0   5  151.38    8.29
   1   0   5  139.41   10.26
  -2   0  -5  615.69   27.83
  -2   0  -5  622.26   33.83
   2   0   5  616.78   28.12
   2   0   5  672.66   34.97
   2   0   5  594.00   33.39
  -3   0  -5   76.22    6.00
   3   0   5   85.18    5.44
   3   0   5   76.73    6.43
   3   0   5   79.78    5.87
   4   0   5   74.44    5.51
   4   0   5   76.81    6.62
   4   0   5   76.42    6.23
   5   0   5  164.14   12.06
   5   0   5  164.91   10.05
   5   0   5  174.25   12.04
   6   0   5   33.96    4.91
   6   0   5   28.86    4.34
   6   0   5   38.58    5.28
   7   0   5   42.43    6.97
   7   0   5   40.05    5.64
   7   0   5   41.06    6.14
   8   0   5  111.66   11.71
   8   0   5  121.30    9.99
   8   0   5  129.11   12.10
   9   0   5    8.42    4.71
   7  -1  -5   34.59    5.61
  -7   1   5   -0.04    5.10
   6  -1  -5   11.14    3.09
   6  -1  -5    7.45    4.35
  -6   1   5    1.81    5.22
   5  -1  -5  122.67    8.35
   5  -1  -5  133.71   13.23
   4  -1  -5   54.36    4.57
   4  -1  -5   53.89    7.35
   3  -1  -5   43.86    3.51
   3  -1  -5   43.60    6.07
  -3   1   5   36.79    7.19
   2  -1  -5  546.60   24.49
   2  -1  -5  596.20   25.05
   2  -1  -5  526.70   32.88
  -2   1   5  537.82   32.71
   1  -1  -5   66.92    6.37
   1  -1  -5   70.53    3.91
   1  -1  -5   66.96    3.80
   1  -1  -5   68.92    6.03
  -1   1   5   68.72    5.91
   0  -1  -5  368.98   20.62
   0  -1  -5  336.90   21.44
   0  -1  -5  344.31   15.78
   0   1   5  339.46   20.38
   0   1   5  355.30   15.26
   0   1   5  350.71   21.92
  -1  -1  -5  269.48   17.60
  -1  -1  -5  306.78   15.93
  -1  -1  -5  296.81   12.83
   1   1   5  274.19   12.84
   1   1   5  255.83   17.49
   1   1   5  276.62   17.11
  -2  -1  -5  129.03    8.74
  -2  -1  -5  116.91    6.11
   2   1   5  123.55    8.59
   2   1   5  121.00    6.48
  -3  -1  -5   23.55    2.29
  -3  -1  -5   24.87    2.69
   3   1   5   26.18    3.29
   3   1   5   25.75    2.24
   3   1   5   28.79    2.54
  -4  -1  -5  350.23   21.79
   4   1   5  357.36   17.22
   4   1   5  362.64   20.47
   4   1   5  369.77   21.55
   5   1   5  109.22    7.15
   5   1   5  112.85    8.96
   5   1   5  111.73    8.37
   6   1   5  110.80    7.86
   6   1   5  115.63    9.79
   6   1   5  112.78    9.29
   7   1   5  157.24   12.66
   7   1   5  147.96   10.39
   7   1   5  164.19   13.11
   8   1   5   13.41    4.34
   8   1   5    9.37    4.31
   8   1   5   14.14    3.70
   6  -2  -5  107.21    8.70
   6  -2  -5  116.02   13.53
   5  -2  -5   50.98    9.04
   5  -2  -5   61.62    5.72
   4  -2  -5   19.08    5.18
   4  -2  -5   22.08    3.30
   3  -2  -5  230.36   16.97
   3  -2  -5  220.67   11.52
   2  -2  -5   67.04    6.99
   2  -2  -5   66.93    4.15
  -2   2   5   51.77    6.60
   1  -2  -5   38.64    4.69
   1  -2  -5   37.81    2.52
   1  -2  -5   38.61    4.01
   1  -2  -5   39.52    2.71
  -1   2   5   38.60    4.32
   0  -2  -5  592.17   33.23
   0  -2  -5  574.31   24.60
   0  -2  -5  580.77   24.48
   0  -2  -5  598.35   32.51
   0   2   5  567.94   33.28
   0   2   5  568.63   31.80
  -1  -2  -5   90.39    6.01
  -1  -2  -5   87.85    6.97
   1   2   5   84.76    6.67
   1   2   5   93.65    6.55
  -2  -2  -5   91.77    6.63
  -2  -2  -5   93.33    4.49
   2   2   5   93.41    4.71
   2   2   5   89.81    6.76
  -3  -2  -5  522.52   23.32
   3   2   5  519.88   29.74
   3   2   5  554.39   23.54
  -4  -2  -5   30.11    5.08
   4   2   5   36.98    4.09
   4   2   5   39.97    3.20
   4   2   5   38.54    3.19
  -5  -2  -5   51.45    7.48
   5   2   5   58.02    4.58
   5   2   5   62.03    5.26
   5   2   5   62.07    5.92
   6   2   5  148.51   10.53
   6   2   5  129.41    8.63
   7   2   5    7.94    2.81
   7   2   5    8.94    2.62
   8   2   5   63.41    6.43
   8   2   5   63.91    7.83
   9   2   5   94.81   11.24
   9   2   5   95.24    9.00
   5  -3  -5   10.15    4.71
   5  -3  -5    9.73    3.00
  -5   3   5    0.45    4.69
   4  -3  -5   69.35    8.98
   4  -3  -5   74.11    5.99
   3  -3  -5  104.59   10.63
   3  -3  -5  107.85    6.91
   2  -3  -5   41.80    5.64
   2  -3  -5   43.52    3.44
  -2   3   5   23.85    5.32
   1  -3  -5  444.05   25.78
   1  -3  -5  395.40   23.73
   1  -3  -5  447.55   18.98
   1  -3  -5  426.39   18.76
  -1   3   5  369.73   24.43
   0  -3  -5   38.50    4.45
   0  -3  -5   41.42    2.74
   0  -3  -5   41.84    2.16
   0  -3  -5   42.01    4.46
   0   3   5   41.79    3.72
  -1  -3  -5  102.43    7.70
  -1  -3  -5  106.21    7.10
   1   3   5  100.72    7.05
   1   3   5  111.26    7.69
  -2  -3  -5  189.88   12.05
   2   3   5  202.28    8.71
   2   3   5  187.33   12.07
   2   3   5  201.72   11.59
   2   3   5  205.39    8.72
   3   3   5   63.93    5.26
   3   3   5   58.96    6.06
   3   3   5   65.27    3.67
   3   3   5   63.54    3.95
   3   3   5   64.97    4.16
   4   3   5   88.52    5.30
   4   3   5   95.60    5.88
   4   3   5   87.68    6.53
   4   3   5   90.99    7.04
   5   3   5  347.62   16.78
   5   3   5  355.30   20.57
   5   3   5  340.85   21.14
   6   3   5   13.76    2.62
   6   3   5   12.09    2.98
   7   3   5   87.27    8.24
   7   3   5   83.39    6.77
   8   3   5  140.58   11.92
   8   3   5  127.93    9.59
   9   3   5    0.37    2.20
   5  -4  -5  135.12   15.89
   4  -4  -5   59.67    9.98
   3  -4  -5   21.80    5.43
   3  -4  -5   27.23    3.93
   2  -4  -5  126.14    7.88
   2  -4  -5  133.41   11.85
   1  -4  -5   34.97    5.19
   1  -4  -5   28.18    3.13
   0  -4  -5   47.61    3.27
   0  -4  -5   45.42    3.80
   0  -4  -5   40.59    5.20
   0   4   5   41.02    4.08
   0   4   5   43.34    2.46
  -1  -4  -5  213.20   15.08
  -1  -4  -5  225.41   12.49
   1   4   5  231.73   12.71
  -2  -4  -5   75.16    6.92
   2   4   5   83.78    6.19
   2   4   5   76.85    3.60
   2   4   5   78.93    3.98
   2   4   5   73.25    5.55
   3   4   5   58.08    4.62
   3   4   5   61.93    3.52
   3   4   5   57.18    3.36
   3   4   5   57.59    4.85
   4   4   5  265.28   19.78
   4   4   5  272.53   16.71
   4   4   5  286.74   16.10
   4   4   5  280.73   13.12
   5   4   5   20.56    4.22
   5   4   5   25.76    3.55
   5   4   5   22.19    2.59
   5   4   5   21.68    2.86
   6   4   5  111.84    9.62
   6   4   5  114.14    7.38
   7   4   5   91.90    7.10
   7   4   5  100.65    9.16
  -8  -4  -5    2.92    6.68
   8   4   5    7.47    2.82
   9   4   5   45.95    6.68
   4  -5  -5   12.21    5.61
   3  -5  -5  109.72   12.09
   2  -5  -5   74.73    9.26
   1  -5  -5   42.77    7.11
   0  -5  -5  259.31   18.66
   0  -5  -5  270.37   12.75
  -1  -5  -5   18.62    4.36
  -1  -5  -5   20.26    1.42
   1   5   5   20.02    1.42
  -2  -5  -5   76.90    8.17
   2   5   5   82.79    4.20
   2   5   5   74.73    5.04
  -3  -5  -5  242.44   15.90
   3   5   5  248.79   11.11
   3   5   5  235.53   14.18
   3   5   5  231.90   11.48
   4   5   5   24.05    3.10
   4   5   5   12.98    5.73
   4   5   5   22.85    2.29
   4   5   5   23.55    3.15
   5   5   5   55.95    4.17
   5   5   5   47.70    5.06
   5   5   5   52.41    9.39
   6   5   5  204.99   11.35
   6   5   5  205.18   16.57
  -7  -5  -5   -2.21    4.70
   7   5   5   11.56    2.80
  -8  -5  -5    3.14    6.30
   8   5   5   40.14    5.24
   9   5   5   83.30    8.04
   3  -6  -5   49.27    9.88
   2  -6  -5   48.74    9.23
   1  -6  -5  110.74   11.67
   0  -6  -5   27.28    5.92
  -1  -6  -5   41.83    7.37
  -2  -6  -5  190.36   15.76
  -3  -6  -5   96.42   10.08
   3   6   5  114.74    5.86
   4   6   5   68.27    5.50
   4   6   5   65.72    4.46
   5   6   5  241.10   14.71
   5   6   5  246.35   11.94
   5   6   5  168.16   20.20
   6   6   5   15.55    6.25
   6   6   5   12.22    3.25
   6   6   5    9.81    2.40
   7   6   5   38.57    4.44
   8   6   5   78.30    7.03
   9   6   5   14.15    4.06
   2  -7  -5   59.18   10.63
   1  -7  -5   33.32    7.80
   0  -7  -5   25.16    6.26
  -1  -7  -5  124.84   12.78
  -2  -7  -5    9.02    4.42
  -3  -7  -5   87.18   10.54
   5   7   5   10.48    7.25
   6   7   5   55.30    6.49
   6   7   5   51.14    4.91
   7   7   5  106.48    9.48
   7   7   5   95.20    7.49
   8   7   5   10.12    4.05
   8   7   5    7.26    2.99
   9   7   5   35.22    5.85
   1  -8  -5   36.76    8.92
   0  -8  -5   73.93   11.93
  -1  -8  -5   17.56    6.17
  -2  -8  -5   53.09   10.07
  -3  -8  -5  141.31   15.35
  -1  -9  -5   23.79    7.29
  -2  -9  -5   89.46   14.19
  -4  -9   6   36.95    8.53
  -3  -9   6   18.98    6.28
  -2  -9   6   25.81    6.45
  -1  -9   6   68.46    9.70
  -6  -8   6    4.93    5.89
   5   8  -6   30.86   14.73
  -5  -8   6   20.97    7.73
   4   8  -6    7.18   10.10
  -4  -8   6   10.43    5.56
  -4  -8   6    8.46    4.67
   3   8  -6    4.45    8.23
  -3  -8   6    9.35    4.83
  -2  -8   6   77.38   10.49
  -1  -8   6   16.96    5.61
  -1  -8   6   18.06    5.32
   0  -8   6   12.78    5.00
   0  -8   6   12.54    4.86
   1  -8   6   61.16    9.13
   1  -8   6   46.90    9.15
   2  -8   6    6.75    4.36
  -7  -7   6    1.21    6.92
   6   7  -6   68.03   20.89
  -6  -7   6   32.47   10.47
  -6  -7   6   58.59    9.56
   5   7  -6   21.68   13.01
  -5  -7   6   27.79    8.89
  -5  -7   6   13.88    4.60
   4   7  -6    4.97    7.46
  -4  -7   6    8.10    5.25
  -4  -7   6   12.25    4.57
   3   7  -6   35.07   15.08
  -3  -7   6   90.64   10.16
  -3  -7   6   82.69    9.18
   2   7  -6    1.56    7.50
  -2  -7   6   22.77    5.24
  -2  -7   6   19.93    5.31
  -1  -7   6   32.62    6.98
  -1  -7   6   40.80    7.38
  -1  -7   6   35.75    5.88
   0  -7   6  106.28   11.92
   0  -7   6  125.85   11.26
   1  -7   6    9.49    4.30
   1  -7   6    5.35    3.82
   2  -7   6   17.15    5.63
   2  -7   6   22.31    5.81
   3  -7   6   50.71    8.30
   3  -7   6   57.87   10.18
   7   6  -6   52.90    7.82
   7   6  -6  103.68   23.85
  -7  -6   6   22.43    9.85
   6   6  -6   40.98   15.44
  -6  -6   6   20.65    8.43
  -6  -6   6   35.08    6.98
   5   6  -6   16.51   11.11
  -5  -6   6   10.26    6.28
  -5  -6   6   17.46    4.65
   4   6  -6  110.66   24.17
  -4  -6   6  132.78   14.45
  -4  -6   6  128.38   10.51
   3   6  -6    1.49    6.57
  -3  -6   6   16.03    4.42
  -3  -6   6   17.84    5.46
   2   6  -6   25.78   12.50
  -2  -6   6   59.66    7.27
  -2  -6   6   46.06    7.11
  -1  -6   6  105.74    9.80
  -1  -6   6  127.26   10.85
  -1  -6   6  116.16   11.26
   0  -6   6   20.35    5.07
   0  -6   6   16.03    4.57
   0  -6   6   26.45    4.90
   1  -6   6   26.00    5.56
   1  -6   6   33.03    5.67
   1  -6   6   28.71    6.26
   2  -6   6  152.42   12.43
   2  -6   6  159.99   14.60
   2  -6   6  154.29   12.47
   3  -6   6    7.42    4.05
   3  -6   6    7.23    3.86
   4  -6   6   43.18    8.11
   4  -6   6   35.67    8.10
   7   5  -6   29.25   13.09
   7   5  -6   28.04    5.93
   6   5  -6   28.11   13.55
  -6  -5   6   22.49    9.08
  -6  -5   6   19.78    5.11
   5   5  -6  178.76   25.63
  -5  -5   6   89.38   15.48
  -5  -5   6   99.90    9.04
   4   5  -6   25.29   11.87
  -4  -5   6   35.26    5.38
  -4  -5   6   42.49    9.05
   3   5  -6   36.33   14.21
  -3  -5   6   46.60    8.24
  -3  -5   6   44.77    5.36
   2   5  -6  141.01   27.06
  -2  -5   6  221.72   13.92
  -2  -5   6  227.82   16.45
  -1  -5   6   56.38    6.85
  -1  -5   6   55.55    6.79
  -1  -5   6   54.73    6.47
   0  -5   6  204.56   14.00
   0  -5   6  191.23   14.31
   0  -5   6  184.76   14.73
   1  -5   6  261.38   19.58
   1  -5   6  295.56   17.70
   1  -5   6  274.24   18.93
   2  -5   6   36.97    6.22
   2  -5   6   28.25    5.71
   2  -5   6   32.98    6.49
   3  -5   6   66.75    7.88
   3  -5   6   67.69    8.45
   3  -5   6   58.84    6.98
   4  -5   6  116.96   12.16
   4  -5   6   95.90   10.24
   4  -5   6  106.11    9.99
   5  -5   6    7.41    4.42
   5  -5   6   10.12    4.79
   7   4  -6    3.23    3.23
   7   4  -6    6.44    7.24
  -7  -4   6    2.01    6.48
   6   4  -6  150.88   25.56
   6   4  -6  117.79   10.09
   5   4  -6   74.49   17.59
  -5  -4   6   42.37    6.26
  -5  -4   6   35.85    9.36
   4   4  -6   81.85   18.56
  -4  -4   6   65.00    6.31
  -4  -4   6   71.29   10.43
   3   4  -6  268.65   29.95
  -3  -4   6  224.11   13.45
  -3  -4   6  229.68   18.26
   2   4  -6    6.38    7.40
  -2  -4   6   11.71    4.01
  -2  -4   6   12.17    2.94
   1   4  -6   40.76   13.71
  -1  -4   6   62.01    6.19
  -1  -4   6   59.78    7.12
   0  -4   6  283.93   18.40
   0  -4   6  226.66   16.80
   0  -4   6  251.90   15.75
   1  -4   6   50.61    6.17
   1  -4   6   43.12    5.95
   1  -4   6   44.26    6.47
   2  -4   6   89.11    9.02
   2  -4   6   85.48    8.31
   2  -4   6  101.90    8.90
   3  -4   6  231.32   15.15
   3  -4   6  224.41   17.17
   3  -4   6  229.52   15.98
   4  -4   6   16.47    4.24
   4  -4   6   18.52    4.67
   4  -4   6   15.88    4.66
   5  -4   6   72.22    8.09
   5  -4   6   65.19    9.02
   5  -4   6   52.69    8.22
   6  -4   6   54.09    8.90
   6  -4   6   65.43    8.50
   6  -4   6   69.12    9.88
   7   3  -6  125.94   10.79
   7   3  -6  124.20   18.84
   6   3  -6   34.75    5.80
   6   3  -6   51.14   12.75
   5   3  -6   59.44   13.83
  -5  -3   6   46.88   10.88
   4   3  -6  181.69   21.40
  -4  -3   6  118.47   13.48
  -4  -3   6  117.45    8.81
   3   3  -6   43.90   12.86
  -3  -3   6   21.38    3.47
  -3  -3   6   25.80    5.87
   2   3  -6  108.89   20.20
  -2  -3   6   92.69    9.33
  -2  -3   6   89.64    6.55
   1   3  -6  182.88   23.63
  -1  -3   6  206.32   16.20
  -1  -3   6  267.17   13.28
   0  -3   6   52.18    5.53
   0  -3   6   55.33    5.62
   0  -3   6   54.47    6.74
   1  -3   6  215.00   13.42
   1  -3   6  204.42   14.31
   1  -3   6  210.22   15.26
   2  -3   6  299.19   17.69
   2  -3   6  313.85   20.33
   2  -3   6  318.56   20.11
   3  -3   6    2.06    2.19
   3  -3   6    1.76    1.88
   3  -3   6    2.79    1.97
   4  -3   6   75.52    7.66
   4  -3   6   82.87    8.02
   4  -3   6   88.44    8.85
   5  -3   6  102.18   10.55
   5  -3   6  100.55    9.60
   5  -3   6  108.54    9.63
   6  -3   6    3.46    3.08
   6  -3   6    1.36    2.96
   6  -3   6    5.06    3.30
   7  -3   6   57.42   10.04
   7  -3   6   47.24    8.51
   7   2  -6   23.02    8.39
   7   2  -6   39.64    6.64
   6   2  -6    8.70    5.79
   6   2  -6   10.55    3.46
  -6  -2   6    3.77    5.14
   5   2  -6  220.30   22.08
   5   2  -6  220.60   13.52
   4   2  -6   91.51   13.31
  -4  -2   6   87.69   11.14
  -4  -2   6   70.38    6.59
   3   2  -6  120.35   15.25
  -3  -2   6   98.01   10.30
  -3  -2   6   86.28    6.62
   2   2  -6  333.90   27.67
  -2  -2   6  276.49   19.47
  -2  -2   6  274.77   14.41
   1   2  -6  119.39   16.35
  -1  -2   6  117.67    6.90
  -1  -2   6   89.02    9.08
   0   2  -6   72.51   14.48
   0  -2   6  127.18    7.95
   0  -2   6  113.85   10.00
   1  -2   6  224.72   13.24
   1  -2   6  204.98   15.32
   1  -2   6  234.00   14.27
   2  -2   6   48.77    5.38
   2  -2   6   46.83    5.03
   2  -2   6   54.51    5.35
   3  -2   6  142.84   11.04
   3  -2   6  158.42   10.23
   3  -2   6  140.94   10.91
   4  -2   6  247.69   16.52
   4  -2   6  240.78   16.81
   4  -2   6  238.65   14.46
   5  -2   6   27.00    5.20
   5  -2   6   20.52    4.13
   5  -2   6   28.13    5.18
   6  -2   6   93.54    9.18
   6  -2   6   89.84    8.38
   6  -2   6   78.00    9.26
   7  -2   6   70.26    9.27
   7  -2   6   68.55    8.15
   7  -2   6   69.82    8.67
   8  -2   6    0.71    3.11
   8  -2   6    1.62    3.84
   7   1  -6   16.36    6.76
   7   1  -6   29.09    5.47
  -7  -1   6    1.43    5.69
   6   1  -6  187.70   12.35
   6   1  -6  186.63   19.02
   5   1  -6   41.62    4.66
   5   1  -6   34.30    8.23
  -5  -1   6   31.18    8.96
   4   1  -6   86.30    6.43
   4   1  -6   86.65   11.20
  -4  -1   6   50.76    9.89
   3   1  -6  225.12   18.66
  -3  -1   6  194.46   15.92
  -3  -1   6  187.17   11.27
   2   1  -6   21.56    6.27
  -2  -1   6   25.53    2.83
  -2  -1   6   26.60    4.98
   1   1  -6   28.23    7.22
  -1  -1   6   25.26    4.58
  -1  -1   6   26.94    2.62
   0   1  -6  572.52   31.30
   0   1  -6  546.48   38.31
   0  -1   6  532.06   32.96
   0  -1   6  577.12   25.68
  -1   1  -6  162.63   10.48
   1  -1   6  145.50   11.47
   1  -1   6  155.11    9.51
  -2   1  -6  248.30   15.71
   2  -1   6  228.82   13.27
   2  -1   6  240.38   15.80
   2  -1   6  250.81   14.82
   3  -1   6  250.01   13.79
   3  -1   6  252.37   15.78
   3  -1   6  248.37   16.24
   4  -1   6    3.35    1.89
   4  -1   6    1.86    1.60
   4  -1   6    3.76    1.88
   5  -1   6   87.06    7.15
   5  -1   6   82.52    7.94
   5  -1   6   79.56    7.74
   6  -1   6  156.30   12.39
   6  -1   6  136.45   10.33
   6  -1   6  152.15   12.45
   7  -1   6   10.24    3.69
   7  -1   6   13.65    4.19
   7  -1   6    8.02    3.53
   8  -1   6   66.19    8.93
   8  -1   6   58.72    8.61
   8  -1   6   57.82    8.51
   6   0  -6   26.89    4.50
   6   0  -6   18.13    6.59
   5   0  -6   44.71    4.79
   5   0  -6   52.51    9.39
   4   0  -6  264.56   21.14
   4   0  -6  289.15   14.70
   3   0  -6  169.33   14.88
   3   0  -6  188.49    9.86
  -3   0   6  159.16   14.45
   2   0  -6  136.15   11.86
  -2   0   6  129.96   10.61
  -2   0   6  117.20    7.42
   1   0  -6  483.48   21.77
   1   0  -6  468.76   29.99
  -1   0   6  496.85   28.45
  -1   0   6  472.22   21.57
   0   0  -6   38.82    5.67
   0   0  -6   41.25    3.91
   0   0   6   41.44    2.92
   0   0   6   39.25    4.86
   0   0   6   35.76    7.63
  -1   0  -6  286.45   15.97
  -1   0  -6  279.78   19.42
  -1   0  -6  274.40   14.85
   1   0   6  276.91   17.89
   1   0   6  271.75   13.79
  -2   0  -6  348.20   20.11
  -2   0  -6  364.82   17.07
   2   0   6  349.07   19.33
   2   0   6  352.40   21.26
   2   0   6  339.13   17.22
  -3   0  -6   27.58    3.25
   3   0   6   30.98    3.29
   3   0   6   28.41    3.81
   3   0   6   30.58    3.12
  -4   0  -6  114.81    8.80
   4   0   6  104.63    8.72
   4   0   6  115.26    8.23
   4   0   6  113.51    7.43
   5   0   6  262.29   17.28
   5   0   6  274.81   14.89
   5   0   6  283.68   18.15
   6   0   6   22.30    4.84
   6   0   6   22.50    4.44
   6   0   6   22.97    4.14
   7   0   6   80.29    8.79
   7   0   6   81.24    7.60
   7   0   6   80.79    8.56
   8   0   6  101.79   10.81
   8   0   6  100.00   10.68
   8   0   6   88.49    8.85
   7  -1  -6   31.44    5.50
  -7   1   6    4.67    7.02
   6  -1  -6   11.84    3.35
   6  -1  -6   22.29    6.89
  -6   1   6    0.18    4.16
   5  -1  -6  177.28   11.07
   5  -1  -6  205.29   17.45
   4  -1  -6   42.72    3.98
   4  -1  -6   35.54    6.95
  -4   1   6   20.79    6.77
   3  -1  -6   56.41    4.17
   3  -1  -6   50.48    6.95
  -3   1   6   48.69    7.46
   2  -1  -6  208.65   10.23
   2  -1  -6  208.09   15.32
  -2   1   6  203.84   14.98
   1  -1  -6  120.61    9.98
   1  -1  -6  122.22    6.41
   1  -1  -6  131.42    6.58
  -1   1   6  132.83    9.62
   0  -1  -6   64.00    4.47
   0  -1  -6   72.89    6.16
   0   1   6   68.48    3.73
   0   1   6   64.03    7.49
   0   1   6   73.71    6.21
  -1  -1  -6  518.86   26.94
  -1  -1  -6  526.45   21.87
   1   1   6  471.76   21.31
   1   1   6  413.72   29.07
   1   1   6  473.94   28.15
  -2  -1  -6   53.58    3.54
  -2  -1  -6   55.31    3.55
   2   1   6   59.63    4.17
   2   1   6   57.90    5.41
  -3  -1  -6  350.44   19.49
   3   1   6  351.03   19.15
   3   1   6  364.64   21.43
   3   1   6  365.74   16.95
  -4  -1  -6  219.14   14.28
   4   1   6  225.54   13.30
   4   1   6  224.58   14.80
   4   1   6  234.31   11.86
  -5  -1  -6   14.50    3.91
   5   1   6   17.26    2.93
   5   1   6   13.42    2.62
   5   1   6   16.62    3.70
   6   1   6  164.81   11.64
   6   1   6  163.27   12.50
   6   1   6  151.36    9.88
   7   1   6  133.71   11.67
   7   1   6  127.48    9.40
   7   1   6  132.36   10.92
   8   1   6    8.94    3.79
   8   1   6    7.60    3.06
   8   1   6    7.18    3.67
   6  -2  -6   73.90    7.50
   6  -2  -6   82.53   12.46
   5  -2  -6    8.21    4.56
   5  -2  -6   13.19    3.05
  -5   2   6    2.65    5.05
   4  -2  -6   17.36    5.28
   4  -2  -6   12.26    2.58
  -4   2   6    4.43    3.84
   3  -2  -6  246.57   18.22
   3  -2  -6  240.73   12.30
   2  -2  -6   66.98    4.24
   2  -2  -6   68.90    7.38
  -2   2   6   60.52    7.26
   1  -2  -6   77.98    7.29
   1  -2  -6   75.06    4.24
   1  -2  -6   83.10    4.42
  -1   2   6   82.05    7.02
   0  -2  -6  389.83   22.70
   0  -2  -6  409.37   23.94
   0  -2  -6  387.61   16.47
   0  -2  -6  373.43   16.95
   0   2   6  379.25   22.26
   0   2   6  378.90   24.12
  -1  -2  -6    4.94    2.29
  -1  -2  -6    3.31    1.14
   1   2   6    4.20    1.89
   1   2   6    5.62    1.92
  -2  -2  -6  198.04    8.76
   2   2   6  183.49   12.51
   2   2   6  199.11    9.36
  -3  -2  -6  415.14   18.36
   3   2   6  405.25   24.01
   3   2   6  414.87   18.66
   4   2   6   49.31    5.12
   4   2   6   56.51    4.04
   4   2   6   54.20    3.56
  -5  -2  -6   48.32    6.96
   5   2   6   77.19    5.20
   5   2   6   64.55    5.07
   5   2   6   66.25    6.34
   6   2   6  299.90   15.80
   6   2   6  304.58   18.48
   6   2   6  298.36   19.72
   7   2   6   19.81    4.07
   7   2   6   23.47    5.13
   7   2   6   20.21    3.71
   8   2   6  117.90    9.44
   8   2   6  130.59   12.11
   9   2   6   79.87   10.25
   9   2   6   73.53    8.01
   5  -3  -6   33.47    8.26
   4  -3  -6  126.56   12.84
   4  -3  -6  126.98    8.41
   3  -3  -6   25.73    5.61
   3  -3  -6   24.61    3.24
  -3   3   6   10.25    4.47
   2  -3  -6  124.68    7.14
   2  -3  -6  133.32   11.43
   1  -3  -6  248.12   16.75
   1  -3  -6  243.14   11.39
   1  -3  -6  253.15   11.36
  -1   3   6  224.80   15.84
   0  -3  -6   25.46    4.20
   0  -3  -6   17.62    3.40
   0   3   6   22.46    2.90
  -1  -3  -6   79.05    6.32
  -1  -3  -6   73.30    6.11
   1   3   6   76.98    6.53
   1   3   6   73.34    5.82
  -2  -3  -6  259.07   15.82
  -2  -3  -6  273.59   15.87
   2   3   6  252.58   16.13
   2   3   6  283.94   15.54
   3   3   6   32.44    2.35
   3   3   6   37.31    2.76
   3   3   6   30.13    3.67
   4   3   6  166.74   11.26
   4   3   6  160.58    8.43
   5   3   6  258.73   13.09
   5   3   6  263.38   14.93
   5   3   6  253.59   16.64
   6   3   6    8.53    3.05
   6   3   6    6.45    2.01
   6   3   6    8.81    2.24
   7   3   6   59.03    5.48
   7   3   6   52.38    6.72
   7   3   6   50.73    5.75
   8   3   6   99.98   10.40
   8   3   6   97.20    8.03
   9   3   6    6.19    4.36
   9   3   6    1.30    2.13
   4  -4  -6    7.42    4.37
   3  -4  -6   31.62    6.90
  -2   4   6   74.20    8.27
   1  -4  -6   52.25    6.35
   1  -4  -6   48.48    3.79
  -1   4   6   30.78    5.43
   0  -4  -6  167.65   12.60
   0  -4  -6  168.83   10.97
   0   4   6  171.24   11.08
  -1  -4  -6  348.51   22.06
  -1  -4  -6  352.33   19.92
   1   4   6  369.53   20.03
  -2  -4  -6    2.61    1.86
   2   4   6    4.82    1.66
   2   4   6    2.35    1.23
   2   4   6    0.61    1.64
   3   4   6  181.64   12.11
   3   4   6  198.59    8.83
   3   4   6  184.09    8.71
   3   4   6  194.72   11.36
   4   4   6  167.40    9.75
   4   4   6  164.17    8.34
   4   4   6  173.77    8.61
   4   4   6  167.89   11.93
   4   4   6  156.12   11.08
   5   4   6   14.00    2.66
   5   4   6   12.10    2.96
   5   4   6   13.20    2.13
   6   4   6  124.71    7.88
   6   4   6  135.62   10.40
   6   4   6  120.29    9.05
   7   4   6  129.54    8.64
   7   4   6  126.19   11.03
   8   4   6    2.08    2.71
   8   4   6   -2.07    1.24
   9   4   6   87.28   10.60
   9   4   6   80.41    8.08
   3  -5  -6  174.42   16.32
   2  -5  -6   23.56    5.70
   1  -5  -6   69.84    8.31
   0  -5  -6  160.20   13.05
  -1  -5  -6   27.92    5.39
   1   5   6   30.54    2.86
  -2  -5  -6   10.19    3.60
   2   5   6   13.34    1.94
  -3  -5  -6  257.08   17.34
   3   5   6  296.55   12.88
   3   5   6  253.65   16.03
   3   5   6  269.11   11.98
   3   5   6  277.01   16.48
   4   5   6   11.50    2.57
   4   5   6    8.22    1.46
   4   5   6    7.03    4.11
   5   5   6  151.27    8.08
   5   5   6  146.81   10.49
   5   5   6  131.40   12.32
   6   5   6  182.92   10.33
   6   5   6  183.97   13.15
   7   5   6   -1.29    1.62
   7   5   6    0.42    1.39
   8   5   6   96.07    9.92
   8   5   6   84.14    7.32
   9   5   6   54.37    6.59
   9   5   6   63.86    8.96
   3  -6  -6   18.83    6.62
   2  -6  -6   19.00    5.95
   1  -6  -6  114.19   12.00
   0  -6  -6   30.38    6.43
  -1  -6  -6   62.57    8.22
  -2  -6  -6  117.89   11.57
  -3  -6  -6    6.82    3.27
   4   6   6   17.43    7.30
   5   6   6  104.52    8.44
   5   6   6  117.32    6.68
   6   6   6    1.26    1.41
   6   6   6    2.04    1.91
   7   6   6   48.58    5.02
   7   6   6   47.90    6.22
   8   6   6  114.78   11.25
   8   6   6  120.40    8.89
   9   6   6    1.11    2.50
   9   6   6    3.08    3.35
   2  -7  -6   94.05   12.27
   1  -7  -6    5.23    4.20
   0  -7  -6   63.76   10.34
  -1  -7  -6   70.48    9.60
  -2  -7  -6    7.67    4.09
  -3  -7  -6   66.37   10.41
   7   7   6   88.03    8.64
   8   7   6    3.25    3.21
   9   7   6   30.72    7.20
   0  -8  -6   70.83   11.61
  -1  -8  -6    6.32    4.22
  -2  -8  -6   47.46    9.50
  -2  -9   7   17.66    6.19
  -6  -8   7   -2.06    6.79
   5   8  -7   18.60   13.52
  -5  -8   7   15.40    7.78
  -5  -8   7   17.97    6.18
   4   8  -7    0.26    8.71
  -4  -8   7   -0.63    4.41
  -4  -8   7    4.46    4.05
   3   8  -7    9.93   10.37
  -3  -8   7   19.72    5.96
   2   8  -7   35.22   17.85
  -2  -8   7   96.61   10.53
  -1  -8   7    5.95    3.66
  -1  -8   7    6.19    4.08
   0  -8   7   39.10    7.35
   0  -8   7   55.52    9.52
   1  -8   7   37.86    8.39
   1  -8   7   50.38    8.25
   6   7  -7   64.88   20.50
  -6  -7   7   35.71    7.62
  -6  -7   7   26.74    9.98
   5   7  -7   -2.33    5.71
  -5  -7   7   10.48    4.37
  -5  -7   7    2.83    5.89
   4   7  -7   24.68   13.45
  -4  -7   7   29.38    6.59
  -4  -7   7   35.10    9.12
   3   7  -7   38.66   16.68
  -3  -7   7   83.22    9.45
  -3  -7   7   95.14   10.91
   2   7  -7    4.33    9.73
  -2  -7   7    2.19    3.01
  -2  -7   7    0.21    3.19
  -1  -7   7   43.20    6.17
  -1  -7   7   64.84    9.22
  -1  -7   7   39.22    7.57
   0  -7   7   76.70    9.58
   0  -7   7   71.44    8.79
   1  -7   7    0.62    2.71
   1  -7   7    2.48    2.92
   2  -7   7   44.94    8.43
   2  -7   7   49.92    8.44
   3  -7   7   60.96   11.45
   3  -7   7   42.13    7.66
  -7  -6   7   14.45    9.42
   6   6  -7    1.29    7.77
  -6  -6   7    6.46    3.75
  -6  -6   7    1.73    6.26
   5   6  -7   27.78   12.91
  -5  -6   7   25.33    5.71
  -5  -6   7   23.93    9.07
   4   6  -7   80.91   21.53
  -4  -6   7   74.92    8.26
  -4  -6   7   89.24   12.36
   3   6  -7   14.69   10.92
  -3  -6   7   24.31    5.31
  -3  -6   7   25.95    6.89
   2   6  -7   19.38   12.47
  -2  -6   7   45.32    7.80
  -2  -6   7   42.89    6.87
  -1  -6   7  169.87   13.24
  -1  -6   7  181.99   14.24
   0  -6   7   14.14    4.45
   0  -6   7    9.62    3.81
   0  -6   7   13.21    3.92
   1  -6   7   45.39    7.92
   1  -6   7   43.05    6.06
   1  -6   7   48.57    7.72
   2  -6   7   86.31    8.82
   2  -6   7   85.84   10.21
   2  -6   7   78.45    8.74
   3  -6   7    1.40    2.88
   3  -6   7    4.44    3.46
   4  -6   7   35.39    7.47
   4  -6   7   40.06    8.58
   7   5  -7   13.37    4.60
   7   5  -7    5.82    9.50
  -7  -5   7    2.69    6.92
   6   5  -7   26.34   12.38
  -6  -5   7   16.13    8.70
  -6  -5   7   16.13    4.79
   5   5  -7  146.82   27.04
  -5  -5   7  100.33   17.14
  -5  -5   7  111.34    9.91
   4   5  -7   68.83   19.20
  -4  -5   7   29.54    5.17
  -4  -5   7   45.83   10.13
   3   5  -7   46.65   15.69
  -3  -5   7   62.08    9.19
  -3  -5   7   56.04    6.26
   2   5  -7   95.38   21.86
  -2  -5   7  119.98    9.57
  -2  -5   7  118.63   11.67
   1   5  -7   10.09    8.77
  -1  -5   7    9.76    4.06
  -1  -5   7   13.37    3.82
   0  -5   7   54.14    6.72
   0  -5   7   45.74    7.02
   0  -5   7   42.68    6.26
   1  -5   7   60.32    7.16
   1  -5   7   69.82    7.83
   1  -5   7   63.35    7.77
   2  -5   7   14.89    4.34
   2  -5   7   19.76    4.85
   2  -5   7   16.89    4.51
   3  -5   7   45.32    7.19
   3  -5   7   38.72    7.10
   3  -5   7   44.26    6.39
   4  -5   7   93.56   10.60
   4  -5   7   86.99    9.22
   4  -5   7   80.39    9.56
   5  -5   7    0.10    2.96
   5  -5   7    0.80    3.11
   7   4  -7   31.52   13.72
   7   4  -7   22.86    5.63
  -7  -4   7    2.17    6.91
   6   4  -7  113.33    9.82
   6   4  -7  137.78   24.54
  -6  -4   7   64.89   15.47
   5   4  -7   10.39    8.39
  -5  -4   7   10.68    3.72
  -5  -4   7   10.66    6.37
   4   4  -7   95.99   20.03
  -4  -4   7   77.90    7.13
  -4  -4   7   83.38   12.07
   3   4  -7  213.39   27.47
  -3  -4   7  185.90   16.68
  -3  -4   7  176.28   11.48
   2   4  -7    4.61    6.49
  -2  -4   7    7.33    2.50
  -2  -4   7   10.70    4.10
   1   4  -7   76.17   18.63
  -1  -4   7   97.93    7.93
  -1  -4   7   93.03    9.84
   0  -4   7  216.02   16.10
   0  -4   7  249.19   17.69
   0  -4   7  243.06   15.10
   1  -4   7    0.79    1.43
   1  -4   7   -0.07    1.69
   1  -4   7   -0.02    1.83
   2  -4   7  163.49   13.31
   2  -4   7  174.35   13.33
   2  -4   7  155.90   11.91
   3  -4   7  113.61   10.98
   3  -4   7  126.74   10.52
   3  -4   7  114.65   10.28
   4  -4   7    4.13    2.88
   4  -4   7    2.02    2.25
   4  -4   7    1.68    2.70
   5  -4   7   68.54    8.22
   5  -4   7   82.24    9.28
   5  -4   7   69.98    9.34
   6  -4   7   66.05    9.93
   6  -4   7   72.11    9.07
   6  -4   7   72.20   10.68
   7   3  -7   57.66   15.10
   7   3  -7   65.51    7.87
   6   3  -7   13.57    8.66
   6   3  -7   17.22    4.45
  -6  -3   7    6.30    6.35
   5   3  -7   52.72   13.93
  -5  -3   7   46.86   11.11
   4   3  -7  211.62   23.83
  -4  -3   7  150.61   16.36
  -4  -3   7  150.46   10.63
   3   3  -7   32.30   11.46
  -3  -3   7   23.82    3.82
  -3  -3   7   36.42    7.86
   2   3  -7  225.89   25.77
  -2  -3   7  193.82   11.38
  -2  -3   7  197.56   16.17
   1   3  -7  218.85   26.58
  -1  -3   7  282.56   14.27
  -1  -3   7  229.40   18.16
   0   3  -7    0.83    5.41
   0  -3   7    0.42    1.48
   0  -3   7   -0.70    1.29
   1  -3   7  171.06   11.59
   1  -3   7  167.49   12.20
   1  -3   7  167.82   13.53
   2  -3   7  276.78   16.89
   2  -3   7  297.57   19.50
   2  -3   7  285.81   18.95
   3  -3   7    7.45    2.91
   3  -3   7    5.76    2.70
   3  -3   7   12.49    3.53
   4  -3   7  142.51   11.17
   4  -3   7  152.85   12.19
   4  -3   7  153.26   12.73
   5  -3   7  159.13   12.97
   5  -3   7  158.89   12.30
   5  -3   7  142.72   13.20
   6  -3   7    2.11    2.80
   6  -3   7    2.45    2.97
   6  -3   7    1.41    2.68
   7  -3   7   61.77    8.70
   7  -3   7   60.09   10.20
   7   2  -7   17.96    8.80
   7   2  -7   27.31    5.83
  -7  -2   7    4.19    6.54
   6   2  -7   42.04    6.48
   6   2  -7   44.17   11.26
   5   2  -7  141.90   17.96
   5   2  -7  157.29   10.63
  -5  -2   7  107.99   15.44
   4   2  -7    0.05    3.12
  -4  -2   7   -2.19    3.03
  -4  -2   7    1.77    1.76
   3   2  -7  207.42   21.03
  -3  -2   7  181.70   15.46
  -3  -2   7  147.46    9.92
   2   2  -7  144.32   17.30
  -2  -2   7  102.28    6.90
  -2  -2   7  103.98   10.31
   1   2  -7   44.15   11.52
  -1  -2   7   48.26    4.08
  -1  -2   7   39.01    6.72
   0   2  -7  102.49   18.52
   0  -2   7  161.13    9.62
   0  -2   7  158.56   12.68
   1  -2   7  252.75   14.70
   1  -2   7  259.53   16.00
   1  -2   7  251.56   17.91
   2  -2   7   11.55    3.37
   2  -2   7   13.30    2.88
   2  -2   7   11.38    3.12
   3  -2   7  242.80   16.18
   3  -2   7  241.03   16.51
   3  -2   7  240.51   14.52
   4  -2   7  167.72   12.99
   4  -2   7  174.63   13.17
   4  -2   7  180.38   11.98
   5  -2   7   -0.18    1.63
   5  -2   7    1.44    1.96
   5  -2   7   -1.03    1.32
   6  -2   7   78.88    8.13
   6  -2   7   85.08    9.08
   6  -2   7   86.52    9.39
   7  -2   7   73.26    8.94
   7  -2   7   63.09    8.80
   7  -2   7   70.38    8.43
   8  -2   7   -0.99    2.90
   7   1  -7   36.78    6.20
  -7  -1   7    9.21    7.47
   6   1  -7   91.87   13.34
   6   1  -7   92.94    8.51
   5   1  -7   20.22    3.98
   5   1  -7   13.62    5.93
  -5  -1   7    8.00    5.80
   4   1  -7   52.46   10.25
   4   1  -7   77.09    6.28
  -4  -1   7   66.58   11.76
   3   1  -7  297.80   22.47
  -3  -1   7  237.32   18.86
  -3  -1   7  218.75   13.22
   2   1  -7    6.50    4.24
  -2  -1   7    2.72    1.27
  -2  -1   7    3.20    2.27
   1   1  -7  242.24   19.86
  -1  -1   7  211.96   10.70
  -1  -1   7  182.82   14.66
   0   1  -7  320.83   26.10
   0  -1   7  319.35   15.87
   0  -1   7  334.77   21.49
  -1   1  -7    4.25    1.68
  -1   1  -7    3.49    3.72
   1  -1   7    5.53    2.43
   1  -1   7    4.22    1.73
  -2   1  -7   97.16    8.06
   2  -1   7   92.77    7.21
   2  -1   7   89.09    8.26
   2  -1   7  100.01    7.06
   3  -1   7  105.12    7.50
   3  -1   7   92.11    7.44
   3  -1   7   95.28    8.38
   4  -1   7    0.81    1.30
   4  -1   7    0.75    1.46
   4  -1   7    2.19    1.74
   5  -1   7   87.77    8.38
   5  -1   7   99.20    9.01
   5  -1   7  100.12    7.98
   6  -1   7   96.81    8.34
   6  -1   7   89.02    8.96
   6  -1   7   89.12    9.15
   7  -1   7   -0.10    2.02
   7  -1   7   -0.20    1.99
   7  -1   7    1.27    2.55
   8  -1   7   79.88    9.73
   8  -1   7   60.25    8.97
   8  -1   7   67.36    9.23
   7   0  -7   68.08    7.30
  -7   0   7   14.12    9.43
   6   0  -7   26.14    4.69
   6   0  -7   18.47    6.54
  -6   0   7    5.97    6.24
   5   0  -7  106.03    7.58
   5   0  -7   98.04   11.97
  -5   0   7   60.61   13.00
   4   0  -7  180.10   16.42
   4   0  -7  207.92   10.97
  -4   0   7  144.44   16.26
   3   0  -7    2.46    1.41
   3   0  -7    2.26    2.93
  -3   0   7    1.84    3.01
   2   0  -7  155.41   13.48
  -2   0   7  131.28    8.32
  -2   0   7  159.66   12.38
   1   0  -7  228.26   16.89
  -1   0   7  212.17   15.08
  -1   0   7  215.96   10.82
   0   0  -7   39.19    4.34
   0   0  -7   38.74    5.87
   0   0   7   46.15    5.40
   0   0   7   46.36    3.21
   0   0   7   28.60    7.33
  -1   0  -7  171.87   11.09
  -1   0  -7  185.38   14.46
  -1   0  -7  188.36   11.20
   1   0   7  161.94   12.87
   1   0   7  185.63    9.79
  -2   0  -7  301.82   17.93
   2   0   7  293.74   15.60
   2   0   7  311.93   19.41
  -3   0  -7    5.63    1.77
   3   0   7    4.53    2.12
   3   0   7    4.30    1.68
   3   0   7    4.06    1.26
  -4   0  -7  278.42   17.13
   4   0   7  245.39   17.57
   4   0   7  273.47   16.58
   4   0   7  299.55   14.98
   5   0   7  113.09    8.06
   5   0   7  112.69    9.57
   5   0   7  108.45    8.63
   6   0   7   16.17    4.25
   6   0   7   15.05    3.61
   6   0   7   14.21    3.37
   7   0   7   82.76    9.07
   7   0   7   75.97    7.57
   7   0   7   76.16    8.26
   8   0   7   61.11    7.36
   8   0   7   56.72    8.30
   6  -1  -7   46.61    6.04
   6  -1  -7   36.93    8.71
   5  -1  -7  133.28    8.96
   5  -1  -7  129.67   13.80
   4  -1  -7   12.72    4.67
   4  -1  -7   10.94    2.40
  -4   1   7    6.76    4.47
   3  -1  -7  111.92    6.73
   3  -1  -7  112.32   11.08
  -3   1   7  101.12   11.39
   2  -1  -7  240.67   11.81
   2  -1  -7  229.22   17.32
  -2   1   7  254.18   17.47
   1  -1  -7   66.05    7.02
   1  -1  -7   70.08    4.36
  -1   1   7   64.51    6.48
   0  -1  -7  421.85   19.37
   0  -1  -7  413.26   24.50
   0   1   7  420.05   24.42
   0   1   7  370.53   26.92
   0   1   7  401.98   18.00
  -1  -1  -7  515.17   28.69
  -1  -1  -7  530.05   23.45
   1   1   7  509.92   22.46
   1   1   7  477.69   29.84
  -2  -1  -7    5.26    1.15
  -2  -1  -7    4.37    1.19
  -2  -1  -7    2.71    1.06
   2   1   7    6.61    2.33
   2   1   7    3.94    1.41
  -3  -1  -7  270.94   14.47
   3   1   7  263.42   17.08
   3   1   7  262.12   13.47
  -4  -1  -7  144.21    9.87
   4   1   7  155.14    8.91
   4   1   7  154.27   11.26
   4   1   7  150.77    9.18
  -5  -1  -7    3.83    2.47
   5   1   7    5.89    2.00
   5   1   7    5.62    1.66
   5   1   7    4.62    2.27
   6   1   7  250.69   14.35
   6   1   7  251.99   16.29
   6   1   7  261.50   17.81
   7   1   7  186.94   14.67
   7   1   7  176.09   11.81
   7   1   7  181.56   13.42
   8   1   7   -0.24    2.13
   8   1   7    0.34    2.55
  -6   2   7    3.31    6.89
   5  -2  -7   11.54    5.42
  -5   2   7    4.46    5.29
   4  -2  -7   69.17    5.49
   4  -2  -7   62.75    8.80
   3  -2  -7  220.64   11.01
   3  -2  -7  241.11   17.22
  -3   2   7  159.74   16.51
   2  -2  -7    2.69    1.11
   2  -2  -7    1.16    2.08
  -2   2   7    1.38    2.33
   1  -2  -7   89.65    4.81
   1  -2  -7   91.92    5.02
   1  -2  -7   90.71    8.24
  -1   2   7   90.64    7.91
   0  -2  -7  225.77   10.90
   0  -2  -7  224.80   10.03
   0  -2  -7  229.40   14.82
   0   2   7  236.21   14.68
  -1  -2  -7   20.62    1.30
  -1  -2  -7   18.30    2.51
   1   2   7   20.92    1.33
   1   2   7   18.45    3.49
   1   2   7   24.09    4.42
  -2  -2  -7  205.63    8.94
  -2  -2  -7  200.79   10.89
   2   2   7  186.65   13.10
   2   2   7  185.68    9.50
  -3  -2  -7  334.82   15.27
   3   2   7  351.80   15.96
   3   2   7  324.69   20.54
   4   2   7    3.93    1.91
   4   2   7    3.72    1.32
   5   2   7  163.97    9.94
   5   2   7  163.43   12.17
   5   2   7  171.49    9.57
   6   2   7  132.95   10.97
   6   2   7  133.96    9.28
   6   2   7  138.60    8.83
   7   2   7    0.25    1.63
   7   2   7    1.91    2.20
   8   2   7  108.26   10.87
   8   2   7  101.92    8.64
   9   2   7   65.49    7.68
   9   2   7   66.93    9.58
   5  -3  -7   63.12   11.32
  -4   3   7   27.29    8.02
   3  -3  -7    1.73    2.57
  -3   3   7    0.46    3.47
   2  -3  -7   66.34    4.47
   2  -3  -7   64.43    7.75
  -2   3   7   57.61    7.88
   1  -3  -7  242.82   11.32
   1  -3  -7  244.57   16.99
  -1   3   7  243.99   16.44
   0  -3  -7   21.31    3.85
   0   3   7   21.54    3.14
  -1  -3  -7  309.62   18.60
   1   3   7  309.83   19.77
   1   3   7  311.92   18.49
  -2  -3  -7  231.12   13.89
   2   3   7  244.61   14.22
   2   3   7  204.27   14.38
   3   3   7    8.54    1.40
   3   3   7    8.95    2.44
   4   3   7  129.60    9.61
   4   3   7  122.11    6.86
   5   3   7  149.61    8.27
   5   3   7  133.37   10.59
   6   3   7    0.09    1.00
   6   3   7   -0.11    1.13
   6   3   7   -0.49    1.29
   7   3   7  112.97    8.20
   7   3   7  120.37   10.75
   8   3   7   94.99   10.24
   8   3   7   96.91    8.08
   9   3   7    1.76    2.89
   9   3   7    0.91    2.48
   4  -4  -7   20.93    6.13
   3  -4  -7   88.87   10.42
   2  -4  -7  161.60   14.04
   1  -4  -7   -1.08    1.76
  -1   4   7   -0.37    1.98
   0  -4  -7  157.81   12.47
   0   4   7  173.47   11.37
  -1  -4  -7  200.81   12.37
  -1  -4  -7  191.16   13.63
   1   4   7  195.38   12.09
  -2  -4  -7    1.00    1.26
  -2  -4  -7    1.22    1.49
   2   4   7    0.40    1.06
   2   4   7    0.00    1.16
  -3  -4  -7  199.14   12.27
   3   4   7  219.37   12.49
   3   4   7  225.41    9.49
   3   4   7  204.37   13.63
   3   4   7  207.31    9.57
   4   4   7  186.63   12.67
   4   4   7  181.61    9.17
   4   4   7  191.50    9.37
   5   4   7    5.72    2.30
   5   4   7    3.60    1.36
   6   4   7  189.83   10.76
   6   4   7  197.47   14.05
   7   4   7   93.39    9.24
   7   4   7   96.80    7.19
   8   4   7   10.91    4.08
   8   4   7   11.77    3.26
   9   4   7   84.16   10.55
   9   4   7   94.71    8.56
   3  -5  -7   58.80    9.96
   2  -5  -7    1.54    2.67
   1  -5  -7   64.95    8.26
   0  -5  -7  216.19   16.23
  -1  -5  -7    2.10    2.09
  -2  -5  -7  222.26   16.13
   2   5   7  210.80   12.78
  -3  -5  -7  213.91   14.53
   3   5   7  217.64   13.69
   4   5   7    3.19    3.31
   4   5   7    8.47    1.39
   4   5   7   10.02    2.71
   5   5   7  125.17    7.09
   5   5   7  126.36    9.68
   6   5   7  132.61   10.85
   6   5   7  145.38    8.42
   7   5   7    0.16    1.97
   7   5   7    0.42    1.48
   8   5   7  133.73    9.56
   8   5   7  129.59   12.18
   9   5   7   68.28    9.41
   9   5   7   74.60    7.61
   2  -6  -7   53.12    9.56
   1  -6  -7  113.11   12.05
   0  -6  -7   -0.12    2.14
  -1  -6  -7  103.75   10.64
  -2  -6  -7  136.69   12.80
  -3  -6  -7    7.60    3.44
   4   6   7   61.18    5.63
   5   6   7  163.46   11.63
   6   6   7    1.73    2.00
   6   6   7    0.37    1.53
   7   6   7  104.54    9.80
   7   6   7  111.36    7.71
   8   6   7   63.29    6.32
   8   6   7   66.55    8.36
   9   6   7    2.66    3.39
   9   6   7    4.12    3.05
   1  -7  -7    2.40    3.50
   0  -7  -7   31.99    7.19
  -1  -7  -7   81.14   10.11
  -2  -7  -7    5.99    4.05
   8   7   7    1.41    2.90
   9   7   7   56.83    8.63
   0  -8  -7   75.26   10.92
  -5  -8   8   24.73    9.96
   4   8  -8    2.07    9.27
  -4  -8   8    0.39    4.72
  -4  -8   8   -0.41    3.72
   3   8  -8   11.15   12.66
  -3  -8   8   44.03    8.19
   2   8  -8    4.33   11.74
  -2  -8   8   51.00    8.97
  -1  -8   8    0.72    3.02
   0  -8   8   69.11    9.81
   0  -8   8   70.45   10.10
  -6  -7   8   22.61   10.46
   5   7  -8    4.21    9.59
  -5  -7   8   -0.21    5.86
  -5  -7   8    4.60    3.71
   4   7  -8   19.70   13.54
  -4  -7   8   25.47    8.08
  -4  -7   8   41.18    7.86
   3   7  -8   54.83   19.12
  -3  -7   8   81.27   11.10
  -3  -7   8   75.12    9.22
   2   7  -8   -0.61   10.73
  -2  -7   8    3.68    3.31
  -2  -7   8    1.68    3.13
  -1  -7   8   73.91    8.89
  -1  -7   8   98.27    9.87
   0  -7   8  142.79   12.13
   0  -7   8  122.40   11.30
   0  -7   8  126.11   13.00
   1  -7   8   -1.27    2.11
   1  -7   8    0.03    2.87
   2  -7   8   87.29    9.49
   2  -7   8   72.00   10.07
   6   6  -8    4.25    8.46
  -6  -6   8    0.52    6.93
  -6  -6   8    8.34    4.22
   5   6  -8   28.78   14.65
  -5  -6   8   23.28    9.84
  -5  -6   8   18.19    4.96
   4   6  -8   94.32   24.76
  -4  -6   8   67.45    7.72
  -4  -6   8   67.00   13.47
   3   6  -8   -0.49    6.50
  -3  -6   8    2.33    3.75
  -3  -6   8    5.90    3.02
   2   6  -8   63.01   19.90
  -2  -6   8  102.98    9.59
  -2  -6   8  102.27   11.24
  -1  -6   8  121.75   10.85
  -1  -6   8  113.67   11.34
   0  -6   8    0.20    2.02
   0  -6   8    0.30    2.42
   0  -6   8    2.47    2.93
   1  -6   8   36.59    6.56
   1  -6   8   35.68    6.93
   1  -6   8   46.76    6.56
   2  -6   8   69.21    8.17
   2  -6   8   62.56    8.75
   2  -6   8   70.84    8.17
   3  -6   8    0.20    2.82
   3  -6   8    1.24    2.90
   4  -6   8   58.63    9.77
   4  -6   8   60.12   10.40
   6   5  -8   48.88   17.59
  -6  -5   8   18.87    9.48
  -6  -5   8   28.93    6.36
   5   5  -8   69.40   19.50
  -5  -5   8   61.00    7.47
  -5  -5   8   49.46   13.50
   4   5  -8    3.27    6.95
  -4  -5   8    1.50    1.93
  -4  -5   8    5.97    4.93
   3   5  -8   64.75   19.82
  -3  -5   8   59.65   11.10
  -3  -5   8   57.06    6.29
   2   5  -8   53.24   17.36
  -2  -5   8   91.92    8.20
  -2  -5   8   93.43   10.83
   1   5  -8   -2.13    6.25
  -1  -5   8    3.66    2.60
  -1  -5   8    1.14    2.79
   0  -5   8  118.02   11.17
   0  -5   8  117.23   10.76
   0  -5   8  112.03    9.99
   1  -5   8  105.39    9.89
   1  -5   8   96.51   10.17
   1  -5   8  122.77   10.95
   2  -5   8    1.51    2.52
   2  -5   8   -0.21    2.45
   2  -5   8    0.15    1.77
   3  -5   8   69.46    8.38
   3  -5   8   74.17    9.18
   3  -5   8   78.49    8.75
   4  -5   8   41.94    7.51
   4  -5   8   40.14    7.47
   4  -5   8   49.39    8.58
   5  -5   8    0.41    2.77
   5  -5   8    1.27    3.76
   5  -5   8    2.52    3.46
   7   4  -8   54.53    9.26
   6   4  -8   67.38    8.95
   6   4  -8  101.13   22.17
   5   4  -8    5.33    7.43
  -5  -4   8    4.90    6.31
  -5  -4   8    4.98    3.16
   4   4  -8   72.17   18.51
  -4  -4   8   49.91    5.91
  -4  -4   8   44.91   10.78
   3   4  -8  254.44   30.05
  -3  -4   8  179.77   17.79
  -3  -4   8  192.47   12.24
   2   4  -8    0.75    5.89
  -2  -4   8    1.50    3.09
  -2  -4   8    0.25    1.56
   1   4  -8   96.33   22.48
  -1  -4   8  156.26   13.89
  -1  -4   8  158.25   10.60
   0  -4   8  151.98   11.48
   0  -4   8  169.72   14.02
   1  -4   8    0.13    1.49
   1  -4   8    0.77    1.82
   1  -4   8    0.43    1.77
   2  -4   8   68.33    7.70
   2  -4   8   69.86    7.43
   2  -4   8   68.83    8.07
   3  -4   8   81.68    8.32
   3  -4   8   82.00    8.69
   3  -4   8   72.92    8.51
   4  -4   8   -0.67    1.95
   4  -4   8    2.31    2.29
   4  -4   8    1.14    2.88
   5  -4   8   88.31    9.62
   5  -4   8   88.99    9.83
   5  -4   8   79.68   10.00
   6  -4   8   52.33    8.82
   6  -4   8   37.07    8.36
   7   3  -8  101.47   10.43
   6   3  -8    9.46    3.85
   6   3  -8   10.28    7.52
  -6  -3   8    7.44    6.65
   5   3  -8  108.32   19.50
  -5  -3   8   83.19    8.11
  -5  -3   8   73.65   14.32
   4   3  -8  217.46   24.69
  -4  -3   8  150.81   17.01
  -4  -3   8  149.76   10.81
   3   3  -8    1.71    5.39
  -3  -3   8    3.47    1.78
  -3  -3   8    5.83    4.33
   2   3  -8  183.84   23.40
  -2  -3   8  130.41   13.45
  -2  -3   8  150.25    9.42
   1   3  -8  180.65   24.40
  -1  -3   8  183.50   15.78
  -1  -3   8  205.29   11.73
   0   3  -8    2.69    5.97
   0  -3   8    1.09    1.67
   0  -3   8   -0.48    1.59
   1  -3   8  152.89   11.06
   1  -3   8  149.72   13.09
   1  -3   8  159.80   11.62
   2  -3   8  290.99   17.40
   2  -3   8  286.01   19.04
   2  -3   8  293.97   20.14
   3  -3   8   -0.79    1.50
   3  -3   8   -0.05    1.65
   3  -3   8    0.46    1.62
   4  -3   8  146.11   11.63
   4  -3   8  144.22   12.35
   4  -3   8  150.63   12.40
   5  -3   8   80.61    8.72
   5  -3   8   74.32    8.24
   5  -3   8   72.43    8.71
   6  -3   8    5.54    3.80
   6  -3   8    8.15    3.80
   6  -3   8    8.95    4.20
   7  -3   8   59.47   10.31
   7  -3   8   58.64    9.99
   7   2  -8    5.36    4.18
   6   2  -8   35.47   10.62
   6   2  -8   43.20    6.63
   5   2  -8  107.28    8.76
   5   2  -8   93.90   16.42
  -5  -2   8   68.72   14.24
   4   2  -8   21.23    8.36
  -4  -2   8   21.59    7.58
  -4  -2   8   20.24    4.15
   3   2  -8  146.36   17.41
  -3  -2   8  100.65   11.52
  -3  -2   8   88.73    7.15
   2   2  -8  303.27   26.70
  -2  -2   8  237.02   13.07
  -2  -2   8  228.33   18.54
   1   2  -8    5.43    5.39
  -1  -2   8   12.24    3.90
  -1  -2   8    8.83    2.05
   0   2  -8  216.90   25.37
   0  -2   8  263.03   14.30
   0  -2   8  282.73   19.28
   1  -2   8  162.94   10.64
   1  -2   8  153.64   13.12
   2  -2   8   -0.94    1.29
   2  -2   8    0.24    1.36
   2  -2   8   -0.05    1.03
   3  -2   8  161.04   11.70
   3  -2   8  157.40   11.21
   3  -2   8  153.32   12.34
   4  -2   8  156.19   12.25
   4  -2   8  159.55   11.43
   4  -2   8  163.31   12.84
   5  -2   8    0.18    1.98
   5  -2   8    0.83    1.80
   5  -2   8   -0.50    1.40
   6  -2   8   99.34   10.27
   6  -2   8  113.39   10.04
   6  -2   8  103.89   10.56
   7  -2   8   55.98    8.23
   7  -2   8   66.62    8.03
   7  -2   8   55.34    8.44
   7   1  -8   35.78    6.74
   6   1  -8   92.67   15.47
   6   1  -8   79.62    8.04
   5   1  -8    5.84    2.73
   5   1  -8   -0.90    3.44
  -5  -1   8    1.24    4.33
   4   1  -8   93.27    7.32
   4   1  -8   81.57   12.07
  -4  -1   8   75.88   13.48
   3   1  -8   87.12   11.96
  -3  -1   8   76.63    6.41
  -3  -1   8   85.92   10.47
   2   1  -8   34.58    8.41
  -2  -1   8   26.30    5.92
  -2  -1   8   29.41    3.31
   1   1  -8  131.42   14.53
  -1  -1   8  120.86   10.78
  -1  -1   8  117.48    7.12
   0   1  -8   56.78   10.71
   0  -1   8   60.30    4.63
   0  -1   8   62.75    7.12
  -1   1  -8    0.07    3.50
   1  -1   8    0.11    1.13
   1  -1   8   -0.17    1.35
  -2   1  -8  225.26   14.96
   2  -1   8  191.74   15.07
   2  -1   8  215.18   12.88
   2  -1   8  224.45   13.44
   3  -1   8  266.77   17.51
   3  -1   8  248.07   15.58
   3  -1   8  238.54   14.51
   4  -1   8   12.78    3.28
   4  -1   8   16.37    3.31
   4  -1   8   13.97    3.64
   5  -1   8  165.51   13.28
   5  -1   8  168.90   12.53
   5  -1   8  167.80   11.47
   6  -1   8   39.93    6.08
   6  -1   8   48.34    6.26
   6  -1   8   45.10    6.66
   7  -1   8    7.39    3.50
   7  -1   8    5.78    3.24
   7  -1   8    4.53    3.34
   8  -1   8   72.27    9.62
   7   0  -8   73.86    8.37
   6   0  -8   -1.57    3.57
   6   0  -8    1.06    2.40
  -6   0   8    1.80    5.99
   5   0  -8   96.64   12.73
   5   0  -8   99.04    7.69
   4   0  -8   76.26   10.32
   4   0  -8   79.07    6.22
  -4   0   8   69.72   12.65
   3   0  -8   -0.49    1.20
   3   0  -8    1.08    2.52
  -3   0   8    0.69    2.74
   2   0  -8  187.41   15.55
  -2   0   8  160.59    9.78
  -2   0   8  185.38   14.38
   1   0  -8  229.29   17.42
  -1   0   8  215.55   15.61
  -1   0   8  214.41   11.02
   0   0  -8   14.51    4.37
   0   0   8   17.56    2.08
   0   0   8   20.12    4.26
  -1   0  -8  340.31   18.64
  -1   0  -8  334.80   22.22
   1   0   8  274.14   20.37
   1   0   8  308.63   15.44
  -2   0  -8  121.25   12.44
  -2   0  -8  144.17    9.61
   2   0   8  131.10    8.62
   2   0   8  136.31   10.94
  -3   0  -8   15.97    2.91
   3   0   8   11.05    1.89
   3   0   8    9.81    2.94
   3   0   8   11.00    2.75
  -4   0  -8  182.10   11.99
   4   0   8  156.86   12.78
   4   0   8  187.38   11.06
   4   0   8  177.29   11.32
   5   0   8  114.88    8.95
   5   0   8  118.78   10.33
   5   0   8  121.44    8.69
   6   0   8    4.15    2.80
   6   0   8    3.85    2.22
   6   0   8    4.97    2.42
   7   0   8   70.42    7.37
   7   0   8   71.95    8.57
   7   0   8   69.03    7.93
   8   0   8   57.77    8.37
   8   0   8   42.33    6.98
  -6   1   8    8.63    7.23
   5  -1  -8  125.23   14.26
   5  -1  -8  141.21    9.34
   4  -1  -8   13.50    2.68
   4  -1  -8    8.55    4.31
  -4   1   8    5.13    4.71
   3  -1  -8  165.18   14.50
   3  -1  -8  171.23    9.25
  -3   1   8  147.65   14.80
   2  -1  -8  159.02    8.24
   2  -1  -8  153.23   12.90
  -2   1   8  132.92   12.29
   1  -1  -8    1.18    1.89
   1  -1  -8    0.19    1.01
  -1   1   8    0.73    1.48
  -1   1   8    0.26    0.93
   0  -1  -8  254.51   13.10
   0  -1  -8  234.07   16.27
   0   1   8  253.86   16.36
   0   1   8  236.64   11.40
  -1  -1  -8  220.22   13.79
  -1  -1  -8  197.49   11.23
   1   1   8  222.08   15.06
   1   1   8  208.19   10.12
  -2  -1  -8   19.26    2.32
  -2  -1  -8   21.77    2.64
  -2  -1  -8   20.79    2.39
   2   1   8   23.44    2.85
   2   1   8   15.67    3.65
   3   1   8  255.20   13.11
   3   1   8  230.20   16.19
   4   1   8  129.20    8.33
   4   1   8  136.77   10.68
   4   1   8  131.10    7.85
   5   1   8    7.15    2.23
   5   1   8    7.78    1.84
   5   1   8    6.57    2.74
   6   1   8  150.93   12.34
   6   1   8  137.89    9.82
   6   1   8  155.41   10.66
   7   1   8   42.12    7.40
   7   1   8   35.79    5.46
   8   1   8    7.88    3.28
   8   1   8    6.87    3.87
   5  -2  -8    0.49    3.66
  -5   2   8    0.62    4.50
   4  -2  -8   87.42   10.55
   3  -2  -8   99.38    6.16
   3  -2  -8   91.47   10.10
  -3   2   8   86.54   11.14
   2  -2  -8   11.47    1.83
   2  -2  -8    7.72    3.16
  -2   2   8    7.13    3.63
   1  -2  -8   78.50    4.40
   1  -2  -8   82.07    4.95
   1  -2  -8   82.04    8.01
  -1   2   8   77.78    7.59
   0  -2  -8  275.29   12.61
   0  -2  -8  260.40   16.63
   0  -2  -8  245.24   11.30
   0   2   8  246.18   16.35
  -1  -2  -8    1.64    0.61
  -1  -2  -8    1.30    1.16
   1   2   8    1.78    0.59
   1   2   8    1.78    1.57
   1   2   8    0.88    2.03
  -2  -2  -8  272.46   14.48
  -2  -2  -8  272.90   11.79
   2   2   8  247.17   17.03
   2   2   8  246.54   12.15
  -3  -2  -8  206.75    9.70
   3   2   8  192.81   13.84
   3   2   8  199.60   10.56
   4   2   8   11.31    2.21
   4   2   8   10.99    3.11
   5   2   8  141.39   11.57
   5   2   8  166.55    9.44
   6   2   8   66.90    7.41
   6   2   8   69.49    5.86
   7   2   8    0.41    2.09
   7   2   8   -0.46    1.59
   8   2   8  120.67   11.80
   8   2   8  111.45    9.30
   9   2   8   34.32    6.11
   4  -3  -8   95.03   11.38
   3  -3  -8   -0.90    2.14
  -3   3   8    0.27    3.12
   2  -3  -8  137.85   11.90
  -2   3   8  102.66   11.19
   1  -3  -8  115.61   10.26
  -1   3   8  116.11    9.92
   0  -3  -8    5.52    2.19
   0   3   8    5.04    2.15
  -1  -3  -8  156.05   10.67
   1   3   8  148.79   12.45
   1   3   8  160.68   10.81
  -2  -3  -8   72.33    5.75
   2   3   8   63.34    6.38
   2   3   8   77.52    6.95
   3   3   8    0.94    0.90
   3   3   8    0.67    1.28
   4   3   8  163.27    8.56
   4   3   8  150.06   11.49
   5   3   8  132.03   10.59
   5   3   8  135.55    7.98
   6   3   8   17.95    4.29
   6   3   8   17.62    3.11
   7   3   8  127.35   11.44
   7   3   8  129.06    8.93
   8   3   8   55.12    6.10
   8   3   8   58.26    8.02
   9   3   8    8.13    4.47
   9   3   8    7.38    3.32
   4  -4  -8    6.19    4.55
   3  -4  -8   96.13   11.35
   2  -4  -8   76.53    9.24
   1  -4  -8    1.00    1.87
  -1   4   8    3.40    2.70
   0  -4  -8  148.15   11.59
   0   4   8  140.63   10.46
  -1  -4  -8  162.44   12.08
   1   4   8  169.06   10.99
  -2  -4  -8   30.21    4.80
   2   4   8   28.65    3.72
   2   4   8   26.29    4.41
   3   4   8  372.19   23.38
   3   4   8  408.83   22.27
   4   4   8   76.00    4.65
   4   4   8   76.46    6.98
   5   4   8    8.10    1.92
   5   4   8    8.46    2.74
   6   4   8  148.72    8.98
   6   4   8  153.77   11.96
   7   4   8   59.14    5.52
   7   4   8   60.62    7.38
   8   4   8    2.80    2.79
   8   4   8    3.37    2.27
   9   4   8   99.90    8.78
   9   4   8   84.20   10.72
   3  -5  -8   97.07   11.96
   2  -5  -8   -0.07    2.79
   1  -5  -8  109.63   11.11
   0  -5  -8  156.76   13.03
  -1  -5  -8   11.70    3.64
  -2  -5  -8  145.26   12.13
   2   5   8  142.24    9.45
   3   5   8  107.14    8.31
   4   5   8    2.14    1.68
   5   5   8  179.24    9.09
   5   5   8  165.55   12.44
   6   5   8  121.18   10.19
   6   5   8  120.68    7.51
   7   5   8    3.26    1.93
   7   5   8    4.85    2.90
   8   5   8  104.05    8.28
   8   5   8  107.22   10.82
   9   5   8   25.18    4.96
   9   5   8   23.95    6.50
   2  -6  -8   43.71    8.79
   1  -6  -8   42.17    8.27
   0  -6  -8   -0.66    2.09
  -1  -6  -8   90.91   10.00
  -2  -6  -8   92.69   10.45
   5   6   8   79.74    7.39
   6   6   8   11.93    3.49
   7   6   8   81.80    8.45
   8   6   8   34.89    6.90
   9   6   8   13.10    5.21
   1  -7  -8    0.64    3.33
   0  -7  -8   96.45   11.51
  -5  -8   9   12.59    8.64
  -4  -8   9   -0.34    5.69
  -3  -8   9   27.51    6.89
   2   8  -9    6.07   11.39
  -2  -8   9   19.61    5.91
   1   8  -9   -0.13   13.56
  -1  -8   9    1.42    3.43
  -5  -7   9    3.05    7.02
   4   7  -9   31.52   16.73
  -4  -7   9   41.51   11.22
  -4  -7   9   40.33    7.87
   3   7  -9    9.82   12.00
  -3  -7   9   50.13    8.09
  -3  -7   9   42.73    9.50
   2   7  -9    5.09   12.45
  -2  -7   9    4.64    3.89
  -2  -7   9    1.62    3.56
   1   7  -9   23.16   15.51
  -1  -7   9   88.29    9.60
  -1  -7   9   67.23    8.85
   0  -7   9   31.72    7.45
   0  -7   9   34.78    6.73
   0  -7   9   26.34    6.03
   1  -7   9    7.40    4.16
   1  -7   9    7.18    4.24
   2  -7   9   81.47   10.85
   2  -7   9   70.84   10.17
  -6  -6   9   -1.77    7.21
   5   6  -9   68.47   22.48
  -5  -6   9   42.97    7.78
  -5  -6   9   33.63   12.08
   4   6  -9   27.43   15.13
  -4  -6   9   30.87    5.81
  -4  -6   9   27.24    9.74
   3   6  -9    0.06    9.79
  -3  -6   9    0.39    4.04
  -3  -6   9    1.39    2.44
   2   6  -9   35.08   15.69
  -2  -6   9   63.78    9.71
  -2  -6   9   75.72    8.21
   1   6  -9   44.91   18.11
  -1  -6   9   96.28    9.54
  -1  -6   9   95.72   10.59
   0  -6   9    7.80    3.76
   0  -6   9    3.35    2.99
   0  -6   9    3.02    2.92
   1  -6   9  124.26   11.40
   1  -6   9  124.92   12.55
   1  -6   9  155.05   12.68
   2  -6   9   80.47    9.09
   2  -6   9   74.16    8.65
   2  -6   9   73.41    9.40
   3  -6   9    5.45    3.93
   3  -6   9   12.52    4.92
   3  -6   9    8.21    4.27
   4  -6   9   76.55   10.58
   6   5  -9   59.10   19.22
  -6  -5   9   30.58    6.76
  -6  -5   9   20.19   10.49
   5   5  -9   50.37   17.52
  -5  -5   9   30.69    6.04
  -5  -5   9   20.30   10.75
   4   5  -9    4.12    8.97
  -4  -5   9    0.22    5.12
  -4  -5   9    1.69    2.05
   3   5  -9   51.67   18.05
  -3  -5   9   86.27    8.04
  -3  -5   9   78.43   13.69
   2   5  -9   68.23   20.29
  -2  -5   9   89.89    8.00
  -2  -5   9   76.04   10.71
   1   5  -9   -3.85    5.14
  -1  -5   9    4.44    3.45
  -1  -5   9    3.08    2.34
   0  -5   9  177.14   14.95
   0  -5   9  169.60   12.90
   1  -5   9   55.80    7.50
   1  -5   9   34.10    6.16
   1  -5   9   47.68    6.75
   2  -5   9   11.26    4.40
   2  -5   9   12.49    4.24
   2  -5   9    8.47    3.52
   3  -5   9   76.82    8.93
   3  -5   9   73.88    8.86
   3  -5   9   75.70    9.31
   4  -5   9   58.45    8.45
   4  -5   9   44.58    7.87
   4  -5   9   55.17    7.90
   5  -5   9    2.18    3.24
   5  -5   9    3.05    3.49
   6   4  -9   66.90    8.86
   6   4  -9   73.04   18.29
  -6  -4   9   33.28   13.01
   5   4  -9    2.36    7.65
  -5  -4   9    2.65    6.38
  -5  -4   9    0.74    2.29
   4   4  -9  141.80   25.61
  -4  -4   9   96.84   14.70
  -4  -4   9  102.94    8.72
   3   4  -9  109.93   23.78
  -3  -4   9   68.28   12.38
  -3  -4   9   96.26    7.82
   2   4  -9   27.12   12.32
  -2  -4   9   16.01    5.54
  -2  -4   9   16.85    3.53
   1   4  -9  119.68   25.71
  -1  -4   9  153.73   10.70
  -1  -4   9  157.24   14.41
   0  -4   9  124.80   11.62
   0  -4   9   91.98    8.71
   1  -4   9    3.63    2.62
   1  -4   9    5.58    3.44
   1  -4   9    3.00    2.18
   2  -4   9  122.95   10.50
   2  -4   9  132.83   12.06
   2  -4   9  122.49   11.03
   3  -4   9   42.32    6.97
   3  -4   9   48.33    6.70
   3  -4   9   45.90    6.73
   4  -4   9   13.57    4.42
   4  -4   9   17.51    4.81
   4  -4   9   17.09    4.88
   5  -4   9   84.99   10.25
   5  -4   9   95.11   10.46
   5  -4   9   99.71   10.62
   6  -4   9   20.66    6.15
   6  -4   9   22.70    6.59
   6   3  -9   -0.63    2.49
   6   3  -9   -2.23    5.30
  -6  -3   9    0.74    5.99
   5   3  -9   96.79   19.01
  -5  -3   9   59.29   14.37
   4   3  -9  151.30   21.63
  -4  -3   9   96.05   14.34
  -4  -3   9  109.80    8.90
   3   3  -9   14.12    8.11
  -3  -3   9    8.11    5.13
  -3  -3   9    8.96    2.68
   2   3  -9  158.92   22.01
  -2  -3   9   91.79   11.67
  -2  -3   9  111.09    7.80
   1   3  -9  211.27   26.86
  -1  -3   9  210.13   17.80
  -1  -3   9  230.98   12.97
   0   3  -9   16.47    9.92
   0  -3   9   22.44    4.21
   0  -3   9   27.04    6.22
   1  -3   9  186.02   15.14
   1  -3   9  175.75   12.27
   2  -3   9   73.66    7.26
   2  -3   9   71.88    8.38
   2  -3   9   72.72    7.52
   3  -3   9   13.99    3.85
   3  -3   9   11.07    3.64
   3  -3   9   10.34    3.19
   4  -3   9   89.51    9.05
   4  -3   9   89.17    8.75
   4  -3   9   81.83    9.00
   5  -3   9   52.53    7.90
   5  -3   9   49.93    7.26
   5  -3   9   51.00    7.18
   6  -3   9   21.33    5.87
   6  -3   9   16.62    5.32
   6  -3   9   18.66    5.32
   7  -3   9   70.49   12.18
   7  -3   9   57.18    9.83
   6   2  -9   59.92   14.60
   6   2  -9   52.37    7.66
   5   2  -9  107.71    8.98
   5   2  -9   97.00   17.33
  -5  -2   9   59.79   13.82
   4   2  -9   -0.71    3.53
  -4  -2   9   -1.52    1.60
  -4  -2   9    0.40    3.98
   3   2  -9  262.91   25.04
  -3  -2   9  215.76   19.03
  -3  -2   9  187.47   12.16
   2   2  -9  137.27   17.46
  -2  -2   9   95.03   11.12
  -2  -2   9  105.65    7.32
   1   2  -9    2.73    4.26
  -1  -2   9    1.74    1.36
  -1  -2   9    4.35    3.11
   0   2  -9  144.52   19.64
   0  -2   9  151.04   13.00
   0  -2   9  143.94    9.25
  -1   2  -9   99.22   19.16
   1  -2   9  127.83    8.94
   1  -2   9  111.49   11.03
   2  -2   9    3.66    2.53
   2  -2   9    2.35    1.54
   2  -2   9    1.61    1.78
   3  -2   9  217.86   14.57
   3  -2   9  198.63   13.70
   3  -2   9  219.82   16.14
   4  -2   9  118.51    9.85
   4  -2   9  114.09    9.74
   4  -2   9  114.35   10.71
   5  -2   9   26.24    5.01
   5  -2   9   16.99    4.39
   5  -2   9   21.74    5.14
   6  -2   9  148.24   13.06
   6  -2   9  158.71   12.71
   6  -2   9  157.80   13.86
   7  -2   9   41.05    7.69
   7  -2   9   35.53    7.50
   6   1  -9   61.63    7.11
   6   1  -9   68.00   13.54
  -6  -1   9   27.09   10.57
   5   1  -9    5.59    3.02
   5   1  -9    4.55    5.25
  -5  -1   9    0.88    5.02
   4   1  -9  118.47   14.84
   4   1  -9  124.04    8.86
  -4  -1   9   88.84   13.38
   3   1  -9  176.59   17.21
  -3  -1   9  133.95    9.45
  -3  -1   9  139.30   14.39
   2   1  -9   -1.10    3.04
  -2  -1   9    2.22    1.44
  -2  -1   9    2.27    2.43
   1   1  -9  266.81   21.98
  -1  -1   9  216.97   11.86
  -1  -1   9  224.99   17.15
   0   1  -9  216.10   19.83
   0  -1   9  203.75   15.38
   0  -1   9  183.94   10.50
  -1   1  -9   24.02    7.78
   1  -1   9   18.50    4.76
   1  -1   9   23.43    3.62
  -2   1  -9  199.12   22.16
   2  -1   9  264.09   18.28
   2  -1   9  274.09   14.89
   3  -1   9  134.57   11.41
   3  -1   9  131.41    9.32
   3  -1   9  136.78    9.78
   4  -1   9    8.59    2.85
   4  -1   9   15.09    3.08
   4  -1   9   15.67    4.31
   5  -1   9  149.68   10.87
   5  -1   9  142.23   11.08
   5  -1   9  143.56   12.38
   6  -1   9   79.06    8.02
   6  -1   9   71.83    8.65
   6  -1   9   67.50    7.41
   7  -1   9    6.31    3.53
   7  -1   9    5.64    3.21
   6   0  -9    0.75    2.59
  -6   0   9    2.80    6.55
   5   0  -9   69.75    6.56
   5   0  -9   68.41   12.04
  -5   0   9   39.51   11.34
   4   0  -9  117.53   13.18
   4   0  -9  112.02    7.92
  -4   0   9   84.47   13.01
   3   0  -9    3.29    1.79
   3   0  -9    2.62    3.35
  -3   0   9    2.45    3.66
   2   0  -9  293.64   21.10
  -2   0   9  239.46   13.51
  -2   0   9  249.84   18.93
   1   0  -9  116.77   11.66
  -1   0   9  107.85    6.61
  -1   0   9  107.71   10.04
   0   0  -9   29.87    6.20
   0   0   9   29.62    2.81
   0   0   9   36.43    5.24
  -1   0  -9  151.85   10.32
  -1   0  -9  156.15   13.43
   1   0   9  157.65    8.64
   1   0   9  137.09   12.05
  -2   0  -9   96.06   10.68
  -2   0  -9  108.31    8.20
   2   0   9   99.64    7.18
   2   0   9  103.61    9.62
  -3   0  -9   21.65    6.68
  -3   0  -9   33.54    4.29
   3   0   9   26.75    5.07
   3   0   9   32.42    4.67
   4   0   9  289.35   16.84
   4   0   9  292.96   16.18
   4   0   9  274.64   19.32
   5   0   9  112.40    8.79
   5   0   9  119.99   10.63
   5   0   9  116.76    8.66
   6   0   9   52.13    7.11
   6   0   9   52.39    6.07
   6   0   9   54.33    5.92
   7   0   9   94.78    8.68
   7   0   9   83.38    9.60
   8   0   9   19.54    5.75
   8   0   9   30.40    6.17
  -6   1   9   17.00    8.81
   5  -1  -9   53.05   10.01
  -5   1   9   40.69   11.18
   4  -1  -9    0.52    2.88
   4  -1  -9   -0.35    1.50
  -4   1   9    1.99    4.68
   3  -1  -9  126.50   12.69
   3  -1  -9  135.87    7.86
  -3   1   9  109.86   12.94
   2  -1  -9   67.55    8.30
   2  -1  -9   63.01    4.65
  -2   1   9   67.67    8.27
   1  -1  -9    0.97    1.83
  -1   1   9    0.85    1.67
  -1   1   9    1.81    1.24
   0  -1  -9  228.87   16.03
   0  -1  -9  250.40   13.11
   0   1   9  212.64   10.97
   0   1   9  236.99   15.99
  -1  -1  -9  178.75   12.31
   1   1   9  180.36   13.36
   1   1   9  171.89    8.74
  -2  -1  -9    4.53    1.59
  -2  -1  -9    8.63    1.90
  -2  -1  -9    7.54    1.89
   2   1   9    6.70    2.83
   2   1   9    6.73    1.77
   3   1   9  328.86   21.60
   3   1   9  335.35   17.19
  -4  -1  -9   43.50    5.18
   4   1   9   59.21    5.23
   4   1   9   56.32    6.41
   5   1   9   28.95    4.27
   5   1   9   30.90    3.06
   5   1   9   33.14    5.93
   6   1   9  158.24   10.45
   6   1   9  139.84   12.38
   7   1   9   51.11    6.07
   7   1   9   49.85    7.01
   8   1   9   27.56    6.85
   8   1   9   16.59    4.49
   5  -2  -9   -0.24    3.68
  -5   2   9    2.67    5.80
   4  -2  -9   60.89   10.10
  -4   2   9   34.36    9.35
   3  -2  -9  125.63   12.20
  -3   2   9   97.52   12.54
   2  -2  -9    2.20    2.45
   2  -2  -9    2.94    1.29
  -2   2   9    5.17    3.44
   1  -2  -9  224.12   16.08
   1  -2  -9  224.45   10.37
  -1   2   9  209.34   15.50
   0  -2  -9   68.91    6.77
   0  -2  -9   69.96    3.75
   0   2   9   72.86    6.96
  -1  -2  -9   10.89    2.42
   1   2   9   10.83    3.03
   1   2   9   11.67    4.66
   1   2   9   12.98    1.31
  -2  -2  -9  112.47    7.03
  -2  -2  -9  113.60    5.73
   2   2   9  115.91    6.00
   2   2   9  105.37    9.45
  -3  -2  -9  110.22    5.78
   3   2   9   95.39    8.84
   3   2   9   99.62    6.64
   4   2   9   15.19    2.76
   4   2   9   14.37    3.71
   5   2   9  214.76   11.82
   5   2   9  192.86   14.80
   6   2   9   43.01    6.04
   6   2   9   40.48    4.72
   7   2   9   20.28    5.20
   7   2   9   12.88    3.45
   8   2   9   93.11    8.44
   8   2   9   84.17    9.99
   9   2   9   19.64    5.02
   4  -3  -9   43.01    8.93
   3  -3  -9   14.29    5.07
  -3   3   9    5.29    5.09
   2  -3  -9  119.55   11.25
  -2   3   9  100.50   11.39
   1  -3  -9   71.77    8.06
  -1   3   9   79.99    8.15
   0  -3  -9    1.39    1.39
   0   3   9    0.22    1.46
  -1  -3  -9  237.01   15.46
   1   3   9  252.49   15.85
  -2  -3  -9  205.49   12.07
   2   3   9  179.96   14.12
   2   3   9  175.50   13.21
   3   3   9   18.74    2.13
   3   3   9   20.23    4.23
   4   3   9  218.66   11.39
   4   3   9  215.85   15.25
   5   3   9   35.55    5.20
   5   3   9   37.83    3.80
   6   3   9   43.36    5.97
   6   3   9   39.70    4.36
   7   3   9  103.25    7.88
   7   3   9   93.98    9.78
   8   3   9   44.52    6.16
   8   3   9   34.85    6.95
   9   3   9   17.41    4.69
   3  -4  -9   90.98   11.33
   2  -4  -9  100.65   10.98
   1  -4  -9    2.26    2.55
   0  -4  -9  168.88   13.44
   0   4   9  187.78   12.90
  -1  -4  -9   72.18    7.09
   1   4   9   75.96    6.50
  -2  -4  -9    2.37    1.96
   2   4   9    0.95    1.37
   3   4   9  165.80   12.15
   4   4   9   63.41    4.21
   4   4   9   55.32    6.27
   5   4   9    4.58    2.42
   5   4   9    5.73    1.73
   6   4   9  145.11    8.73
   6   4   9  136.62   11.58
   7   4   9   46.05    6.52
   7   4   9   47.46    4.92
   8   4   9   19.82    5.49
   8   4   9   19.93    4.14
   9   4   9   97.07   11.52
   9   4   9   89.87    8.60
   3  -5  -9   42.56    9.16
   2  -5  -9   11.37    4.93
   1  -5  -9   83.85    9.76
   0  -5  -9   54.22    7.10
  -1  -5  -9    4.24    2.78
   2   5   9  116.56    8.68
   3   5   9   65.65    6.34
   4   5   9   28.18    4.23
   5   5   9  145.21   11.32
   6   5   9   16.63    4.16
   7   5   9   17.99    4.71
   8   5   9   95.93    7.99
   8   5   9  100.59   10.51
   9   5   9   35.18    6.01
   9   5   9   34.53    7.87
   2  -6  -9   34.25    8.06
   1  -6  -9   58.60    8.84
   0  -6  -9    5.91    3.61
   6   6   9   16.44    4.21
   7   6   9   93.31    9.34
   8   6   9   28.83    6.47
   9   6   9   20.42    5.99
  -4  -8  10    5.75    7.17
  -3  -8  10   30.39    8.86
  -5  -7  10    4.44    8.92
   4   7 -10   34.14   16.98
  -4  -7  10   53.77   13.06
  -4  -7  10   53.30    8.64
   3   7 -10   14.45   13.20
  -3  -7  10   25.80    6.17
  -3  -7  10   28.46    9.00
   2   7 -10   -0.09   10.40
  -2  -7  10    1.55    3.83
  -2  -7  10    1.53    3.15
   1   7 -10   35.25   17.29
  -1  -7  10   54.74    9.53
  -1  -7  10   56.90    8.69
   0   7 -10    9.21   11.14
   0  -7  10   32.73    6.66
   0  -7  10   33.65    6.99
   1  -7  10    4.71    3.59
   1  -7  10    0.34    2.47
   2  -7  10   77.94   10.37
   5   6 -10   49.72   19.72
  -5  -6  10   20.79   11.24
  -5  -6  10   39.59    7.38
   4   6 -10   11.10   11.56
  -4  -6  10   27.07    5.92
  -4  -6  10   13.38    7.77
   3   6 -10    4.95    9.85
  -3  -6  10    1.83    5.14
  -3  -6  10   -0.97    2.43
   2   6 -10   54.19   19.73
  -2  -6  10   73.38    8.29
  -2  -6  10   74.40   10.95
   1   6 -10   16.85   14.43
  -1  -6  10   52.79    9.39
  -1  -6  10   53.73    8.08
   0   6 -10    9.89   11.33
   0  -6  10   20.20    5.40
   0  -6  10   25.03    6.33
   1  -6  10   77.32    8.76
   1  -6  10   73.51    9.45
   1  -6  10   78.20    9.30
   2  -6  10   14.87    5.04
   2  -6  10   14.89    4.86
   2  -6  10   13.42    4.68
   3  -6  10   13.63    5.12
   3  -6  10    8.00    4.31
   3  -6  10   12.30    4.80
   4  -6  10   40.90    8.56
   5   5 -10   57.83   20.28
  -5  -5  10   20.58   11.56
  -5  -5  10   34.87    6.59
   4   5 -10   10.61   10.49
  -4  -5  10    7.61    3.57
  -4  -5  10   14.96    8.27
   3   5 -10  114.11   27.36
  -3  -5  10   76.33   14.21
  -3  -5  10  105.37    9.11
   2   5 -10   22.56   13.85
  -2  -5  10   20.74    6.94
  -2  -5  10   33.09    5.71
   1   5 -10    8.82   11.09
  -1  -5  10    6.29    3.06
  -1  -5  10    9.23    4.92
   0  -5  10  128.24   11.05
   0  -5  10  148.05   13.57
   1  -5  10   32.36    6.14
   1  -5  10   49.02    8.46
   1  -5  10   35.32    6.55
   2  -5  10   20.57    5.60
   2  -5  10   25.89    5.60
   2  -5  10   22.01    5.05
   3  -5  10  109.12   10.66
   3  -5  10  112.50   11.56
   3  -5  10  110.96   11.39
   4  -5  10   15.52    5.29
   4  -5  10   13.63    4.82
   4  -5  10   24.74    6.37
   5  -5  10    9.17    4.39
   5  -5  10   11.38    5.15
   6   4 -10   26.74    6.19
   5   4 -10    7.14    9.13
  -5  -4  10    5.62    3.60
  -5  -4  10   11.17    8.84
   4   4 -10   48.11   15.93
  -4  -4  10   22.82    9.46
  -4  -4  10   28.43    5.26
   3   4 -10   42.51   15.99
  -3  -4  10   30.12    9.23
  -3  -4  10   34.99    5.34
   2   4 -10   12.44    9.33
  -2  -4  10    3.15    4.14
  -2  -4  10    7.34    2.60
   1   4 -10  118.41   25.49
  -1  -4  10  184.99   12.04
  -1  -4  10  196.59   16.99
   0  -4  10   97.22   10.80
   0  -4  10   93.21    8.36
  -1   4 -10   13.62   10.03
   1  -4  10   34.66    5.94
   1  -4  10   45.22    8.10
   2  -4  10  141.64   11.78
   2  -4  10  136.03   11.23
   2  -4  10  130.18   12.59
   3  -4  10   14.66    4.11
   3  -4  10   20.25    5.54
   3  -4  10   12.88    4.48
   4  -4  10   16.56    4.72
   4  -4  10   18.25    5.37
   4  -4  10   15.22    4.63
   5  -4  10   68.16    9.25
   5  -4  10   73.96    9.36
   5  -4  10   90.96   10.27
   6  -4  10   21.58    6.62
   6  -4  10   20.27    6.35
   6   3 -10    3.13    3.59
   5   3 -10  106.56   20.57
  -5  -3  10   45.07   12.97
   4   3 -10   45.88   13.87
  -4  -3  10   29.36    9.81
  -4  -3  10   34.75    5.50
   3   3 -10   50.67   14.68
  -3  -3  10   26.52    8.33
  -3  -3  10   28.30    4.44
   2   3 -10  138.96   23.80
  -2  -3  10  111.11   13.21
  -2  -3  10  118.36    8.33
   1   3 -10   45.15   14.72
  -1  -3  10   47.03    8.97
  -1  -3  10   51.20    5.18
   0   3 -10   44.89   14.19
   0  -3  10   70.74    8.88
   0  -3  10   79.53    6.83
   1  -3  10  157.14   13.78
   1  -3  10  142.53   10.84
   2  -3  10   54.96    6.21
   2  -3  10   53.28    7.59
   2  -3  10   56.68    6.60
   3  -3  10   15.69    3.97
   3  -3  10   21.59    4.91
   3  -3  10   18.68    4.96
   4  -3  10  112.61   11.28
   4  -3  10  111.57   10.51
   4  -3  10  123.81   10.74
   5  -3  10   21.86    5.76
   5  -3  10   29.99    6.02
   5  -3  10   38.38    7.52
   6  -3  10   36.06    7.35
   6  -3  10   46.86    8.65
   6  -3  10   27.10    6.37
   6   2 -10   77.89    8.84
   5   2 -10   44.34    6.68
   5   2 -10   46.90   12.46
  -5  -2  10   31.73   11.35
   4   2 -10   16.70    8.03
  -4  -2  10    4.95    5.43
  -4  -2  10   10.49    3.48
   3   2 -10  152.95   19.12
  -3  -2  10  110.59    8.44
  -3  -2  10  105.01   13.40
   2   2 -10   77.29   14.97
  -2  -2  10   71.57    5.82
  -2  -2  10   62.50    9.29
   1   2 -10   14.36    8.11
  -1  -2  10   11.17    2.44
  -1  -2  10   17.06    5.34
   0   2 -10  311.00   30.44
   0  -2  10  280.73   16.14
   0  -2  10  355.60   23.11
  -1   2 -10   84.48   17.34
   1  -2  10   99.58   10.21
   1  -2  10   91.11    7.48
  -2   2 -10   38.21   12.73
   2  -2  10   40.44    7.24
   2  -2  10   38.48    5.72
   3  -2  10   85.74    8.28
   3  -2  10   86.92    9.48
   3  -2  10  101.16    8.11
   4  -2  10    7.13    2.58
   4  -2  10    7.98    3.69
   4  -2  10    7.22    3.05
   5  -2  10   16.03    4.74
   5  -2  10   16.26    4.56
   5  -2  10   24.01    4.87
   6  -2  10   77.09    8.80
   6  -2  10   71.83    9.20
   6  -2  10   74.12    8.49
   7  -2  10   16.09    5.46
   7  -2  10    6.69    4.23
   6   1 -10   34.88    6.38
   5   1 -10    1.59    5.08
   5   1 -10    6.20    3.09
  -5  -1  10    1.67    5.86
   4   1 -10  118.10    8.83
   4   1 -10   94.58   14.10
  -4  -1  10   75.51   14.49
   3   1 -10  106.73   13.91
  -3  -1  10  102.89    7.99
  -3  -1  10  104.09   12.59
   2   1 -10   24.55    7.37
  -2  -1  10   14.34    4.78
  -2  -1  10   18.08    3.15
   1   1 -10  268.00   22.89
  -1  -1  10  233.20   12.62
  -1  -1  10  238.18   18.40
   0   1 -10   73.15   12.54
   0  -1  10   72.88    8.21
   0  -1  10   57.85    4.79
  -1   1 -10   51.12   11.26
   1  -1  10   53.40    7.30
   1  -1  10   65.04    5.38
  -2   1 -10  121.84   16.63
   2  -1  10  152.39    9.96
   2  -1  10  136.54   12.38
   3  -1  10   63.55    7.68
   3  -1  10   65.24    6.62
   4  -1  10   26.23    4.86
   4  -1  10   23.60    3.76
   4  -1  10   22.26    5.11
   5  -1  10  165.29   13.57
   5  -1  10  143.62   11.33
   5  -1  10  151.00   11.35
   6  -1  10    8.72    4.26
   6  -1  10    6.89    3.47
   7  -1  10   61.09    9.01
   7  -1  10   48.21    8.66
   5   0 -10  139.39   10.95
   5   0 -10  137.77   16.31
   4   0 -10   42.17    4.97
   4   0 -10   56.94   10.61
  -4   0  10   31.77    9.37
   3   0 -10   34.80    4.15
   3   0 -10   25.70    7.00
  -3   0  10   22.50    6.66
   2   0 -10  144.66   13.95
  -2   0  10  118.37    8.20
  -2   0  10  131.37   12.55
   1   0 -10  107.55   11.76
  -1   0  10  113.51    6.92
  -1   0  10  109.56   10.49
   0   0 -10   19.33    5.20
   0   0  10   25.38    5.28
   0   0  10   19.35    2.54
  -1   0 -10  272.87   20.17
   1   0  10  272.51   19.31
   1   0  10  269.85   13.68
  -2   0 -10  104.31    8.41
  -2   0 -10   98.22   10.61
   2   0  10  102.02    9.98
   2   0  10  100.80    7.21
  -3   0 -10   66.41    9.71
   3   0  10   70.37    6.47
   3   0  10   68.19    7.75
   4   0  10  169.46   11.96
   4   0  10  197.92   11.80
   4   0  10  194.34   14.89
   5   0  10   65.65    6.77
   5   0  10   70.96    6.37
   5   0  10   68.85    8.06
   6   0  10   47.61    7.13
   6   0  10   60.35    6.75
   7   0  10  115.09    9.89
   7   0  10  101.99   11.23
   8   0  10   19.32    5.21
   8   0  10   23.44    7.17
   5  -1 -10   30.30    7.95
  -5   1  10   10.94    7.21
   4  -1 -10    1.41    3.63
  -4   1  10   -2.21    4.06
   3  -1 -10  144.08   13.83
   3  -1 -10  131.83    8.24
  -3   1  10  126.61   14.24
   2  -1 -10   57.52    8.06
   2  -1 -10   57.19    4.49
  -2   1  10   57.17    8.10
   1  -1 -10   69.95    7.89
  -1   1  10   59.33    7.11
  -1   1  10   51.53    4.42
   0  -1 -10  281.13   18.65
   0   1  10  270.06   18.30
   0   1  10  256.92   12.78
  -1  -1 -10   23.55    4.09
  -1  -1 -10   16.32    3.27
   1   1  10   16.43    3.96
   1   1  10    8.40    5.41
   1   1  10   19.95    2.14
  -2  -1 -10   62.45    5.52
  -2  -1 -10   59.80    5.19
   2   1  10   64.51    7.32
   2   1  10   61.11    4.65
   3   1  10  194.28   11.40
   3   1  10  191.91   14.72
   4   1  10   60.13    7.04
   4   1  10   51.42    5.36
   5   1  10   27.91    4.64
   5   1  10   34.72    6.29
   6   1  10  164.38   13.98
   6   1  10  173.41   11.56
   7   1  10   28.44    5.37
   7   1  10   30.09    6.69
   8   1  10   45.37    8.89
   8   1  10   52.51    7.78
   4  -2 -10  104.84   12.07
  -4   2  10   57.26   12.63
   3  -2 -10   31.47    6.83
  -3   2  10   25.14    7.89
   2  -2 -10   39.17    7.04
  -2   2  10   48.05    8.55
   1  -2 -10  138.77   12.04
  -1   2  10  148.00   12.05
   0  -2 -10   43.52    2.87
   0  -2 -10   47.06    5.61
   0   2  10   41.98    5.51
  -1  -2 -10   49.74    4.98
   1   2  10   45.38    2.95
   1   2  10   54.58    5.96
  -2  -2 -10  258.17   14.82
   2   2  10  240.92   17.68
   2   2  10  268.71   12.04
   3   2  10   67.34    7.34
   3   2  10   65.85    5.02
   4   2  10  101.75    7.27
   4   2  10  105.35    9.67
   5   2  10  209.42   12.40
   5   2  10  216.43   15.98
   6   2  10    7.67    3.68
   6   2  10   11.35    2.99
   7   2  10   37.29    7.36
   7   2  10   41.53    5.94
   8   2  10   66.76    9.03
   8   2  10   58.12    7.77
   9   2  10    5.36    3.74
   4  -3 -10   39.56    8.57
   3  -3 -10    4.42    3.67
   2  -3 -10  116.12   11.69
  -2   3  10  114.89   12.53
   1  -3 -10   55.29    7.18
  -1   3  10   55.52    7.23
   0  -3 -10   39.95    5.42
   0   3  10   39.74    5.24
  -1  -3 -10  233.93   15.83
   1   3  10  266.50   16.57
  -2  -3 -10   52.08    4.81
   2   3  10   53.70    6.11
   3   3  10   43.37    3.01
   3   3  10   40.65    5.53
   4   3  10  123.15    7.60
   4   3  10  118.22   10.39
   5   3  10   49.22    4.72
   5   3  10   58.50    6.83
   6   3  10   56.93    7.15
   6   3  10   61.23    5.52
   7   3  10  112.47   11.21
   7   3  10  125.77    9.08
   8   3  10    4.84    3.53
   8   3  10    7.03    2.99
   9   3  10   62.92    8.46
   3  -4 -10  112.85   12.81
   2  -4 -10   36.21    7.54
   1  -4 -10   31.77    6.26
   0  -4 -10   97.81    9.35
   0   4  10  103.48    9.15
  -1  -4 -10   36.17    5.11
   1   4  10   43.01    4.92
   2   4  10    9.10    2.76
   3   4  10  251.59   17.13
   4   4  10   46.88    5.95
   5   4  10   47.71    6.08
   6   4  10  137.35    8.50
   6   4  10  122.30   11.17
   7   4  10   18.32    3.68
   7   4  10   15.65    4.69
   8   4  10   27.15    6.38
   8   4  10   36.18    5.58
   9   4  10   76.69    8.32
   2  -5 -10    8.32    4.50
   1  -5 -10   97.77   10.99
   0  -5 -10   53.74    7.35
   3   5  10   30.04    4.40
   4   5  10   27.81    5.11
   5   5  10  102.05    9.35
   6   5  10   16.47    4.41
   7   5  10   22.84    5.54
   8   5  10   91.22   10.25
   6   6  10   40.25    6.06
   7   6  10   72.08    8.39
   8   6  10    6.79    3.93
  -3  -8  11   33.00    9.96
  -4  -7  11   17.51   10.05
  -3  -7  11   19.40    8.61
   2   7 -11    6.02   13.46
  -2  -7  11    4.85    4.80
  -2  -7  11   12.15    4.88
   1   7 -11   36.43   20.33
  -1  -7  11   65.54    9.45
  -1  -7  11   67.62    9.88
   0   7 -11   10.50   14.11
   0  -7  11   13.71    5.17
   0  -7  11   12.95    5.02
   1  -7  11    6.62    4.14
   4   6 -11   15.22   14.42
  -4  -6  11   17.58    5.21
  -4  -6  11    8.72    8.23
   3   6 -11   18.32   14.70
  -3  -6  11   14.73    7.73
  -3  -6  11   20.67    5.41
   2   6 -11   55.61   20.52
  -2  -6  11   70.14    8.21
  -2  -6  11   78.11   13.30
   1   6 -11   17.01   15.36
  -1  -6  11   11.13    3.95
  -1  -6  11   10.15    5.19
   0   6 -11    0.22   12.21
   0  -6  11   26.24    6.84
   0  -6  11   25.44    5.82
   1  -6  11   73.78    9.11
   1  -6  11   61.30    8.80
   2  -6  11   19.76    5.36
   2  -6  11   21.53    5.99
   2  -6  11   15.10    5.10
   3  -6  11   19.59    5.98
   3  -6  11   21.05    6.07
   5   5 -11   21.61   15.63
  -5  -5  11    3.14    8.56
  -5  -5  11   10.68    4.40
   4   5 -11   10.77   12.45
  -4  -5  11    9.52    8.25
  -4  -5  11    7.93    3.55
   3   5 -11   82.08   22.09
  -3  -5  11   52.76   12.59
  -3  -5  11   73.13    7.63
   2   5 -11   26.95   14.94
  -2  -5  11   28.44    8.89
  -2  -5  11   16.37    4.26
   1   5 -11    4.05    8.60
  -1  -5  11   16.01    6.03
  -1  -5  11   13.90    4.06
   0   5 -11   67.48   22.38
   0  -5  11  137.23   13.18
   0  -5  11  124.94   10.63
  -1   5 -11    8.11   11.56
   1  -5  11   12.35    4.80
   1  -5  11   14.98    4.59
   2  -5  11   69.80    8.91
   2  -5  11   67.68    8.20
   2  -5  11   55.85    8.50
   3  -5  11   79.27   10.09
   3  -5  11   83.28    9.74
   3  -5  11   91.63    9.74
   4  -5  11    3.65    3.51
   4  -5  11    2.66    2.95
   4  -5  11    3.00    3.28
   5  -5  11   22.85    6.48
   5  -5  11   25.69    7.14
   5   4 -11    5.84    8.43
  -5  -4  11    1.11    7.73
  -5  -4  11    6.94    3.75
   4   4 -11   85.11   21.62
  -4  -4  11   36.32   11.61
  -4  -4  11   68.49    7.26
   3   4 -11   54.85   17.29
  -3  -4  11   21.45    8.72
  -3  -4  11   23.58    4.51
   2   4 -11   31.69   14.12
  -2  -4  11   20.96    7.17
  -2  -4  11   31.38    4.90
   1   4 -11  152.04   29.15
  -1  -4  11  120.24   13.64
  -1  -4  11  126.74    9.59
   0   4 -11   13.61   10.64
   0  -4  11   20.26    4.40
   0  -4  11   18.07    5.69
  -1   4 -11   13.13   11.23
   1  -4  11   30.81    5.64
   1  -4  11   35.09    7.22
   2  -4  11  124.17   12.65
   2  -4  11  134.95   11.58
   2  -4  11  132.10   11.07
   3  -4  11   31.51    6.33
   3  -4  11   27.36    5.59
   3  -4  11   31.26    7.20
   4  -4  11   28.66    6.43
   4  -4  11   25.73    6.64
   4  -4  11   30.05    6.05
   5  -4  11   94.02   10.90
   5  -4  11   92.91   10.37
   5  -4  11   69.33   10.40
   5   3 -11  106.10   21.32
   4   3 -11   22.78   10.50
  -4  -3  11   10.09    6.45
  -4  -3  11   16.59    4.38
   3   3 -11   15.12    9.40
  -3  -3  11   12.65    3.41
  -3  -3  11    9.61    6.56
   2   3 -11   68.65   17.40
  -2  -3  11   50.69   10.57
  -2  -3  11   50.65    5.26
   1   3 -11   45.31   15.01
  -1  -3  11   52.19    5.40
  -1  -3  11   62.41    9.25
   0   3 -11   20.58   10.67
   0  -3  11   29.83    4.54
   0  -3  11   29.70    6.97
  -1   3 -11  120.04   24.04
   1  -3  11  161.65   11.56
   1  -3  11  186.04   15.31
  -2   3 -11   19.74   11.07
   2  -3  11   26.36    6.33
   2  -3  11   16.85    4.27
   3  -3  11   57.19    8.11
   3  -3  11   68.59    8.69
   3  -3  11   53.10    6.47
   4  -3  11   73.94    8.40
   4  -3  11   78.92    9.51
   4  -3  11   81.82    8.37
   5  -3  11   12.65    4.67
   5  -3  11   16.95    5.41
   5  -3  11   14.17    4.25
   6  -3  11   17.18    5.82
   6  -3  11   14.76    5.31
   6   2 -11   72.27    8.86
   5   2 -11   25.27   10.83
   5   2 -11   18.95    4.97
  -5  -2  11    7.17    7.30
   4   2 -11    7.27    6.75
  -4  -2  11    5.68    3.12
  -4  -2  11   13.71    7.67
   3   2 -11  117.95   17.16
  -3  -2  11   82.78    7.35
  -3  -2  11   84.80   14.28
   2   2 -11   15.88    8.10
  -2  -2  11   24.48    7.12
  -2  -2  11   14.19    2.99
   1   2 -11   98.26   17.77
  -1  -2  11   67.86    5.79
  -1  -2  11   71.30    9.49
   0   2 -11  194.13   22.73
   0  -2  11  181.09   15.27
   0  -2  11  158.74   10.28
  -1   2 -11   14.39    8.50
   1  -2  11    8.16    3.75
   1  -2  11    5.74    2.44
  -2   2 -11   24.49   10.97
   2  -2  11   61.31    6.45
   2  -2  11   63.16    8.15
   3  -2  11  117.84    9.44
   3  -2  11  120.60   11.81
   3  -2  11  116.89    9.88
   4  -2  11    4.33    2.95
   4  -2  11    7.24    2.59
   4  -2  11    5.01    2.78
   5  -2  11   39.53    7.01
   5  -2  11   55.65    9.24
   5  -2  11   46.00    6.07
   6  -2  11   88.85   10.62
   6  -2  11   91.46    9.97
   5   1 -11   33.59    5.83
   5   1 -11   41.08   11.11
  -5  -1  11   22.13    9.52
   4   1 -11  104.85    8.74
  -4  -1  11   82.99   15.13
   3   1 -11   19.80    7.09
  -3  -1  11   17.24    3.84
  -3  -1  11   24.65    7.73
   2   1 -11   26.75    7.85
  -2  -1  11   22.78    6.56
  -2  -1  11   27.10    3.94
   1   1 -11  147.76   16.38
  -1  -1  11  138.47   12.99
  -1  -1  11  129.99    8.30
   0   1 -11   41.47    9.73
   0  -1  11   31.71    6.33
   0  -1  11   34.90    3.60
  -1   1 -11   92.87   13.34
   1  -1  11  100.53   10.18
   1  -1  11   82.06    6.50
  -2   1 -11  198.00   21.35
   2  -1  11  227.27   13.22
   2  -1  11  203.87   16.80
  -3   1 -11   13.36    7.74
   3  -1  11   11.75    4.08
   3  -1  11   17.23    3.97
   4  -1  11   63.61    6.06
   4  -1  11   77.66    8.81
   4  -1  11   74.96    7.45
   5  -1  11  107.91    9.85
   5  -1  11  109.73   11.05
   6  -1  11    3.46    3.37
   6  -1  11    2.58    2.63
   7  -1  11   34.64    7.78
   7  -1  11   31.76    6.76
   5   0 -11   46.57   10.61
  -5   0  11   22.39    9.88
   4   0 -11   33.60    8.93
  -4   0  11   14.95    7.40
   3   0 -11   12.14    5.83
   3   0 -11   14.17    3.22
  -3   0  11   11.83    5.80
   2   0 -11  143.62   14.32
  -2   0  11  131.74   13.06
  -2   0  11  122.54    8.54
   1   0 -11   97.92   11.44
  -1   0  11   97.64    6.61
  -1   0  11  104.96   10.41
   0   0 -11   79.42    9.64
   0   0  11   75.63    5.30
   0   0  11   88.33    8.95
  -1   0 -11  184.58   15.67
   1   0  11  191.98   14.95
   1   0  11  181.48   10.01
  -2   0 -11   14.79    4.88
   2   0  11   18.39    5.07
   2   0  11   16.84    3.11
  -3   0 -11   51.86    8.70
   3   0  11   51.65    7.10
   3   0  11   53.60    5.59
   4   0  11   98.27    8.22
   4   0  11   85.81    9.43
   5   0  11   36.83    5.97
   5   0  11   35.77    6.85
   6   0  11   56.92    7.91
   6   0  11   57.49    7.81
   7   0  11   90.39   10.50
   7   0  11   94.72    9.54
   8   0  11    1.94    3.11
  -5   1  11    7.06    7.22
   4  -1 -11   23.94    7.05
  -4   1  11   18.03    7.94
   3  -1 -11  140.30   13.99
  -3   1  11  119.51   14.43
   2  -1 -11   19.17    5.61
  -2   1  11   18.27    5.70
   1  -1 -11   32.30    6.44
  -1   1  11   27.94    5.75
   0  -1 -11  125.11   10.98
   0   1  11  117.73    6.88
   0   1  11  126.83   10.88
  -1  -1 -11   31.66    4.96
   1   1  11   40.68    3.14
   1   1  11   43.17    5.89
  -2  -1 -11   36.21    4.36
   2   1  11   27.57    5.70
   2   1  11   38.24    3.46
   3   1  11  190.31   11.03
   3   1  11  174.47   14.46
   4   1  11   36.41    6.78
   4   1  11   32.63    4.97
   5   1  11   59.52    7.66
   5   1  11   61.03    6.42
   6   1  11   84.41    8.01
   6   1  11   93.29    9.95
   7   1  11    9.12    3.90
   7   1  11    8.37    3.52
   8   1  11   34.11    7.59
   8   1  11   33.99    6.41
   4  -2 -11   62.88   10.85
  -4   2  11   28.81    9.82
   3  -2 -11   18.46    5.64
  -3   2  11   16.43    7.13
   2  -2 -11   24.03    5.82
  -2   2  11   17.86    5.90
   1  -2 -11  174.17   13.92
  -1   2  11  158.88   13.60
   0  -2 -11   26.18    4.78
   0   2  11   35.78    5.81
  -1  -2 -11  128.20    9.66
   1   2  11  128.23   10.59
   2   2  11   93.34    5.06
   2   2  11   85.61    8.85
   3   2  11   -0.56    1.47
   3   2  11    1.44    1.26
   4   2  11   70.32    6.03
   4   2  11   70.30    7.98
   5   2  11  139.93   12.50
   5   2  11  154.85   10.10
   6   2  11    7.93    2.83
   6   2  11    9.73    4.03
   7   2  11   62.14    8.26
   7   2  11   53.61    6.31
   8   2  11   77.30    8.11
   8   2  11   70.22    9.60
   3  -3 -11   39.01    8.26
   2  -3 -11  125.78   12.22
  -2   3  11   99.57   12.47
   1  -3 -11    4.60    3.04
  -1   3  11    3.06    3.02
   0  -3 -11   69.74    7.61
   0   3  11   80.51    7.92
  -1  -3 -11  131.53   10.30
   1   3  11  148.67   11.04
   2   3  11   14.93    3.83
   3   3  11  117.76   10.55
   4   3  11  164.14   13.30
   5   3  11    9.52    2.71
   5   3  11    9.23    3.71
   6   3  11  149.47    9.95
   6   3  11  148.64   12.93
   7   3  11   93.98    8.01
   7   3  11   99.68   10.51
   8   3  11    1.89    2.41
   8   3  11    0.54    2.75
   9   3  11   46.09    7.52
   3  -4 -11   51.71   10.02
   2  -4 -11   17.32    5.90
   1  -4 -11   12.67    4.40
   0  -4 -11  140.52   11.97
   1   4  11   22.78    4.32
   2   4  11   57.67    6.10
   3   4  11  133.24   11.06
   4   4  11    7.98    3.14
   5   4  11   60.03    7.32
   6   4  11  110.39   10.60
   7   4  11   11.66    4.41
   8   4  11   46.85    8.69
   4   5  11   23.66    5.03
   5   5  11  116.56   10.50
   6   5  11    3.11    2.94
   7   5  11   58.21    7.73
   8   5  11   52.51    9.24
   7   6  11   53.29    7.50
   8   6  11    1.49    3.30
  -3  -7  12    6.02    7.27
  -2  -7  12   14.40    6.92
  -1  -7  12   42.07    9.19
   0  -7  12    4.70    4.11
   3   6 -12   17.46   14.60
  -3  -6  12   17.86    4.98
  -3  -6  12    8.51    7.21
   2   6 -12   40.60   17.85
  -2  -6  12   42.41   10.60
  -2  -6  12   52.91    7.91
   1   6 -12   27.20   17.97
  -1  -6  12    6.91    4.98
  -1  -6  12    8.65    4.00
   0   6 -12   21.04   15.26
   0  -6  12   34.18    7.80
   0  -6  12   32.03    6.52
  -1   6 -12   17.10   15.99
   1  -6  12   68.51    9.11
   1  -6  12   65.70    9.38
   2  -6  12    3.81    3.39
   2  -6  12    0.68    2.88
   3  -6  12   24.74    6.65
   3  -6  12   30.27    7.41
   4   5 -12   55.85   20.27
  -4  -5  12   31.67    6.02
  -4  -5  12   15.15   10.16
   3   5 -12  205.32   36.37
  -3  -5  12  135.77   10.69
  -3  -5  12   76.84   16.07
   2   5 -12    4.57    8.94
  -2  -5  12    2.24    5.40
  -2  -5  12    9.08    3.29
   1   5 -12   52.52   19.93
  -1  -5  12   75.07   12.41
  -1  -5  12   49.50    7.10
   0   5 -12   58.66   20.92
   0  -5  12  103.62   11.86
   0  -5  12  102.04    9.47
  -1   5 -12    8.79   12.40
   1  -5  12    4.97    3.66
   1  -5  12    6.60    3.46
   2  -5  12   42.31    8.24
   2  -5  12   36.21    7.00
   3  -5  12   77.31   10.31
   3  -5  12   73.31    9.14
   3  -5  12   71.99    9.85
   4  -5  12    3.40    3.60
   4  -5  12    1.03    3.44
  -5  -4  12   16.31    4.98
   4   4 -12  100.87   23.49
  -4  -4  12   19.00   10.01
  -4  -4  12   51.65    7.31
   3   4 -12   13.22   10.47
  -3  -4  12   10.56    3.41
  -3  -4  12   11.69    7.42
   2   4 -12   20.66   13.38
  -2  -4  12   33.59    9.43
  -2  -4  12   20.44    4.22
   1   4 -12   86.42   22.09
  -1  -4  12  113.85    9.03
  -1  -4  12  108.12   13.22
   0   4 -12   12.30   11.29
   0  -4  12   25.01    6.86
   0  -4  12   23.04    4.62
  -1   4 -12   31.49   15.59
   1  -4  12   38.38    7.92
   1  -4  12   48.43    7.32
   2  -4  12  119.87   12.41
   2  -4  12  114.43   10.28
   3  -4  12    0.82    2.76
   3  -4  12   -0.25    2.38
   3  -4  12    2.17    2.40
   4  -4  12   60.59    9.36
   4  -4  12   55.87    7.84
   4  -4  12   70.29    9.74
   5  -4  12   45.94    9.30
   5   3 -12   43.93    7.64
   4   3 -12   14.16    9.73
  -4  -3  12    8.21    3.51
  -4  -3  12    7.34    6.56
   3   3 -12   38.20   14.19
  -3  -3  12   32.88    5.04
  -3  -3  12   17.63    7.48
   2   3 -12  129.87   24.09
  -2  -3  12   86.17   12.44
  -2  -3  12   85.02    7.30
   1   3 -12   16.87   10.77
  -1  -3  12   19.91    6.58
  -1  -3  12   10.24    2.92
   0   3 -12   42.98   15.01
   0  -3  12   58.33    9.93
   0  -3  12   49.96    5.54
  -1   3 -12   60.76   18.35
   1  -3  12   86.08   10.20
   1  -3  12   86.55    7.80
  -2   3 -12    0.68    8.25
   2  -3  12    2.55    2.45
   2  -3  12    1.34    2.69
   3  -3  12   61.78    7.52
   3  -3  12   66.02    7.19
   3  -3  12   65.29    8.97
   4  -3  12   86.63    8.74
   4  -3  12   82.67    9.17
   4  -3  12   81.74   10.15
   5  -3  12    5.02    3.91
   5  -3  12    4.86    3.43
   6  -3  12   50.28    9.98
   5   2 -12   12.68    4.50
   4   2 -12   52.70   13.47
  -4  -2  12   27.65    5.43
  -4  -2  12   31.33   10.40
   3   2 -12  125.09   17.84
  -3  -2  12   58.27   12.09
  -3  -2  12   88.35    7.63
   2   2 -12   -0.54    4.79
  -2  -2  12    0.21    3.31
  -2  -2  12   -0.78    1.49
   1   2 -12   70.35   15.08
  -1  -2  12   68.24    9.20
  -1  -2  12   51.97    5.10
   0   2 -12  119.47   18.29
   0  -2  12  115.73    8.22
   0  -2  12  134.95   12.92
  -1   2 -12   22.39    9.59
   1  -2  12   15.56    4.92
   1  -2  12   16.79    3.59
  -2   2 -12   81.94   17.96
   2  -2  12   72.22    9.30
   2  -2  12   74.43    7.24
  -3   2 -12   89.80   19.35
   3  -2  12  110.27   11.80
   3  -2  12  132.04   10.27
   4  -2  12    1.18    1.88
   4  -2  12    0.71    2.53
   4  -2  12   -1.08    2.20
   5  -2  12   69.69    9.33
   5  -2  12   68.20    9.44
   6  -2  12   61.58   10.53
   6  -2  12   46.65    8.38
   4   1 -12   68.37    7.33
   4   1 -12   62.17   13.38
  -4  -1  12   45.31   12.09
   3   1 -12   13.54    7.04
  -3  -1  12   12.48    6.12
  -3  -1  12   11.36    3.45
   2   1 -12   49.72   10.85
  -2  -1  12   46.18    9.14
  -2  -1  12   42.27    4.87
   1   1 -12  197.70   19.39
  -1  -1  12  179.98   15.63
  -1  -1  12  167.02   10.21
   0   1 -12   12.67    6.30
   0  -1  12    8.97    4.11
   0  -1  12    8.40    2.13
  -1   1 -12  183.79   19.26
   1  -1  12  191.04   15.46
   1  -1  12  165.66   10.43
  -2   1 -12  136.04   16.99
   2  -1  12  136.66   13.18
   2  -1  12  154.97   10.15
  -3   1 -12    1.52    5.23
   3  -1  12    1.35    1.80
   3  -1  12   -1.09    1.92
   4  -1  12   68.78    8.69
   4  -1  12   58.25    6.95
   5  -1  12   97.13   10.70
   5  -1  12   90.55    9.19
   6  -1  12   -0.03    2.50
   6  -1  12   -2.01    2.55
   7  -1  12   43.99    8.05
   7  -1  12   56.69   11.26
   4   0 -12   13.61    6.36
  -4   0  12    9.22    7.24
   3   0 -12   57.34   10.81
  -3   0  12   41.66    9.90
   2   0 -12   99.23   12.19
  -2   0  12   79.68    6.77
  -2   0  12   86.36   10.89
   1   0 -12   11.64    4.92
  -1   0  12    5.34    3.30
  -1   0  12   11.74    2.54
   0   0 -12   49.92    8.63
   0   0  12   57.65    7.45
   0   0  12   52.18    4.37
  -1   0 -12  156.45   14.43
   1   0  12  161.14    9.21
   1   0  12  178.06   14.23
  -2   0 -12   46.64    7.91
   2   0  12   42.88    4.38
   2   0  12   35.22    7.02
   3   0  12   78.71    9.38
   3   0  12   86.74    7.15
   4   0  12  102.27    8.75
   4   0  12  108.72   11.03
   5   0  12    0.20    2.10
   5   0  12   -0.42    1.90
   6   0  12   74.70    8.18
   6   0  12   72.35    9.35
   7   0  12   63.79    8.89
   7   0  12   57.35    8.78
   4  -1 -12   18.16    6.62
  -4   1  12    7.12    6.57
   3  -1 -12   57.58    9.90
  -3   1  12   42.15   10.03
   2  -1 -12   25.66    6.59
  -2   1  12   15.55    5.45
   1  -1 -12   42.06    7.35
  -1   1  12   38.53    7.14
   0  -1 -12  168.65   13.43
   0   1  12  144.37    8.53
   0   1  12  163.41   13.20
  -1  -1 -12    5.50    2.79
   1   1  12    3.14    2.65
   1   1  12    5.31    1.46
   2   1  12   86.71    9.38
   2   1  12   84.03    5.61
   3   1  12   87.30    6.52
   3   1  12   77.67    9.00
   4   1  12    0.67    1.78
   4   1  12    1.67    2.34
   5   1  12   40.91    7.48
   5   1  12   36.47    5.79
   6   1  12   52.69    6.47
   6   1  12   56.02    8.03
   7   1  12    0.56    2.55
   7   1  12   -0.23    2.13
   8   1  12   63.14    9.09
   3  -2 -12    3.16    3.62
  -3   2  12    2.74    5.36
   2  -2 -12   77.72    9.76
  -2   2  12   80.48   10.86
   1  -2 -12  127.29   11.73
  -1   2  12  119.81   11.77
   0  -2 -12    3.47    2.50
   0   2  12    5.12    2.79
   1   2  12   97.57    9.19
   2   2  12  115.83   10.69
   3   2  12    8.64    3.63
   3   2  12   12.62    2.47
   4   2  12   78.56    8.88
   4   2  12   75.68    6.30
   5   2  12  130.60   12.21
   5   2  12  129.59    9.45
   6   2  12   -0.43    2.29
   6   2  12    2.73    2.45
   7   2  12   75.88    9.45
   7   2  12   65.89    7.51
   8   2  12   52.66    7.71
   3  -3 -12   25.21    7.48
   2  -3 -12   62.40    9.32
   1  -3 -12   17.94    5.04
  -1   3  12   10.82    4.54
   0   3  12   63.48    7.47
   1   3  12  166.21   12.73
   2   3  12   12.29    3.66
   3   3  12  111.71   10.56
   4   3  12   82.26    8.96
   5   3  12    3.59    2.82
   6   3  12   53.15    7.50
   7   3  12   61.65    8.54
   8   3  12    1.61    3.17
   1   4  12    0.77    1.98
   2   4  12   53.99    6.24
   3   4  12   59.34    6.98
   4   4  12    4.85    2.89
   5   4  12   89.77    9.43
   6   4  12   85.47    9.52
   7   4  12    2.08    2.58
   8   4  12   73.08    9.67
   4   5  12   55.49    6.98
   5   5  12   61.21    7.62
   6   5  12    0.39    2.32
   7   5  12   55.16    9.04
   8   5  12   38.98    8.00
  -1  -7  13   36.63    9.04
   0  -7  13    0.58    3.71
   2   6 -13   23.55   17.90
  -2  -6  13   35.95   10.45
   1   6 -13   -1.77   10.62
  -1  -6  13   -0.53    2.70
  -1  -6  13    0.70    4.46
   0   6 -13   19.44   18.27
   0  -6  13   50.54    9.82
   0  -6  13   58.58    8.39
  -1   6 -13    7.07   16.05
  -2   6 -13   -3.98   13.42
   2  -6  13    1.65    3.44
   3   5 -13   42.66   17.92
  -3  -5  13   34.99    6.26
  -3  -5  13   33.26   10.98
   2   5 -13    0.53    8.98
  -2  -5  13    3.03    4.42
  -2  -5  13   -0.08    2.27
   1   5 -13   36.81   18.11
  -1  -5  13   33.30    5.79
  -1  -5  13   47.81   10.30
   0   5 -13   39.69   18.92
   0  -5  13   52.99    7.69
   0  -5  13   62.70   10.95
  -1   5 -13    1.97   12.13
   1  -5  13    0.84    2.54
   1  -5  13    2.40    3.82
  -2   5 -13   15.95   16.25
   2  -5  13   48.84    9.01
   2  -5  13   42.29    7.39
   3  -5  13   42.68    8.01
   3  -5  13   48.47    9.44
   4   4 -13   41.95   17.22
  -4  -4  13   30.66    6.04
   3   4 -13    5.87   10.47
  -3  -4  13    0.57    2.14
  -3  -4  13    2.80    6.21
   2   4 -13   80.31   22.14
  -2  -4  13   51.74    6.34
  -2  -4  13   68.32   13.44
   1   4 -13  121.43   26.85
  -1  -4  13   89.02    8.04
  -1  -4  13  106.86   13.28
   0   4 -13    3.53   10.01
   0  -4  13    2.78    3.83
   0  -4  13    0.80    2.26
  -1   4 -13   73.82   22.16
   1  -4  13   70.87    7.74
   1  -4  13   68.64    9.53
  -2   4 -13   39.05   17.10
   2  -4  13   73.27    9.66
   2  -4  13   62.76    8.64
  -3   4 -13    2.37   11.01
   3  -4  13    0.23    2.60
   3  -4  13   -1.18    2.87
   4  -4  13   47.37    9.54
   4  -4  13   46.46    8.16
   4   3 -13    1.18    6.09
  -4  -3  13    8.76    3.72
   3   3 -13  132.00   24.13
  -3  -3  13   47.96   11.72
  -3  -3  13   58.19    6.57
   2   3 -13   79.59   19.56
  -2  -3  13   59.56   12.11
  -2  -3  13   59.57    6.27
   1   3 -13    0.93    7.12
  -1  -3  13   -1.09    1.47
  -1  -3  13   -0.84    3.02
   0   3 -13   47.74   15.65
   0  -3  13   50.99    5.65
   0  -3  13   52.52    9.39
  -1   3 -13   69.06   18.49
   1  -3  13  108.84   11.76
   1  -3  13   94.02    8.36
  -2   3 -13    6.45    8.46
   2  -3  13    2.00    3.01
   2  -3  13    1.93    2.31
  -3   3 -13   50.91   17.28
   3  -3  13   75.09    8.17
   3  -3  13   81.28   10.26
   4  -3  13   47.28    8.02
   4  -3  13   37.16    7.97
   5  -3  13    4.32    4.10
   5  -3  13   -1.15    3.15
   4   2 -13   21.58    9.70
  -4  -2  13   16.48    9.04
   3   2 -13   77.64   16.52
  -3  -2  13   54.19   11.97
  -3  -2  13   54.27    6.28
   2   2 -13   -1.13    5.37
  -2  -2  13   -0.39    1.52
  -2  -2  13    0.07    3.55
   1   2 -13   92.43   17.54
  -1  -2  13   69.79   10.07
  -1  -2  13   68.40    6.15
   0   2 -13  125.50   18.91
   0  -2  13  107.07    8.15
   0  -2  13  135.27   13.09
  -1   2 -13   -0.18    5.37
   1  -2  13    0.54    2.44
   1  -2  13    1.11    1.67
  -2   2 -13   77.20   17.21
   2  -2  13   84.19    7.87
   2  -2  13   97.89   10.96
   3  -2  13   67.31    7.34
   3  -2  13   65.56    9.24
   4  -2  13    2.92    3.20
   4  -2  13    1.82    2.65
   5  -2  13   58.55    8.87
   5  -2  13   65.11    9.23
   6  -2  13   24.05    6.27
   6  -2  13   30.32    8.04
   4   1 -13  104.38   17.17
  -4  -1  13   67.65   14.98
   3   1 -13   -0.73    4.48
  -3  -1  13    2.54    4.74
   2   1 -13   98.79   13.88
  -2  -1  13   69.13    6.53
  -2  -1  13   68.16   10.35
   1   1 -13   69.06   13.07
  -1  -1  13   75.35    9.69
  -1  -1  13   57.66    5.37
   0   1 -13   -1.86    3.48
   0  -1  13   -0.08    1.14
   0  -1  13    2.81    2.72
  -1   1 -13   82.22   13.69
   1  -1  13   82.18    9.52
   1  -1  13   64.73    5.67
   2  -1  13  102.69    8.00
   2  -1  13  100.80   11.00
   3  -1  13    0.01    1.91
   3  -1  13    1.57    2.24
   4  -1  13   93.50   10.90
   4  -1  13   96.54    9.00
   5  -1  13   84.78    9.02
   5  -1  13   87.99   10.55
   6  -1  13    4.46    3.65
   6  -1  13    0.87    3.02
   4   0 -13    3.48    5.26
  -4   0  13    5.93    6.93
   3   0 -13   41.38    9.22
  -3   0  13   18.89    7.46
   2   0 -13   63.84   11.09
  -2   0  13   35.97    8.13
   1   0 -13    1.94    3.71
  -1   0  13    0.13    2.79
  -1   0  13    0.15    1.61
   0   0 -13  112.92   12.00
   0   0  13   98.62    6.77
   0   0  13  111.82   11.07
  -1   0 -13  131.29   12.58
   1   0  13  116.77   11.53
   1   0  13  117.37    7.44
   2   0  13    6.88    3.71
   2   0  13    4.13    1.82
   3   0  13  153.74   14.33
   3   0  13  158.62   10.53
   4   0  13   47.29    8.72
   4   0  13   46.27    6.46
   5   0  13    2.53    2.62
   5   0  13    4.78    2.97
   6   0  13   60.96    8.66
   6   0  13   68.30    9.29
   7   0  13   48.39    8.28
  -4   1  13   10.72    7.65
   3  -1 -13   74.29   10.87
  -3   1  13   61.48   12.39
   2  -1 -13    2.92    3.37
  -2   1  13   -0.05    3.44
   1  -1 -13   90.65   10.39
  -1   1  13   94.59   10.43
   0  -1 -13   75.67    8.71
   0   1  13   70.02    8.40
   1   1  13    3.21    2.63
   2   1  13  115.21    7.08
   2   1  13  124.92   11.57
   3   1  13  125.27   12.46
   3   1  13  137.48    8.64
   4   1  13    0.30    1.93
   4   1  13   -0.41    1.96
   5   1  13  107.81    9.25
   5   1  13  107.08   11.37
   6   1  13   50.49    7.44
   6   1  13   61.19    8.41
   7   1  13    3.04    3.68
   7   1  13    1.29    2.70
   8   1  13   49.76    8.37
   3  -2 -13    3.05    3.99
  -3   2  13   -0.84    5.64
   2  -2 -13   44.69    8.40
  -2   2  13   36.73    8.60
   1  -2 -13   53.09    7.57
  -1   2  13   48.16    8.24
   0   2  13   10.83    3.94
   1   2  13  101.57    9.69
   2   2  13  140.54   12.22
   3   2  13    2.50    2.64
   4   2  13   83.60    9.64
   5   2  13   49.01    7.28
   6   2  13    2.03    2.60
   6   2  13    0.52    2.34
   7   2  13   52.91    9.39
   7   2  13   52.34    7.69
   8   2  13   36.78    7.08
   0   3  13  109.82   10.60
   1   3  13   61.09    7.15
   2   3  13    0.67    1.96
   3   3  13   92.93    9.65
   4   3  13   60.17    7.90
   5   3  13    0.53    2.12
   6   3  13   66.53    8.69
   7   3  13   60.27    8.77
   2   4  13   79.77    8.05
   3   4  13   91.46    9.08
   4   4  13    3.44    2.76
   5   4  13  101.96   10.60
   6   4  13   42.08    8.02
   7   4  13    0.82    3.10
   5   5  13   61.78    8.06
   6   5  13    0.10    2.67
   7   5  13   88.27   10.33
   8   5  13   44.65    9.38
   0   6 -14    3.21   15.44
  -1   6 -14   11.72   16.20
   2   5 -14    0.63   11.74
  -2  -5  14   -0.79    2.40
   1   5 -14   77.08   24.12
  -1  -5  14   51.78    7.46
  -1  -5  14   54.88   11.22
   0   5 -14   31.75   17.01
   0  -5  14   32.01    5.98
   0  -5  14   28.95    7.91
  -1   5 -14    0.20   12.53
   1  -5  14   -0.09    3.41
   1  -5  14    5.11    3.36
  -2   5 -14   16.26   15.75
   3   4 -14   -1.30   10.82
  -3  -4  14    2.17    2.74
   2   4 -14   48.52   17.94
  -2  -4  14   40.48    6.18
  -2  -4  14   39.44   11.04
   1   4 -14   45.52   17.65
  -1  -4  14   31.19    8.58
  -1  -4  14   33.83    5.57
   0   4 -14    4.36    9.87
   0  -4  14    1.73    3.67
   0  -4  14    2.29    2.47
  -1   4 -14   30.55   15.62
   1  -4  14   46.37    6.92
   1  -4  14   53.79    9.63
  -2   4 -14   17.50   13.49
   2  -4  14   55.21    9.89
   2  -4  14   43.61    7.21
   3  -4  14    5.64    4.25
   3  -4  14    1.12    2.61
  -4  -3  14   -0.80    2.95
   3   3 -14   58.39   16.93
  -3  -3  14   37.90    5.95
   2   3 -14   95.18   20.67
  -2  -3  14   50.60    5.99
  -2  -3  14   44.13   10.41
   1   3 -14    4.29    8.67
  -1  -3  14   -1.41    1.45
  -1  -3  14    0.85    3.29
   0   3 -14   59.49   17.14
   0  -3  14   80.50    7.28
   0  -3  14   93.17   11.58
  -1   3 -14   53.47   17.04
   1  -3  14   66.99    9.39
   1  -3  14   52.30    6.22
   2  -3  14    4.48    2.81
   2  -3  14    7.99    4.65
   3  -3  14   65.06    9.82
   3  -3  14   77.05    8.49
   4  -3  14   25.51    5.80
   4  -3  14   18.29    6.07
   3   2 -14   67.66   15.69
  -3  -2  14   56.80    6.77
  -3  -2  14   31.51    9.60
   2   2 -14    9.72    7.79
  -2  -2  14    1.90    2.09
  -2  -2  14   -0.31    3.59
   1   2 -14  121.61   20.30
  -1  -2  14   77.66    6.85
  -1  -2  14   79.37   11.09
   0   2 -14   41.21   12.39
   0  -2  14   40.54    8.33
   0  -2  14   43.58    4.92
  -1   2 -14   -1.87    5.87
   1  -2  14    2.12    1.82
   1  -2  14    1.02    2.99
   2  -2  14   53.33    9.52
   2  -2  14   62.16    6.64
   3  -2  14   59.92    8.05
   3  -2  14   59.85   10.43
   4  -2  14   -0.52    2.32
   4  -2  14    1.27    3.41
   5  -2  14   70.44   10.19
   5  -2  14   77.14    9.15
   3   1 -14    0.20    5.22
  -3  -1  14    5.67    5.66
   2   1 -14   41.70   10.62
  -2  -1  14   45.53    9.52
   1   1 -14   71.36   13.35
  -1  -1  14   67.12    9.60
  -1  -1  14   53.54    5.44
   0   1 -14   -1.14    4.29
   0  -1  14   -1.52    1.18
   0  -1  14   -0.60    2.44
   1  -1  14  110.31   11.25
   1  -1  14   80.45    6.60
   2  -1  14   63.04    8.87
   2  -1  14   64.95    6.17
   3  -1  14   16.04    3.96
   3  -1  14   19.44    6.04
   4  -1  14   76.36    7.97
   4  -1  14   74.66   10.09
   5  -1  14   35.32    6.72
   5  -1  14   27.92    7.09
   6  -1  14    8.45    4.26
   3   0 -14   75.34   12.97
  -3   0  14   46.09   10.97
   2   0 -14   70.34   12.12
  -2   0  14   54.46   10.59
   1   0 -14    7.03    4.68
  -1   0  14    3.50    3.25
   0   0  14   91.93   10.35
   1   0  14   38.91    4.01
   1   0  14   41.98    7.73
   2   0  14    2.30    2.73
   2   0  14    1.98    1.58
   3   0  14   72.61    9.41
   3   0  14   70.16    6.43
   4   0  14   50.04    9.73
   4   0  14   50.48    6.91
   5   0  14    7.73    4.54
   5   0  14    6.44    3.41
   6   0  14   68.87    8.41
   6   0  14   80.52   10.40
   7   0  14   25.85    6.54
   3  -1 -14   29.90    8.02
  -3   1  14   25.00    8.71
   2  -1 -14    1.11    3.45
  -2   1  14    3.45    4.38
  -1   1  14   39.67    7.86
   0   1  14   52.95    7.46
   1   1  14    5.31    3.21
   2   1  14  112.74   11.30
   3   1  14   37.97    7.69
   4   1  14   26.83    6.69
   5   1  14   93.38   10.95
   5   1  14   86.21    8.27
   6   1  14   21.37    6.50
   6   1  14   23.58    5.39
   7   1  14    7.24    4.07
  -2   2  14   49.51   10.27
  -1   2  14   51.17    8.95
   0   2  14    1.75    2.78
   1   2  14  119.50   11.12
   2   2  14   55.52    7.38
   3   2  14   22.76    6.06
   4   2  14   71.27    9.27
   5   2  14   39.59    7.90
   6   2  14   10.81    4.69
   7   2  14   79.74   10.29
   0   3  14   41.27    7.52
   1   3  14   40.47    6.87
   2   3  14   -0.48    2.22
   3   3  14  122.70   11.55
   4   3  14   39.59    7.70
   5   3  14   12.66    4.96
   6   3  14   66.83    9.06
   7   3  14   18.19    5.79
   3   4  14   21.12    5.17
   4   4  14    4.93    3.35
   5   4  14   51.43    7.77
   6   4  14   27.54    6.97
   7   4  14    3.21    3.68
   6   5  14   12.35    5.05
   7   5  14   61.01   10.24
   1   5 -15   53.63   21.01
   0   5 -15   19.37   15.68
  -1   5 -15   -2.43   10.99
   2   4 -15   21.77   14.35
  -2  -4  15   29.75    5.56
   1   4 -15   31.14   15.97
  -1  -4  15   14.24    3.80
   0   4 -15    6.04   10.51
   0  -4  15    6.50    3.27
   0  -4  15    8.64    5.31
   1  -4  15   64.05    7.53
   1  -4  15   71.94   10.33
   2  -4  15   13.62    5.66
   2  -4  15   13.78    4.67
   3   3 -15   68.07   17.86
  -3  -3  15   44.45    6.98
   2   3 -15   39.69   14.61
  -2  -3  15   19.62    4.26
   1   3 -15   13.29   10.56
  -1  -3  15    9.35    3.24
  -1  -3  15   17.97    7.43
   0   3 -15   63.97   17.48
   0  -3  15   66.15    6.68
   0  -3  15   57.33   10.77
   1  -3  15   12.25    5.62
   1  -3  15   11.96    3.61
   2  -3  15    6.08    3.40
   2  -3  15    6.75    4.49
   3  -3  15   54.28    8.05
   3  -3  15   53.70    9.85
   4  -3  15   15.99    5.13
   3   2 -15   18.62    9.55
   2   2 -15    3.38    6.78
  -2  -2  15    1.73    4.43
   1   2 -15   83.89   17.22
  -1  -2  15   77.59   11.11
  -1  -2  15   62.67    6.40
   0  -2  15   57.76   10.29
   0  -2  15   50.00    5.46
   1  -2  15   15.09    5.27
   1  -2  15   10.87    3.08
   2  -2  15  121.04    9.50
   2  -2  15  119.57   13.04
   3  -2  15   40.37    6.54
   3  -2  15   46.23    9.54
   4  -2  15   10.82    5.03
   4  -2  15    8.26    3.95
   5  -2  15   64.60    9.52
   3   1 -15   -0.18    4.97
   2   1 -15  102.12   16.26
  -2  -1  15   48.10   10.37
  -1  -1  15   57.03   10.27
   0  -1  15   10.28    4.69
   1  -1  15   66.31    5.96
   1  -1  15   82.05   10.08
   2  -1  15   46.46    8.68
   2  -1  15   37.22    5.06
   3  -1  15    4.63    3.84
   3  -1  15    3.19    2.49
   4  -1  15   59.78    7.23
   4  -1  15   50.80    9.90
   5  -1  15   40.70    8.76
   5  -1  15   35.79    6.75
   6  -1  15    8.85    4.53
  -2   0  15   14.54    6.57
  -1   0  15   12.29    5.37
   0   0  15   71.90    9.60
   1   0  15   28.29    6.54
   2   0  15    4.70    3.38
   3   0  15   84.96   10.74
   4   0  15   14.87    5.67
   4   0  15   17.87    4.26
   5   0  15   22.75    6.84
   5   0  15   15.24    4.60
   6   0  15   41.68    7.45
   7   0  15    0.67    3.92
  -2   1  15    0.82    4.59
  -1   1  15   84.79   10.84
   0   1  15   52.90    8.95
   1   1  15   35.32    7.17
   2   1  15   97.49   10.66
   3   1  15   28.14    7.00
   4   1  15   15.46    5.45
   5   1  15   81.93   10.50
   6   1  15    7.83    4.47
  -1   2  15   13.48    5.83
   0   2  15    4.53    3.52
   1   2  15   50.63    7.46
   2   2  15   57.06    7.69
   3   2  15   16.21    5.19
   4   2  15   95.00   11.21
   5   2  15   28.75    7.27
   6   2  15   27.54    7.09
   1   3  15   21.21    5.40
   2   3  15   22.70    5.34
   3   3  15   94.17   10.13
   4   3  15   20.15    6.01
   5   3  15   14.00    5.46
   6   3  15   52.77    9.82
   4   4  15   13.56    4.95
   5   4  15   57.73    8.42
   6   4  15    7.00    4.53
   1   4 -16   10.05   11.88
  -1  -4  16    6.15    2.96
   0  -4  16   14.41    4.18
   1  -4  16   42.70    6.68
   2   3 -16    2.52    8.77
  -2  -3  16    6.78    3.61
  -1  -3  16   10.68    3.64
   0  -3  16   44.99    6.12
   1  -3  16    6.39    3.07
   2  -3  16   28.93    5.41
   3  -3  16   57.02    8.22
   0  -2  16   10.58    3.29
   0  -2  16   14.94    6.14
   1  -2  16   33.26    7.95
   1  -2  16   27.59    4.62
   2  -2  16   57.44   10.29
   2  -2  16   59.90    6.60
   3  -2  16    4.94    3.14
   3  -2  16    3.05    4.40
   4  -2  16   11.75    4.07
   0  -1  16   16.29    6.25
   1  -1  16   70.49    9.81
   2  -1  16   14.13    5.80
   3  -1  16   35.97    8.64
   3  -1  16   34.19    5.56
   4  -1  16   71.17    7.81
   5  -1  16    6.62    3.91
  -1   0  16   15.83    5.99
   0   0  16  106.22   12.07
   1   0  16   12.90    5.22
   2   0  16   47.93    9.15
   3   0  16   77.50   10.47
   4   0  16    6.29    3.92
  -1   1  16   38.55    8.40
   0   1  16    7.01    4.27
   1   1  16   30.85    7.12
   2   1  16   60.42    8.43
   3   1  16   14.26    5.15
   4   1  16   30.70    7.95
   5   1  16   91.49   11.69
  -1   2  16   18.56    6.83
   0   2  16   21.80    6.26
   1   2  16   77.41    9.50
   2   2  16   18.65    5.46
   3   2  16   49.40    9.03
   4   2  16   48.44    9.32
   5   2  16    2.69    3.47
   2   3  16   12.55    4.50
   3   3  16   46.62    8.22
   4   3  16   13.87    5.16
   5   3  16   28.38    7.12
   5   4  16   49.58    9.37
   0  -3  17   48.76    6.98
   1  -3  17    2.33    2.91
   2  -3  17   20.41    4.94
   3  -2  17    0.37    2.65
   4  -2  17   31.11    6.37
   1   1  17   27.73    6.78
   2   1  17   78.88   10.10
   3   1  17    1.58    3.16
   1   2  17   36.91    7.72
   2   2  17    1.88    3.23
   3   2  17   30.42    7.26
   4   2  17   39.85    8.74
   3   3  17   63.92    8.71
   4   3  17    2.71    3.64
   0   0   0    0.00    0.00
;
_shelx_hkl_checksum              75372
_shelx_res_file
;
TITL scan_0m in P-1
CELL  0.71073   7.3623   7.6177  13.1413   89.762   76.405   66.691
ZERR 2 0.00100 0.00100 0.00170 0.0040 0.0040 0.0040
LATT 1
SFAC C  H  Cl N  O  Pb
UNIT 20  26  2  4  8  2
L.S. 10
SHEL 999 0.8
BOND $H
FMAP 2
PLAN 20
SIZE 0.100 0.100 0.300
ACTA 50
BIND Pb1 N1
EQIV_$1 -X+1, -Y, -Z+1
EQIV_$2 -X+2, -Y, -Z+1
HTAB N1 O2_$1
HTAB N1 O1_$2
HTAB N2 O1_$2
MPLA 6 C1 C2 C3 C4 C5 C6 N1 N2 Cl1 H1A H1B H2A H2B
DFIX 0.88 N1 H1A N1 H1B N2 H2A N2 H2B
DANG 1.43 H1A H1B H2A H2B
OMIT 0 0 1 'behind beamstop'
OMIT 4 7 1 'near edge of detector frame'
TEMP -73.000
WGHT    0.054000
EXTI    0.004238
FVAR       0.17541
PB1   6    0.671438    0.167922    0.531598    11.00000    0.01197    0.01718 =
         0.01883   -0.00168   -0.00369   -0.00311
CL1   3    0.202118    0.399188    1.094764    11.00000    0.03776    0.03732 =
         0.03003   -0.01005    0.00040   -0.00086
O1    5    0.813364    0.223990    0.350950    11.00000    0.01561    0.03667 =
         0.02264    0.00259   -0.00493   -0.00650
O2    5    0.475181    0.365714    0.392949    11.00000    0.01865    0.03532 =
         0.04258    0.00642   -0.00984   -0.00350
O3    5    0.679700   -0.107173    0.424160    11.00000    0.01317    0.02315 =
         0.03227   -0.00346   -0.00652   -0.00373
O4    5    0.966043   -0.149780    0.463881    11.00000    0.01653    0.02047 =
         0.03700   -0.00380   -0.01163   -0.00499
N1    4    0.701322   -0.078824    0.691246    11.00000    0.01918    0.02173 =
         0.01996   -0.00187   -0.00322   -0.00316
H1A   2    0.651842   -0.160175    0.674691    11.00000   -1.20000
H1B   2    0.826889   -0.145073    0.696079    11.00000   -1.20000
N2    4    0.870749    0.096135    0.807922    11.00000    0.02966    0.07363 =
         0.05868   -0.03090    0.00459   -0.02054
H2A   2    0.951358    0.030889    0.748557    11.00000   -1.20000
H2B   2    0.933440    0.138016    0.843837    11.00000   -1.20000
C1    1    0.583166    0.030701    0.790184    11.00000    0.02251    0.01540 =
         0.01916    0.00524   -0.00504   -0.00377
C2    1    0.673432    0.116491    0.845041    11.00000    0.02673    0.02025 =
         0.02398    0.00091   -0.00437   -0.01451
C3    1    0.551219    0.229633    0.940089    11.00000    0.02919    0.02310 =
         0.02911   -0.00098   -0.01062   -0.00864
AFIX  43
H3    2    0.607979    0.287803    0.980299    11.00000   -1.20000
AFIX   0
C4    1    0.350437    0.256260    0.974911    11.00000    0.02736    0.02043 =
         0.01731   -0.00544   -0.00054    0.00574
C5    1    0.258404    0.175561    0.920778    11.00000    0.02084    0.03482 =
         0.02734   -0.00430   -0.00126   -0.00791
AFIX  43
H5    2    0.118932    0.195952    0.945970    11.00000   -1.20000
AFIX   0
C6    1    0.379346    0.064083    0.828447    11.00000    0.03010    0.02779 =
         0.03175    0.00582   -0.01522   -0.01300
AFIX  43
H6    2    0.320185    0.007258    0.789032    11.00000   -1.20000
AFIX   0
C7    1    0.644215    0.329303    0.329085    11.00000    0.01570    0.02171 =
         0.02537   -0.00787   -0.00792    0.00031
C8    1    0.651895    0.405788    0.223502    11.00000    0.04612    0.03242 =
         0.04082    0.01639   -0.02172   -0.02189
AFIX 137
H8A   2    0.542007    0.398260    0.196165    11.00000   -1.50000
H8B   2    0.784322    0.329134    0.174796    11.00000   -1.50000
H8C   2    0.634375    0.539937    0.230569    11.00000   -1.50000
AFIX   0
C9    1    0.865182   -0.213750    0.419724    11.00000    0.00959    0.02058 =
         0.01691   -0.00380    0.00484   -0.00780
C10   1    0.961975   -0.410452    0.365554    11.00000    0.03598    0.03084 =
         0.04738   -0.01389   -0.01646   -0.00334
AFIX 137
H10A  2    0.940885   -0.500601    0.415572    11.00000   -1.50000
H10B  2    1.108882   -0.446118    0.337485    11.00000   -1.50000
H10C  2    0.900327   -0.415041    0.307693    11.00000   -1.50000
AFIX   0
HKLF 4
REM  scan_0m in P-1
REM R1 =  0.0375 for    2262 Fo > 4sig(Fo)  and  0.0442 for all    2572 data
REM    178 parameters refined using      6 restraints
END
WGHT      0.0540      0.0000
REM Highest difference peak  3.380,  deepest hole -3.080,  1-sigma level  0.328
Q1    1   0.5410  0.1895  0.5364  11.00000  0.05    3.38
Q2    1   0.7975  0.1536  0.5230  11.00000  0.05    3.37
Q3    1   0.6101  0.2782  0.4945  11.00000  0.05    2.21
Q4    1   0.6467  0.1220  0.6009  11.00000  0.05    1.81
Q5    1   0.7042  0.0899  0.5797  11.00000  0.05    1.78
Q6    1   0.7275  0.2033  0.4578  11.00000  0.05    1.63
Q7    1   0.0327  0.2055  1.0049  11.00000  0.05    1.35
Q8    1   0.5511  0.2015  0.3682  11.00000  0.05    1.34
Q9    1   0.4744  0.3412  0.5743  11.00000  0.05    1.32
Q10   1   0.7565  0.3062  0.4837  11.00000  0.05    1.31
Q11   1   0.6027  0.0146  0.5587  11.00000  0.05    1.21
Q12   1   0.5001  0.2203  0.4587  11.00000  0.05    1.18
Q13   1   0.6358  0.1190  0.4986  11.00000  0.05    1.13
Q14   1   0.4480  0.2654  0.4474  11.00000  0.05    1.08
Q15   1   0.5841 -0.1181  0.4381  11.00000  0.05    1.07
Q16   1   0.6350 -0.1621  0.4824  11.00000  0.05    1.01
Q17   1   0.7768  0.0563  0.3935  11.00000  0.05    0.98
Q18   1   0.6260  0.2703  0.4033  11.00000  0.05    0.97
Q19   1   0.5178  0.4526  0.4017  11.00000  0.05    0.93
Q20   1   0.8163  0.3076  0.3933  11.00000  0.05    0.93
;
_shelx_res_checksum              81929
#END Tags that were not found in dictionaries
loop_
_space_group_symop_operation_xyz
'x, y, z'
'-x, -y, -z'
loop_
_atom_site_type_symbol
_atom_site_label
_atom_site_fract_x
_atom_site_fract_y
_atom_site_fract_z
_atom_site_U_iso_or_equiv
_atom_site_adp_type
_atom_site_calc_flag
_atom_site_occupancy
Pb Pb1 0.67144(4) 0.16792(4) 0.53160(2) 0.01693(17) Uani d 1
Cl Cl1 0.2021(4) 0.3992(4) 1.0948(2) 0.0413(7) Uani d 1
O O1 0.8134(9) 0.2240(10) 0.3510(5) 0.0263(15) Uani d 1
O O2 0.4752(10) 0.3657(10) 0.3929(6) 0.0342(17) Uani d 1
O O3 0.6797(9) -0.1072(9) 0.4242(5) 0.0239(15) Uani d 1
O O4 0.9660(9) -0.1498(9) 0.4639(5) 0.0246(15) Uani d 1
N N1 0.7013(12) -0.0788(11) 0.6912(6) 0.0223(17) Uani d 1
H H1A 0.652(11) -0.160(9) 0.675(8) 0.027 Uiso d 1
H H1B 0.827(6) -0.145(10) 0.696(8) 0.027 Uiso d 1
N N2 0.8707(15) 0.0961(18) 0.8079(9) 0.057(3) Uani d 1
H H2A 0.951(13) 0.031(17) 0.749(5) 0.068 Uiso d 1
H H2B 0.933(14) 0.138(18) 0.844(8) 0.068 Uiso d 1
C C1 0.5832(14) 0.0307(12) 0.7902(7) 0.0204(19) Uani d 1
C C2 0.6734(14) 0.1165(13) 0.8450(7) 0.022(2) Uani d 1
C C3 0.5512(14) 0.2296(14) 0.9401(8) 0.027(2) Uani d 1
H H3 0.608 0.2878 0.9803 0.033 Uiso calc 1
C C4 0.3504(14) 0.2563(14) 0.9749(7) 0.028(2) Uani d 1
C C5 0.2584(14) 0.1756(15) 0.9208(8) 0.030(2) Uani d 1
H H5 0.1189 0.196 0.946 0.036 Uiso calc 1
C C6 0.3793(15) 0.0641(14) 0.8284(8) 0.028(2) Uani d 1
H H6 0.3202 0.0073 0.789 0.034 Uiso calc 1
C C7 0.6442(13) 0.3293(14) 0.3291(7) 0.023(2) Uani d 1
C C8 0.6519(17) 0.4058(15) 0.2235(8) 0.036(3) Uani d 1
H H8A 0.542 0.3983 0.1962 0.054 Uiso calc 1
H H8B 0.7843 0.3291 0.1748 0.054 Uiso calc 1
H H8C 0.6344 0.5399 0.2306 0.054 Uiso calc 1
C C9 0.8652(12) -0.2138(13) 0.4197(7) 0.0166(18) Uani d 1
C C10 0.9620(17) -0.4105(15) 0.3656(9) 0.040(3) Uani d 1
H H10A 0.9409 -0.5006 0.4156 0.06 Uiso calc 1
H H10B 1.1089 -0.4461 0.3375 0.06 Uiso calc 1
H H10C 0.9003 -0.415 0.3077 0.06 Uiso calc 1
loop_
_atom_site_aniso_label
_atom_site_aniso_U_11
_atom_site_aniso_U_22
_atom_site_aniso_U_33
_atom_site_aniso_U_12
_atom_site_aniso_U_13
_atom_site_aniso_U_23
Pb1 0.0120(2) 0.0172(2) 0.0188(2) -0.00311(14) -0.00369(13) -0.00168(14)
Cl1 0.0378(15) 0.0373(15) 0.0300(14) -0.0009(12) 0.0004(11) -0.0101(12)
O1 0.016(3) 0.037(4) 0.023(3) -0.006(3) -0.005(3) 0.003(3)
O2 0.019(3) 0.035(4) 0.043(4) -0.004(3) -0.010(3) 0.006(3)
O3 0.013(3) 0.023(4) 0.032(4) -0.004(3) -0.007(3) -0.003(3)
O4 0.017(3) 0.020(3) 0.037(4) -0.005(3) -0.012(3) -0.004(3)
N1 0.019(4) 0.022(4) 0.020(4) -0.003(3) -0.003(3) -0.002(3)
N2 0.030(5) 0.074(8) 0.059(7) -0.021(5) 0.005(5) -0.031(6)
C1 0.023(5) 0.015(5) 0.019(5) -0.004(4) -0.005(4) 0.005(4)
C2 0.027(5) 0.020(5) 0.024(5) -0.015(4) -0.004(4) 0.001(4)
C3 0.029(5) 0.023(5) 0.029(5) -0.009(4) -0.011(4) -0.001(4)
C4 0.027(5) 0.020(5) 0.017(5) 0.006(4) -0.001(4) -0.005(4)
C5 0.021(5) 0.035(6) 0.027(5) -0.008(4) -0.001(4) -0.004(5)
C6 0.030(5) 0.028(5) 0.032(5) -0.013(4) -0.015(4) 0.006(4)
C7 0.016(4) 0.022(5) 0.025(5) 0.000(4) -0.008(4) -0.008(4)
C8 0.046(6) 0.032(6) 0.041(6) -0.022(5) -0.022(5) 0.016(5)
C9 0.010(4) 0.021(5) 0.017(4) -0.008(3) 0.005(3) -0.004(4)
C10 0.036(6) 0.031(6) 0.047(7) -0.003(5) -0.016(5) -0.014(6)
loop_
_atom_type_symbol
_atom_type_description
_atom_type_scat_dispersion_real
_atom_type_scat_dispersion_imag
_atom_type_scat_source
C C 0.0033 0.0016 'International Tables Vol C Tables 4.2.6.8 and 6.1.1.4'
H H 0.0000 0.0000 'International Tables Vol C Tables 4.2.6.8 and 6.1.1.4'
Cl Cl 0.1484 0.1585 'International Tables Vol C Tables 4.2.6.8 and 6.1.1.4'
N N 0.0061 0.0033 'International Tables Vol C Tables 4.2.6.8 and 6.1.1.4'
O O 0.0106 0.0060 'International Tables Vol C Tables 4.2.6.8 and 6.1.1.4'
Pb Pb -3.3944 10.1111 'International Tables Vol C Tables 4.2.6.8 and 6.1.1.4'
loop_
_geom_angle_atom_site_label_1
_geom_angle_atom_site_label_2
_geom_angle_atom_site_label_3
_geom_angle_site_symmetry_1
_geom_angle_site_symmetry_3
_geom_angle
O1 Pb1 O3 . . 77.8(2)
O1 Pb1 O4 . . 77.8(2)
O3 Pb1 O4 . . 51.77(19)
O1 Pb1 O4 . 2_756 76.6(2)
O3 Pb1 O4 . 2_756 114.49(19)
O4 Pb1 O4 . 2_756 64.3(2)
O1 Pb1 O2 . . 50.8(2)
O3 Pb1 O2 . . 81.2(2)
O4 Pb1 O2 . . 117.4(2)
O4 Pb1 O2 2_756 . 121.3(2)
O1 Pb1 O3 . 2_656 119.4(2)
O3 Pb1 O3 . 2_656 64.1(2)
O4 Pb1 O3 . 2_656 107.7(2)
O4 Pb1 O3 2_756 2_656 161.4(2)
O2 Pb1 O3 . 2_656 77.2(2)
O1 Pb1 N1 . . 148.3(2)
O3 Pb1 N1 . . 84.2(2)
O4 Pb1 N1 . . 70.5(2)
O4 Pb1 N1 2_756 . 87.7(2)
O2 Pb1 N1 . . 150.8(2)
O3 Pb1 N1 2_656 . 73.7(2)
C7 O1 Pb1 . . 98.4(6)
C7 O2 Pb1 . . 89.4(5)
C9 O3 Pb1 . . 94.8(5)
C9 O3 Pb1 . 2_656 133.5(6)
Pb1 O3 Pb1 . 2_656 115.9(2)
C9 O4 Pb1 . . 94.4(5)
C9 O4 Pb1 . 2_756 146.7(5)
Pb1 O4 Pb1 . 2_756 115.7(2)
C1 N1 Pb1 . . 109.3(5)
C1 N1 H1A . . 111.(6)
Pb1 N1 H1A . . 105.(6)
C1 N1 H1B . . 108.(6)
Pb1 N1 H1B . . 114.(7)
H1A N1 H1B . . 108.(5)
C2 N2 H2A . . 124.(7)
C2 N2 H2B . . 123.(7)
H2A N2 H2B . . 112.(5)
C6 C1 C2 . . 119.8(8)
C6 C1 N1 . . 121.4(8)
C2 C1 N1 . . 118.7(8)
N2 C2 C1 . . 122.1(9)
N2 C2 C3 . . 120.4(8)
C1 C2 C3 . . 117.5(8)
C4 C3 C2 . . 120.2(9)
C4 C3 H3 . . 119.9
C2 C3 H3 . . 119.9
C3 C4 C5 . . 123.0(9)
C3 C4 Cl1 . . 118.9(8)
C5 C4 Cl1 . . 118.2(8)
C6 C5 C4 . . 116.4(9)
C6 C5 H5 . . 121.8
C4 C5 H5 . . 121.8
C5 C6 C1 . . 123.1(9)
C5 C6 H6 . . 118.4
C1 C6 H6 . . 118.4
O2 C7 O1 . . 121.5(9)
O2 C7 C8 . . 119.9(8)
O1 C7 C8 . . 118.6(9)
C7 C8 H8A . . 109.5
C7 C8 H8B . . 109.5
H8A C8 H8B . . 109.5
C7 C8 H8C . . 109.5
H8A C8 H8C . . 109.5
H8B C8 H8C . . 109.5
O3 C9 O4 . . 119.0(8)
O3 C9 C10 . . 120.6(8)
O4 C9 C10 . . 120.3(8)
C9 C10 H10A . . 109.5
C9 C10 H10B . . 109.5
H10A C10 H10B . . 109.5
C9 C10 H10C . . 109.5
H10A C10 H10C . . 109.5
H10B C10 H10C . . 109.5
loop_
_geom_bond_atom_site_label_1
_geom_bond_atom_site_label_2
_geom_bond_site_symmetry_2
_geom_bond_distance
_geom_bond_publ_flag
Pb1 O1 . 2.467(6) y
Pb1 O3 . 2.504(6) y
Pb1 O4 . 2.512(6) y
Pb1 O4 2_756 2.632(6) y
Pb1 O2 . 2.678(7) y
Pb1 O3 2_656 2.734(6) y
Pb1 N1 . 2.800(8) y
Cl1 C4 . 1.767(9) ?
O1 C7 . 1.286(10) ?
O2 C7 . 1.252(12) ?
O3 C9 . 1.270(10) ?
O3 Pb1 2_656 2.734(6) ?
O4 C9 . 1.272(10) ?
O4 Pb1 2_756 2.632(6) ?
N1 C1 . 1.430(11) ?
N1 H1A . 0.88(2) ?
N1 H1B . 0.88(2) ?
N2 C2 . 1.364(13) ?
N2 H2A . 0.87(2) ?
N2 H2B . 0.87(2) ?
C1 C6 . 1.383(13) ?
C1 C2 . 1.400(13) ?
C2 C3 . 1.407(13) ?
C3 C4 . 1.372(13) ?
C3 H3 . 0.95 ?
C4 C5 . 1.379(14) ?
C5 C6 . 1.374(13) ?
C5 H5 . 0.95 ?
C6 H6 . 0.95 ?
C7 C8 . 1.500(14) ?
C8 H8A . 0.98 ?
C8 H8B . 0.98 ?
C8 H8C . 0.98 ?
C9 C10 . 1.478(13) ?
C10 H10A . 0.98 ?
C10 H10B . 0.98 ?
C10 H10C . 0.98 ?
loop_
_geom_hbond_atom_site_label_D
_geom_hbond_atom_site_label_H
_geom_hbond_atom_site_label_A
_geom_hbond_site_symmetry_A
_geom_hbond_distance_DH
_geom_hbond_distance_HA
_geom_hbond_distance_DA
_geom_hbond_angle_DHA
_geom_hbond_publ_flag
N1 H1A O2 2_656 0.88(2) 2.38(3) 3.261(11) 172.(9) y
N1 H1B O1 2_756 0.88(2) 2.39(5) 3.201(10) 153.(8) y
N2 H2A O1 2_756 0.87(2) 2.19(6) 2.998(11) 155.(13) y
