#------------------------------------------------------------------------------
#$Date: 2016-02-21 11:56:54 +0200 (Sun, 21 Feb 2016) $
#$Revision: 176809 $
#$URL: svn://www.crystallography.net/cod/cif/2/24/02/2240240.cif $
#------------------------------------------------------------------------------
#
# This file is available in the Crystallography Open Database (COD),
# http://www.crystallography.net/. The original data for this entry
# were provided by IUCr Journals, http://journals.iucr.org/.
#
# The file may be used within the scientific community so long as
# proper attribution is given to the journal article from which the
# data were obtained.
#
data_2240240
loop_
_publ_author_name
'Geiger, David K.'
'Parsons, Dylan E.'
'Zick, Patricia L.'
_publ_section_title
;
 Crystal structures of three lead(II) acetate-bridged diaminobenzene
 coordination polymers
;
_journal_coeditor_code           ZL2608
_journal_issue                   12
_journal_name_full               'Acta Crystallographica Section E'
_journal_page_first              566
_journal_page_last               572
_journal_paper_doi               10.1107/S1600536814025380
_journal_volume                  70
_journal_year                    2014
_chemical_formula_iupac          '[Pb (C2 H3 O2)2 (C7 H7 N3)]'
_chemical_formula_moiety         'C11 H13 N3 O4 Pb'
_chemical_formula_sum            'C11 H13 N3 O4 Pb'
_chemical_formula_weight         458.43
_chemical_name_systematic
Poly[(acetato-\k^2^<i>O</i>,<i>O</i>')(\m~3~-acetato-\k^4^<i>O</i>,<i>O</i>':<i>O</i>:<i>O</i>')(3,4-diaminobenzonitrile-\k<i>N</i>)lead(II)]
_space_group_crystal_system      triclinic
_space_group_IT_number           2
_space_group_name_Hall           '-P 1'
_space_group_name_H-M_alt        'P -1'
_symmetry_space_group_name_Hall  '-P 1'
_symmetry_space_group_name_H-M   'P -1'
_atom_sites_solution_hydrogens   mixed
_atom_sites_solution_primary     direct
_atom_sites_solution_secondary   difmap
_cell_angle_alpha                88.839(3)
_cell_angle_beta                 78.330(3)
_cell_angle_gamma                66.035(3)
_cell_formula_units_Z            2
_cell_length_a                   7.3724(8)
_cell_length_b                   7.6349(8)
_cell_length_c                   13.4069(15)
_cell_measurement_reflns_used    117
_cell_measurement_temperature    200.(2)
_cell_measurement_theta_max      27.0489
_cell_measurement_theta_min      3.4349
_cell_volume                     673.71(13)
_computing_cell_refinement
;
APEX2 (Bruker, 2013)
;
_computing_data_collection
;
APEX2 (Bruker, 2013)
;
_computing_data_reduction
;
SAINT (Bruker, 2013)
;
_computing_molecular_graphics
;
PLATON (Spek, 2009), Mercury (Macrae <i>et al.</i>, 2006) and
ORTEP-3 for
Windows (Farrugia, 2012)
;
_computing_publication_material
;
publCIF (Westrip, 2010)
;
_computing_structure_refinement
;
SHELXL2014 (Sheldrick, 2008)
;
_computing_structure_solution
;
SHELXS97 (Sheldrick, 2008)
;
_diffrn_ambient_temperature      200.(2)
_diffrn_measured_fraction_theta_full 0.947
_diffrn_measured_fraction_theta_max 0.947
_diffrn_measurement_device_type  'Bruker SMART X2S benchtop'
_diffrn_measurement_method       '\w scans'
_diffrn_radiation_monochromator  'doubly curved silicon crystal'
_diffrn_radiation_type           'Mo Ka'
_diffrn_radiation_wavelength     0.71073
_diffrn_reflns_av_R_equivalents  0.0534
_diffrn_reflns_limit_h_max       9
_diffrn_reflns_limit_h_min       -9
_diffrn_reflns_limit_k_max       9
_diffrn_reflns_limit_k_min       -9
_diffrn_reflns_limit_l_max       17
_diffrn_reflns_limit_l_min       -17
_diffrn_reflns_number            8223
_diffrn_reflns_theta_full        27.10
_diffrn_reflns_theta_max         27.10
_diffrn_reflns_theta_min         2.93
_exptl_absorpt_coefficient_mu    12.535
_exptl_absorpt_correction_T_max  0.57
_exptl_absorpt_correction_T_min  0.12
_exptl_absorpt_correction_type   multi-scan
_exptl_absorpt_process_details
;
(SADABS; Bruker, 2013)
;
_exptl_crystal_colour            'clear colourless'
_exptl_crystal_density_diffrn    2.260
_exptl_crystal_density_method    'not measured'
_exptl_crystal_description       plate
_exptl_crystal_F_000             428
_exptl_crystal_size_max          0.300
_exptl_crystal_size_mid          0.200
_exptl_crystal_size_min          0.050
_refine_diff_density_max         3.410
_refine_diff_density_min         -2.684
_refine_ls_extinction_coef       0.0029(14)
_refine_ls_extinction_method
;
SHELXL2014 (Sheldrick, 2008)
;
_refine_ls_goodness_of_fit_ref   1.137
_refine_ls_hydrogen_treatment    mixed
_refine_ls_matrix_type           full
_refine_ls_number_parameters     187
_refine_ls_number_reflns         2819
_refine_ls_number_restraints     96
_refine_ls_restrained_S_all      1.121
_refine_ls_R_factor_all          0.0477
_refine_ls_R_factor_gt           0.0413
_refine_ls_shift/su_max          0.000
_refine_ls_shift/su_mean         0.000
_refine_ls_structure_factor_coef Fsqd
_refine_ls_weighting_details
'w=1/[\s^2^(Fo^2^)+(0.0965P)^2^] where P=(Fo^2^+2Fc^2^)/3'
_refine_ls_weighting_scheme      calc
_refine_ls_wR_factor_gt          0.1236
_refine_ls_wR_factor_ref         0.1451
_reflns_number_gt                2498
_reflns_number_total             2819
_reflns_threshold_expression     I>2\s(I)
_cod_data_source_file            zl2608sup1.cif
_cod_data_source_block           III
_cod_database_code               2240240
_cod_database_fobs_code          2240240
#BEGIN Tags that were not found in dictionaries:
_shelx_hkl_file
;
  -1   0   0  208.40   11.51
  -1   0   0  216.92   13.78
  -1   0   0  206.84   13.57
  -1   0   0  219.31   11.49
   1   0   0  200.01   13.66
   1   0   0  226.94   11.46
   1   0   0  210.79   13.56
   1   0   0  206.81   11.52
  -2   0   0  224.66   12.35
  -2   0   0  220.79   14.59
  -2   0   0  235.49   15.28
  -2   0   0  214.96   12.33
   2   0   0  208.29   14.89
   2   0   0  218.19   12.36
   2   0   0  241.12   12.19
   2   0   0  226.01   14.51
  -3   0   0  515.55   28.48
  -3   0   0  499.54   28.36
  -3   0   0  506.68   33.59
   3   0   0  524.16   28.46
   3   0   0  543.18   33.43
   3   0   0  484.68   33.76
   3   0   0  571.53   28.13
  -4   0   0   56.64    4.92
  -4   0   0   53.33    4.17
   4   0   0   65.89    3.65
   4   0   0   61.37    5.73
   4   0   0   56.27    4.09
  -5   0   0   95.93    8.41
   5   0   0  122.48    6.37
   5   0   0  104.53    9.32
   5   0   0  107.31    7.09
  -6   0   0  146.30   11.89
   6   0   0  165.86    9.94
   6   0   0  146.16   12.59
  -7   0   0    4.27    2.14
   7   0   0    2.86    2.21
   7   0   0    3.78    1.69
  -8   0   0   48.64    6.56
   8   0   0   45.57    6.62
   8  -1   0    1.71    2.59
   7  -1   0   69.19    7.60
  -7   1   0   58.46    6.70
   6  -1   0   54.83    6.21
   6  -1   0   50.89    4.56
  -6   1   0   50.45    5.37
   5  -1   0   16.90    2.36
   5  -1   0   22.75    3.50
  -5   1   0   17.34    2.59
   4  -1   0  206.31   15.05
   4  -1   0  201.62   11.22
   4  -1   0  209.87   12.16
   4  -1   0  211.87   11.21
  -4   1   0  207.53   14.26
   3  -1   0  231.26   12.72
   3  -1   0  212.01   11.98
   3  -1   0  227.44   11.98
   3  -1   0  239.86   14.70
   3  -1   0  210.22   15.38
  -3   1   0  216.68   14.81
  -3   1   0  223.40   12.50
   2  -1   0   44.20    3.81
   2  -1   0   45.38    3.22
   2  -1   0   47.18    2.98
  -2   1   0   40.13    2.75
  -2   1   0   43.27    3.91
  -2   1   0   42.09    3.25
   1  -1   0  435.76   28.54
   1  -1   0  452.83   28.73
   1  -1   0  452.07   24.63
  -1   1   0  467.59   28.71
  -1   1   0  453.38   28.61
  -1   1   0  457.48   24.43
   0  -1   0  320.64   16.34
   0  -1   0  286.37   16.26
   0   1   0  285.55   18.90
   0   1   0  331.42   16.31
   0   1   0  287.06   16.30
  -1  -1   0   92.58    5.41
  -1  -1   0   88.34    5.37
  -1  -1   0   93.52    6.46
   1   1   0   81.76    5.31
   1   1   0  106.52    6.47
   1   1   0  101.07    5.40
  -2  -1   0  540.34   39.07
  -2  -1   0  618.34   33.12
  -2  -1   0  625.83   33.04
   2   1   0  597.05   39.08
   2   1   0  706.52   33.06
   2   1   0  570.08   32.94
  -3  -1   0  144.53    8.60
  -3  -1   0  139.96   10.09
  -3  -1   0  141.50    8.44
   3   1   0  138.54    8.41
   3   1   0  115.33   10.41
   3   1   0  164.40    8.38
   3   1   0  158.32    9.97
  -4  -1   0   57.45    4.36
  -4  -1   0   64.06    5.16
   4   1   0   53.74    5.52
   4   1   0   57.35    4.09
  -5  -1   0  251.01   15.49
  -5  -1   0  249.65   18.21
   5   1   0  271.27   18.99
   5   1   0  270.89   15.24
  -6  -1   0   12.67    2.52
  -6  -1   0   12.26    2.80
   6   1   0   17.09    2.29
   6   1   0   14.47    3.37
  -7  -1   0   68.03    7.25
   7   1   0   72.53    5.74
   7   1   0   67.13    7.69
  -8  -1   0   76.54    8.97
   8   1   0   89.31    9.62
   8   1   0   98.22    7.29
  -9  -1   0    1.26    2.54
   7  -2   0   48.98    6.55
   6  -2   0    6.45    2.52
  -6   2   0    4.22    1.95
   5  -2   0  107.07    7.72
   5  -2   0  107.46    9.43
  -5   2   0  112.27    8.62
   4  -2   0   66.05    5.06
   4  -2   0   66.28    6.18
  -4   2   0   64.46    5.30
   3  -2   0   29.84    2.69
   3  -2   0   30.49    3.37
   3  -2   0   30.47    2.93
  -3   2   0   28.59    2.31
  -3   2   0   31.01    2.70
   2  -2   0  213.47   14.17
   2  -2   0  244.69   16.52
   2  -2   0  254.57   16.35
  -2   2   0  261.14   13.77
  -2   2   0  263.59   16.15
   1  -2   0   93.40    5.71
   1  -2   0   88.74    6.70
  -1   2   0  104.90    5.33
  -1   2   0   91.45    5.24
  -1   2   0  100.50    6.86
  -1   2   0   95.58    5.96
  -1   2   0  101.60    6.60
   0  -2   0  105.33    8.07
   0  -2   0  113.66    6.77
   0  -2   0  114.43    6.63
   0   2   0  132.47    6.71
   0   2   0  116.63    7.78
   0   2   0  119.78    6.83
  -1  -2   0  383.94   21.61
   1   2   0  431.64   21.60
   1   2   0  402.65   21.47
   1   2   0  353.55   21.58
   1   2   0  397.64   25.70
  -2  -2   0   17.61    2.22
  -2  -2   0   17.23    1.69
  -2  -2   0   16.56    1.68
   2   2   0   19.89    2.06
   2   2   0   11.76    1.40
  -3  -2   0   78.37    6.18
  -3  -2   0   82.82    5.26
   3   2   0   74.42    4.88
   3   2   0   68.90    6.63
  -4  -2   0  171.85   10.66
  -4  -2   0  174.10   12.60
   4   2   0  173.07   13.25
   4   2   0  173.99   10.30
  -5  -2   0   14.66    2.49
  -5  -2   0   15.82    2.92
   5   2   0   15.90    3.33
   5   2   0   16.91    2.07
  -6  -2   0   94.91    8.60
  -6  -2   0   88.53    7.24
   6   2   0  105.70    6.95
   6   2   0   98.78    9.16
  -7  -2   0   93.90    9.03
  -7  -2   0   71.65    6.97
   7   2   0   93.02    9.27
   7   2   0  113.82    7.25
  -8  -2   0    5.06    2.61
   8   2   0    5.17    2.05
   8   2   0    3.40    2.72
  -9  -2   0   28.34    6.39
   9   2   0   48.58    5.15
   7  -3   0    2.76    2.61
   6  -3   0   90.77    8.89
   5  -3   0  112.66    9.69
  -5   3   0  109.41    8.70
   4  -3   0   11.10    2.07
   4  -3   0    9.34    2.42
  -4   3   0   10.86    1.92
   3  -3   0  233.96   13.78
   3  -3   0  231.14   16.43
  -3   3   0  244.64   13.37
  -3   3   0  234.97   15.70
   2  -3   0  118.49    7.27
   2  -3   0  118.66    8.87
  -2   3   0  124.11    8.30
  -2   3   0  124.68    7.25
   1  -3   0   36.96    3.49
   1  -3   0   37.85    2.65
  -1   3   0   40.95    3.35
  -1   3   0   36.42    2.24
  -1   3   0   40.37    3.49
  -1   3   0   35.07    3.54
  -1   3   0   42.47    2.42
   0  -3   0  507.76   28.58
   0  -3   0  469.90   28.82
   0   3   0  518.23   33.24
   0   3   0  537.96   29.05
   0   3   0  602.29   28.70
  -1  -3   0    5.21    1.11
   1   3   0    5.96    0.95
   1   3   0    4.45    1.43
   1   3   0    5.35    1.04
   1   3   0    4.68    1.09
  -2  -3   0  141.94    9.46
  -2  -3   0  160.95    9.46
   2   3   0  166.18    9.36
  -3  -3   0  249.04   17.81
  -3  -3   0  264.42   14.89
   3   3   0  247.39   14.52
  -4  -3   0   38.88    3.64
  -4  -3   0   40.21    4.39
   4   3   0   40.10    3.21
   4   3   0   39.70    4.93
  -5  -3   0   53.18    4.75
  -5  -3   0   55.70    5.73
   5   3   0   53.41    6.14
   5   3   0   58.35    4.33
  -6  -3   0  175.31   13.78
  -6  -3   0  153.81   11.32
   6   3   0  173.67   14.11
   6   3   0  180.94   10.94
  -7  -3   0    0.15    1.45
  -7  -3   0    0.67    1.58
   7   3   0   -0.87    0.89
   7   3   0    0.26    1.58
  -8  -3   0   35.66    4.99
  -8  -3   0   38.71    6.09
   8   3   0   56.99    5.10
   8   3   0   55.91    6.91
  -9  -3   0   35.54    7.28
   9   3   0   48.28    7.07
   9   3   0   47.17    5.25
   6  -4   0   50.96    6.47
   5  -4   0    0.19    1.65
   4  -4   0   75.47    7.13
   3  -4   0  123.17    7.59
   3  -4   0  133.61   10.05
  -3   4   0  125.29    8.87
   2  -4   0   41.44    3.03
   2  -4   0   43.68    4.35
  -2   4   0   43.94    3.47
  -2   4   0   42.93    3.32
   1  -4   0  248.38   16.35
   1  -4   0  227.51   13.09
  -1   4   0  212.03   14.30
  -1   4   0  220.07   12.66
  -1   4   0  226.94   15.80
  -1   4   0  261.85   12.88
   0  -4   0  126.66    9.25
   0  -4   0  143.70    8.95
   0   4   0  180.02    9.10
   0   4   0  167.68    9.89
   0   4   0  158.68   10.58
  -1  -4   0   70.35    5.25
   1   4   0   80.33    5.99
   1   4   0   76.09    5.38
   1   4   0   76.23    6.56
  -2  -4   0  165.93   12.59
  -3  -4   0   75.43    5.36
  -3  -4   0   54.70    6.22
   3   4   0   77.84    5.09
  -4  -4   0   93.32    8.63
  -4  -4   0  105.67    7.20
   4   4   0  108.02    6.75
   4   4   0   87.85    8.89
  -5  -4   0  243.73   15.06
  -5  -4   0  229.38   17.98
   5   4   0  251.12   18.75
   5   4   0  240.68   14.39
  -6  -4   0   11.71    3.23
  -6  -4   0   14.67    2.95
   6   4   0   19.04    4.16
   6   4   0   13.01    2.23
  -7  -4   0   47.64    5.23
  -7  -4   0   41.79    6.01
   7   4   0   51.07    6.55
   7   4   0   52.52    4.65
  -8  -4   0   71.62    8.71
  -8  -4   0   59.27    6.76
   8   4   0   85.40    9.09
   8   4   0   88.98    6.78
  -9  -4   0    1.85    2.62
   9   4   0   -0.33    1.77
   9   4   0    0.73    2.48
   5  -5   0   65.15    7.42
   4  -5   0   44.84    5.57
   3  -5   0   11.41    2.92
   2  -5   0  132.43   10.68
   2  -5   0  129.14    7.79
  -2   5   0  130.59    9.03
   1  -5   0   51.79    3.73
   1  -5   0   49.36    5.67
  -1   5   0   63.06    4.81
  -1   5   0   51.51    3.23
   0  -5   0   42.78    3.66
   0   5   0   34.77    4.30
  -3  -5   0   14.54    3.28
  -4  -5   0  164.40   11.26
   4   5   0  181.57   10.93
  -5  -5   0   50.08    6.38
  -5  -5   0   59.78    5.43
   5   5   0   62.24    4.81
   5   5   0   64.91    7.29
  -6  -5   0   31.45    5.21
  -6  -5   0   41.41    4.57
   6   5   0   45.21    4.05
   6   5   0   44.45    6.15
  -7  -5   0   57.96    7.66
  -7  -5   0   56.59    6.12
   7   5   0   80.40    8.56
   7   5   0   73.43    5.83
  -8  -5   0    2.71    2.28
  -8  -5   0    4.69    2.93
   8   5   0    3.68    1.77
   8   5   0    4.10    2.62
  -9  -5   0   12.24    3.87
  -9  -5   0   20.56    5.58
   9   5   0   24.44    4.03
   9   5   0   31.63    6.28
   3  -6   0  117.10   10.89
   2  -6   0   43.84    5.92
  -1   6   0   -0.57    0.97
   0   6   0  139.52   10.41
   0   6   0  141.64    9.59
  -1  -6   0   28.47    3.47
  -2  -6   0   29.70    3.53
  -3  -6   0   42.88    5.58
  -4  -6   0    7.64    2.82
  -4  -6   0   19.32    3.17
   4   6   0    2.61    1.72
  -5  -6   0   32.24    3.99
  -5  -6   0   19.14    4.50
   5   6   0   33.57    5.97
   5   6   0   35.14    3.43
  -6  -6   0   80.57    9.52
  -6  -6   0   90.33    7.91
   6   6   0  120.73   11.08
   6   6   0  100.05    7.25
  -7  -6   0    3.05    2.52
  -7  -6   0    2.36    1.89
   7   6   0    3.78    1.68
   7   6   0    4.05    2.69
  -8  -6   0   17.76    3.98
  -8  -6   0   14.27    4.67
   8   6   0   22.79    5.27
   8   6   0   27.17    3.72
  -9  -6   0   18.69    4.52
   9   6   0   33.85    6.72
  -3  -7   0   31.28    4.03
  -4  -7   0   41.77    4.85
   4   7   0   57.56    4.86
  -5  -7   0   75.14    7.16
   5   7   0   92.80    6.82
  -6  -7   0    3.67    2.77
  -6  -7   0    7.48    2.63
   6   7   0   11.22    3.95
   6   7   0   10.69    2.30
  -7  -7   0   22.85    4.39
   7   7   0   31.34    6.46
   7   7   0   29.50    3.67
  -8  -7   0   39.87    5.89
   8   7   0   62.43    8.35
   8   7   0   54.09    5.51
   9   7   0    1.82    3.19
   1   8   0   83.64    5.55
   1   8   0   90.50    7.03
  -2  -8   0   13.47    3.11
  -3  -8   0   20.82    3.90
   3   8   0   31.51    3.62
  -4  -8   0   64.84    6.44
  -5  -8   0   12.17    3.17
  -5  -8   0    7.53    3.67
   5   8   0   16.25    4.52
   5   8   0   18.34    3.13
  -6  -8   0    8.24    4.09
  -6  -8   0   20.18    4.16
   6   8   0   34.01    3.84
   6   8   0   37.95    6.96
  -7  -8   0   28.69    5.24
   7   8   0   39.22    4.44
   8   8   0    6.25    4.21
   3   9   0   70.91    6.42
  -4  -9   0    1.93    2.82
  -4  -9   0    3.96    2.51
   4   9   0    7.60    2.46
  -5  -9   0   13.78    3.61
   5   9   0   19.26    3.47
  -6  -9   0    9.87    4.43
  -6  -9   0   24.31    4.61
  -7  -9   0    1.07    3.12
   4  10   0   20.61    3.89
   5  10   0   34.78    4.79
   4  10  -1    8.46    2.95
  -4 -10   1    3.43    2.69
   3  10  -1   21.69    4.31
  -7  -9   1    4.73    3.75
  -6  -9   1   28.86    5.13
   5   9  -1    7.02    2.50
  -5  -9   1    3.37    2.44
  -5  -9   1    0.43    2.54
   4   9  -1   17.53    3.49
  -4  -9   1    9.78    3.14
  -3  -9   1   37.55    4.93
   2   9  -1    3.60    2.15
   8   8  -1   10.76    5.23
   7   8  -1   50.35    9.17
   7   8  -1   37.76    4.62
   6   8  -1   27.59    3.69
   6   8  -1   29.66    7.21
  -6  -8   1   20.15    4.09
   5   8  -1   23.23    3.56
   5   8  -1    4.27    2.73
  -5  -8   1    6.65    3.23
  -5  -8   1   12.85    3.11
   4   8  -1   92.40    7.17
  -4  -8   1   70.09    6.99
   3   8  -1   20.47    3.40
  -3  -8   1   12.25    3.00
  -2  -8   1   26.06    4.09
  -1  -8   1   45.57    4.92
   8   7  -1   48.11    5.13
   8   7  -1   54.15    9.32
  -8  -7   1   33.42    7.29
  -8  -7   1   38.04    5.46
   7   7  -1   24.36    3.71
   7   7  -1   23.06    6.14
  -7  -7   1   11.62    4.32
  -7  -7   1   19.87    4.06
   6   7  -1    5.87    1.92
   6   7  -1    4.02    3.29
  -6  -7   1    2.99    1.98
  -6  -7   1    3.73    2.80
   5   7  -1   65.74    5.56
  -5  -7   1   52.80    5.64
  -4  -7   1   15.71    4.10
  -3  -7   1   41.71    4.50
   1   7  -1   14.18    2.91
  -1  -7   1   12.42    2.66
  -1   7  -1    1.19    1.84
  -2   7  -1   -0.28    1.80
  -9  -6   1   17.56    4.36
   8   6  -1   16.55    3.28
   8   6  -1   14.61    5.18
  -8  -6   1   11.45    4.27
  -8  -6   1   10.97    3.32
   7   6  -1   15.24    2.84
   7   6  -1   18.62    5.20
  -7  -6   1   10.99    3.05
  -7  -6   1   13.22    4.22
   6   6  -1   74.53    9.13
   6   6  -1   79.78    6.03
  -6  -6   1   52.56    7.36
  -6  -6   1   74.49    6.56
   5   6  -1   12.33    2.34
   5   6  -1   12.63    3.95
  -5  -6   1    8.91    2.41
  -5  -6   1    6.46    2.77
  -4  -6   1   18.62    4.08
  -3  -6   1   53.28    6.17
   2   6  -1   12.36    2.45
  -2  -6   1    2.52    1.85
  -2  -6   1   10.30    2.17
   0   6  -1  149.38    9.66
   0  -6   1  107.16    8.44
   1  -6   1   10.20    1.67
   2  -6   1   47.66    6.32
   3  -6   1  115.55   10.98
   4  -6   1    9.81    3.65
   9   5  -1   12.32    4.38
   9   5  -1   18.55    3.70
  -9  -5   1   10.10    3.54
   8   5  -1   18.52    3.36
   8   5  -1   14.87    4.39
  -8  -5   1   15.95    3.63
  -8  -5   1   12.19    4.08
   7   5  -1   63.61    8.35
   7   5  -1   69.98    5.71
  -7  -5   1   56.65    5.93
  -7  -5   1   64.79    7.83
   6   5  -1   34.41    3.49
   6   5  -1   32.19    6.24
  -6  -5   1   29.32    3.75
  -6  -5   1   27.71    4.60
   5   5  -1   32.62    6.37
   5   5  -1   42.30    3.83
  -5  -5   1   36.38    5.06
  -5  -5   1   45.10    4.35
   4   5  -1  186.80   10.74
  -4  -5   1  166.19   10.64
  -4  -5   1  134.93   12.69
   3   5  -1   22.51    2.68
  -3  -5   1   15.13    3.32
  -3  -5   1   20.46    2.56
  -2  -5   1   60.78    6.09
   1   5  -1  137.15    9.68
  -1  -5   1  151.83    9.25
   0   5  -1   20.31    2.68
   0  -5   1   15.82    2.23
   0  -5   1   18.12    1.95
  -1   5  -1   86.56    5.60
   1  -5   1   56.64    5.05
   1  -5   1   81.77    5.12
   2  -5   1  158.50   11.86
   2  -5   1  133.15    8.57
   3  -5   1    0.61    1.54
   4  -5   1   61.13    6.79
   5  -5   1   67.86    7.65
   6  -5   1   -0.43    2.06
   9   4  -1    4.54    2.46
  -9  -4   1    3.91    3.06
  -9  -4   1    4.35    2.64
   8   4  -1   84.24    9.27
   8   4  -1   75.61    6.42
  -8  -4   1   61.58    6.61
  -8  -4   1   62.90    8.20
   7   4  -1   22.65    5.15
   7   4  -1   31.95    3.49
  -7  -4   1   29.83    4.74
  -7  -4   1   26.51    4.10
   6   4  -1   35.69    6.39
   6   4  -1   39.89    3.64
  -6  -4   1   30.45    4.60
  -6  -4   1   33.46    4.00
   5   4  -1  171.24   15.72
   5   4  -1  185.24   11.82
  -5  -4   1  211.59   12.44
  -5  -4   1  198.63   14.92
   4   4  -1   70.10    5.07
  -4  -4   1   60.87    6.25
  -4  -4   1   69.69    5.20
   3   4  -1  122.05    8.01
  -3  -4   1  131.94    8.03
  -3  -4   1  114.27    9.74
  -2  -4   1  139.61   10.74
   1   4  -1   21.91    2.78
   1   4  -1   23.40    2.62
  -1  -4   1   19.61    2.15
   0   4  -1  176.93   12.98
   0  -4   1  193.34   10.95
   0  -4   1  196.51   11.10
  -1   4  -1  274.36   16.86
  -1   4  -1  277.05   14.14
   1  -4   1  259.10   18.06
   1  -4   1  252.12   14.59
   1  -4   1  224.96   14.53
  -2   4  -1   36.56    2.87
   2  -4   1   35.54    2.93
   2  -4   1   43.36    4.34
  -3   4  -1  153.65   10.12
   3  -4   1  134.23    8.97
   3  -4   1  158.89   11.52
   4  -4   1  120.96   10.07
   5  -4   1    0.50    1.67
   6  -4   1   52.39    6.56
   9   3  -1   51.07    5.55
  -9  -3   1   40.49    6.80
   8   3  -1   25.70    5.45
   8   3  -1   28.36    3.71
  -8  -3   1   21.23    4.75
  -8  -3   1   18.20    3.76
   7   3  -1    7.29    2.95
   7   3  -1    8.28    2.07
  -7  -3   1    4.66    2.02
  -7  -3   1    6.42    2.62
   6   3  -1  129.33   12.70
   6   3  -1  163.22    9.84
  -6  -3   1  147.81   10.12
  -6  -3   1  148.69   12.11
   5   3  -1   38.03    3.21
   5   3  -1   25.09    4.84
  -5  -3   1   34.58    3.42
  -5  -3   1   28.37    3.81
   4   3  -1   31.94    4.80
   4   3  -1   38.19    3.21
  -4  -3   1   36.77    3.29
  -4  -3   1   41.09    4.14
   3   3  -1  317.34   18.66
  -3  -3   1  336.00   22.28
  -3  -3   1  332.38   18.66
   2   3  -1   67.24    4.84
  -2  -3   1   70.29    4.62
  -2  -3   1   68.83    5.73
   1   3  -1  144.31    8.90
   1   3  -1  139.00    7.42
   1   3  -1  114.43    7.36
  -1  -3   1  118.07    7.41
  -1  -3   1  112.67    7.37
   0   3  -1  372.32   23.67
   0   3  -1  377.71   20.83
   0   3  -1  423.37   20.06
   0   3  -1  305.60   23.75
   0  -3   1  362.81   20.16
   0  -3   1  359.93   20.22
  -1   3  -1   37.64    2.78
  -1   3  -1   26.39    3.72
  -1   3  -1   41.62    3.50
   1  -3   1   37.92    2.80
   1  -3   1   35.33    3.59
   1  -3   1   39.07    2.62
  -2   3  -1  143.50    9.27
  -2   3  -1  138.97    8.55
   2  -3   1  141.18   10.16
   2  -3   1  137.21    8.61
  -3   3  -1  215.96   13.25
   3  -3   1  196.97   12.14
   3  -3   1  172.84   13.42
   3  -3   1  206.63   14.15
  -4   3  -1    4.54    1.33
   4  -3   1    5.07    1.87
   4  -3   1    4.88    1.79
   5  -3   1   82.64    7.78
   6  -3   1   52.42    6.31
   7  -3   1    0.73    2.22
  -9  -2   1   20.19    5.25
   8   2  -1   13.29    2.90
   8   2  -1    9.87    3.70
  -8  -2   1   11.56    3.56
   7   2  -1  103.43   10.10
   7   2  -1  111.90    7.50
  -7  -2   1   84.41    7.43
  -7  -2   1   93.91    9.09
   6   2  -1   48.33    6.14
   6   2  -1   52.83    4.32
  -6  -2   1   46.80    4.55
  -6  -2   1   49.24    5.35
   5   2  -1   48.98    3.82
   5   2  -1   38.88    5.37
  -5  -2   1   47.19    4.74
  -5  -2   1   47.48    4.04
   4   2  -1  177.40   10.62
   4   2  -1  164.11   13.89
  -4  -2   1  190.88   12.89
  -4  -2   1  178.77   10.76
   3   2  -1   14.24    1.53
   3   2  -1   10.48    2.64
  -3  -2   1   11.70    1.79
  -3  -2   1   13.65    1.62
   2   2  -1  186.66   10.86
  -2  -2   1  194.11   10.69
  -2  -2   1  199.86   12.75
  -2  -2   1  168.55   10.92
   1   2  -1   92.15    5.83
  -1  -2   1   78.89    5.91
  -1  -2   1   78.64    4.95
  -1  -2   1   78.05    4.88
   0   2  -1    1.71    0.84
   0   2  -1    1.78    0.44
   0   2  -1    1.48    0.59
   0   2  -1    1.32    0.75
   0  -2   1    1.68    0.48
   0  -2   1    1.54    0.58
  -1   2  -1  164.75   11.31
  -1   2  -1  194.52   12.75
  -1   2  -1  200.95   10.38
  -1   2  -1  197.34   12.23
   1  -2   1  183.75   11.08
   1  -2   1  190.09   12.74
   1  -2   1  203.61   10.46
  -2   2  -1  419.29   23.10
  -2   2  -1  425.85   26.75
   2  -2   1  414.05   27.10
   2  -2   1  419.08   26.85
  -3   2  -1    1.72    0.70
  -3   2  -1    1.37    0.74
   3  -2   1    1.38    0.61
   3  -2   1    2.22    1.20
   3  -2   1    1.76    1.07
  -4   2  -1  130.56    9.63
   4  -2   1  133.44   10.46
   4  -2   1  140.57    9.02
  -5   2  -1   83.51    7.06
   5  -2   1   85.51    7.85
   5  -2   1   86.99    6.66
  -6   2  -1    0.28    1.53
   6  -2   1    0.13    1.50
   7  -2   1   61.40    7.25
  -9  -1   1    5.88    3.49
   8   1  -1   83.85    9.30
  -8  -1   1   71.75    8.29
   7   1  -1   39.22    5.87
   7   1  -1   49.34    4.42
  -7  -1   1   42.78    5.42
   6   1  -1   39.45    3.49
   6   1  -1   32.18    4.85
  -6  -1   1   31.74    3.63
  -6  -1   1   34.29    4.22
   5   1  -1  258.13   14.70
   5   1  -1  251.59   18.62
  -5  -1   1  239.84   17.53
  -5  -1   1  253.09   14.85
   4   1  -1   19.80    1.64
   4   1  -1   14.58    3.06
   4   1  -1   18.83    1.91
  -4  -1   1   16.48    1.96
  -4  -1   1   15.55    2.20
   3   1  -1   99.39    5.20
   3   1  -1   80.04    5.30
   3   1  -1   81.17    7.40
  -3  -1   1   86.53    5.45
  -3  -1   1   82.79    5.33
  -3  -1   1   84.79    6.39
   2   1  -1  539.16   26.68
   2   1  -1  454.26   26.76
   2   1  -1  534.24   31.57
  -2  -1   1  468.93   31.57
  -2  -1   1  490.75   26.90
  -2  -1   1  470.17   26.71
   1   1  -1  125.66    6.76
   1   1  -1  120.47    7.84
   1   1  -1  130.42    6.67
   1   1  -1   98.51    6.85
  -1  -1   1  118.33    7.87
   0   1  -1  241.31   14.36
   0   1  -1  275.76   16.47
   0  -1   1  265.74   14.06
   0  -1   1  276.40   16.53
   0  -1   1  242.42   14.29
  -1   1  -1  207.75   12.69
  -1   1  -1  240.11   13.14
  -1   1  -1  240.86   15.20
  -1   1  -1  244.16   14.92
   1  -1   1  245.84   14.89
   1  -1   1  234.72   13.32
   1  -1   1  242.56   12.61
   1  -1   1  221.06   15.10
  -2   1  -1   12.69    1.30
  -2   1  -1   11.59    1.25
  -2   1  -1   11.57    1.76
   2  -1   1   12.86    1.48
   2  -1   1   13.07    0.93
   2  -1   1   11.95    0.90
   2  -1   1   12.15    1.68
   2  -1   1   12.29    1.17
  -3   1  -1  357.89   20.67
  -3   1  -1  379.90   24.41
   3  -1   1  405.53   20.16
   3  -1   1  365.08   20.13
   3  -1   1  345.86   24.66
   3  -1   1  382.35   20.96
   3  -1   1  388.26   24.15
  -4   1  -1  164.08   11.85
   4  -1   1  175.65   10.28
   4  -1   1  171.87    9.18
   4  -1   1  164.78    9.20
   4  -1   1  168.76   12.55
  -5   1  -1    1.50    1.21
   5  -1   1    2.07    1.27
   5  -1   1    3.84    0.58
   5  -1   1    1.78    1.45
  -6   1  -1   88.32    8.05
   6  -1   1   95.40    8.78
   6  -1   1   93.11    6.83
  -7   1  -1   53.61    6.47
   7  -1   1   57.59    6.80
   8  -1   1    0.28    2.12
   8   0  -1   40.54    7.06
  -8   0   1   32.62    5.90
   7   0  -1   13.99    2.66
   7   0  -1   16.84    4.25
  -7   0   1   14.76    3.39
   6   0  -1  236.64   13.73
   6   0  -1  226.66   17.55
  -6   0   1  215.76   16.49
   5   0  -1   75.94    5.38
   5   0  -1   79.75    7.59
   5   0  -1   83.92    4.71
  -5   0   1   73.35    5.45
  -5   0   1   77.14    6.59
   4   0  -1   44.92    3.42
   4   0  -1   51.87    2.98
   4   0  -1   45.80    4.97
  -4   0   1   46.34    3.45
  -4   0   1   46.30    4.19
   3   0  -1  403.50   20.24
   3   0  -1  372.33   20.57
   3   0  -1  353.39   24.91
  -3   0   1  367.44   20.53
  -3   0   1  389.94   20.50
  -3   0   1  351.78   24.33
   2   0  -1   58.03    3.63
   2   0  -1   62.15    3.45
   2   0  -1   63.72    4.32
   2   0  -1   58.97    5.10
  -2   0   1   57.58    3.63
  -2   0   1   60.82    5.42
  -2   0   1   59.77    3.54
  -2   0   1   59.11    4.37
   1   0  -1   91.05    5.09
   1   0  -1   81.68    6.53
   1   0  -1   96.80    6.07
   1   0  -1   96.71    5.03
  -1   0   1   94.76    5.04
  -1   0   1   80.10    6.48
  -1   0   1   95.24    6.10
  -1   0   1   90.67    5.12
   0   0  -1   -0.49    0.13
   0   0  -1   -0.36    0.18
   0   0  -1   -0.53    0.10
   0   0  -1   -0.53    0.14
   0   0   1   -0.57    0.08
   0   0   1   -0.55    0.08
   0   0   1   -0.56    0.11
   0   0   1   -0.57    0.10
  -1   0  -1   10.44    1.16
  -1   0  -1    8.84    1.08
  -1   0  -1    9.58    0.89
  -1   0  -1    9.44    0.66
   1   0   1    9.36    0.67
   1   0   1    9.80    1.07
   1   0   1    8.46    1.05
  -2   0  -1  127.71    8.49
  -2   0  -1  121.99    7.11
  -2   0  -1  117.33    8.71
   2   0   1  125.24    7.10
   2   0   1  126.34    7.16
   2   0   1  135.56    8.34
   2   0   1  121.89    6.77
   2   0   1  115.30    8.60
  -3   0  -1  342.08   22.60
  -3   0  -1  319.43   18.99
   3   0   1  338.48   18.56
   3   0   1  331.40   19.08
   3   0   1  372.01   22.36
   3   0   1  322.44   22.72
   3   0   1  382.32   18.89
  -4   0  -1    1.84    1.07
   4   0   1    1.70    0.64
   4   0   1    1.29    1.16
   4   0   1    0.74    0.76
   4   0   1    1.96    0.46
  -5   0  -1  124.74   10.18
   5   0   1  130.65    7.53
   5   0   1  132.25   10.81
   5   0   1  133.06    8.48
   5   0   1  146.58    7.77
  -6   0  -1  114.09    9.78
   6   0   1  116.80   10.28
   6   0   1  119.72    7.99
   6   0   1  118.91    6.77
  -7   0  -1    3.97    2.17
   7   0   1    1.70    1.98
   7   0   1    0.42    1.44
  -8   0  -1   61.20    7.68
   8   0   1   65.24    7.79
   7  -1  -1   78.20    8.48
  -7   1   1   71.08    7.45
   6  -1  -1   38.97    3.71
   6  -1  -1   37.54    5.19
  -6   1   1   34.80    4.33
   5  -1  -1   63.17    4.58
   5  -1  -1   61.30    6.39
  -5   1   1   56.94    5.38
   4  -1  -1  225.07   16.04
   4  -1  -1  218.55   12.03
   4  -1  -1  228.70   12.75
  -4   1   1  225.33   15.14
  -4   1   1  211.91   12.42
  -4   1   1  214.73   12.46
   3  -1  -1   92.47    5.51
   3  -1  -1   85.26    5.04
   3  -1  -1   87.28    7.28
  -3   1   1   88.51    6.54
  -3   1   1   96.54    5.25
  -3   1   1   88.48    5.34
   2  -1  -1   81.72    6.28
   2  -1  -1   85.08    5.73
   2  -1  -1   82.77    4.80
   2  -1  -1   70.11    4.58
  -2   1   1   82.90    5.77
  -2   1   1   84.86    4.54
  -2   1   1   91.11    6.69
  -2   1   1   80.53    4.70
   1  -1  -1  629.51   31.91
   1  -1  -1  625.02   31.80
   1  -1  -1  562.98   37.82
   1  -1  -1  585.60   37.37
  -1   1   1  629.80   37.53
  -1   1   1  606.15   37.84
  -1   1   1  608.73   31.78
  -1   1   1  513.25   31.85
   0  -1  -1   72.81    3.79
   0  -1  -1   65.89    4.38
   0  -1  -1   61.77    3.82
   0   1   1   68.17    3.78
   0   1   1   71.08    3.79
   0   1   1   68.53    4.41
  -1  -1  -1  377.85   19.94
  -1  -1  -1  358.82   23.34
   1   1   1  359.63   19.92
   1   1   1  388.98   23.27
   1   1   1  358.67   20.21
  -2  -1  -1  843.38   46.54
  -2  -1  -1  815.50   55.30
  -2  -1  -1  948.49   54.84
   2   1   1  887.69   46.75
   2   1   1  834.83   54.32
  -3  -1  -1    0.38    1.03
  -3  -1  -1    0.30    0.90
  -3  -1  -1    1.58    0.68
  -3  -1  -1    1.06    0.91
   3   1   1    1.52    0.73
   3   1   1    1.28    0.61
   3   1   1    0.66    0.69
   3   1   1    1.24    0.98
  -4  -1  -1  217.23   14.20
  -4  -1  -1  245.97   16.86
   4   1   1  261.20   14.01
   4   1   1  242.66   16.99
  -5  -1  -1  180.14   13.92
   5   1   1  195.80   11.52
   5   1   1  195.35   14.36
  -6  -1  -1    9.74    2.60
   6   1   1   10.00    1.98
   6   1   1   15.59    3.42
   6   1   1   10.26    1.20
  -7  -1  -1   44.60    5.77
   7   1   1   49.99    6.14
   7   1   1   52.00    4.62
  -8  -1  -1   54.56    7.25
   8   1   1   65.24    7.68
   8   1   1   65.21    5.76
  -9  -1  -1   -0.37    2.43
   7  -2  -1   31.90    5.78
   6  -2  -1   28.55    4.96
  -6   2   1   25.30    3.75
   5  -2  -1  166.06   13.01
   5  -2  -1  166.12   10.39
  -5   2   1  155.68   11.88
   4  -2  -1   19.15    3.01
   4  -2  -1   18.23    2.40
  -4   2   1   17.08    2.26
  -4   2   1   17.36    1.73
   3  -2  -1   50.19    3.86
   3  -2  -1   53.34    4.93
  -3   2   1   53.11    3.33
  -3   2   1   50.73    4.18
   2  -2  -1  256.93   15.53
   2  -2  -1  275.50   18.45
   2  -2  -1  262.60   18.40
  -2   2   1  291.37   18.27
  -2   2   1  294.60   18.77
  -2   2   1  290.17   15.20
   1  -2  -1   56.83    3.38
   1  -2  -1   55.72    4.55
   1  -2  -1   57.39    4.33
  -1   2   1   61.89    4.59
  -1   2   1   60.23    3.51
  -1   2   1   56.95    3.27
  -1   2   1   58.11    4.42
  -1   2   1   56.42    3.54
   0  -2  -1  430.60   27.46
   0   2   1  461.00   27.33
   0   2   1  455.54   23.91
   0   2   1  399.12   23.66
   0   2   1  433.40   23.44
   0   2   1  444.10   23.58
  -1  -2  -1  393.56   25.23
  -1  -2  -1  469.53   25.08
   1   2   1  458.06   24.93
   1   2   1  519.47   25.36
  -2  -2  -1    4.08    1.14
  -2  -2  -1    2.49    1.22
  -2  -2  -1    5.89    0.97
   2   2   1    3.84    0.76
   2   2   1    4.15    1.20
   2   2   1    5.07    1.10
   2   2   1    4.45    1.35
  -3  -2  -1  162.44   10.06
  -3  -2  -1  160.17   11.98
   3   2   1  167.76    9.57
   3   2   1  164.52   11.88
  -4  -2  -1  215.90   13.87
  -4  -2  -1  234.39   16.54
   4   2   1  237.53   13.41
   4   2   1  235.27   16.47
  -5  -2  -1    2.92    1.56
  -5  -2  -1    2.87    1.47
   5   2   1    4.22    1.80
   5   2   1    4.16    1.19
  -6  -2  -1  114.15    9.25
  -6  -2  -1  129.49   11.19
   6   2   1  149.00    8.99
   6   2   1  147.54   11.54
  -7  -2  -1   78.53    8.57
   7   2   1   93.95    5.62
   7   2   1   94.25    8.99
   7   2   1   90.27    6.80
  -8  -2  -1    0.39    1.80
   8   2   1   -0.41    1.61
   8   2   1    1.23    1.65
  -9  -2  -1   41.83    7.88
   9   2   1   58.30    5.77
   7  -3  -1   14.08    4.11
   6  -3  -1   75.26    7.91
   5  -3  -1   29.19    4.23
  -5   3   1   27.54    3.44
   4  -3  -1   51.82    5.46
   4  -3  -1   54.46    4.05
  -4   3   1   54.34    4.72
   3  -3  -1  223.93   12.63
   3  -3  -1  225.38   15.63
  -3   3   1  223.15   12.39
  -3   3   1  217.17   14.99
   2  -3  -1   36.31    3.62
   2  -3  -1   36.86    2.57
  -2   3   1   39.79    2.63
  -2   3   1   43.10    3.45
   1  -3  -1   75.69    5.85
   1  -3  -1   78.89    4.62
  -1   3   1   72.35    6.21
  -1   3   1   89.83    4.79
  -1   3   1   78.37    5.91
  -1   3   1   78.74    4.45
  -1   3   1   76.94    5.16
   0  -3  -1  405.44   29.43
   0   3   1  434.23   24.73
   0   3   1  494.45   29.01
   0   3   1  535.53   25.36
   0   3   1  490.41   25.23
   0   3   1  400.47   25.16
  -1  -3  -1    4.27    1.21
   1   3   1    3.66    0.83
   1   3   1    6.21    1.19
   1   3   1    4.59    0.84
   1   3   1    1.80    1.37
  -2  -3  -1  207.11   13.54
  -2  -3  -1  227.49   13.39
   2   3   1  264.07   13.54
   2   3   1  219.77   13.08
   2   3   1  238.71   16.44
  -3  -3  -1  352.28   19.86
  -3  -3  -1  293.59   23.42
   3   3   1  368.26   23.39
   3   3   1  355.26   19.19
  -4  -3  -1    0.75    1.14
  -4  -3  -1    0.48    1.14
   4   3   1    0.17    1.02
   4   3   1    0.81    0.69
  -5  -3  -1  114.50    9.95
  -5  -3  -1  110.40    8.22
   5   3   1  116.18    7.58
   5   3   1  124.83   10.03
  -6  -3  -1  120.39    9.51
  -6  -3  -1  125.31   11.39
   6   3   1  148.96   11.64
   6   3   1  143.84    8.94
  -7  -3  -1    0.11    1.49
  -7  -3  -1    0.77    1.71
   7   3   1   -0.32    0.98
   7   3   1   -0.47    1.37
  -8  -3  -1   64.57    8.54
   8   3   1   85.80    5.43
   8   3   1   88.98    9.04
   8   3   1   83.58    6.76
  -9  -3  -1   29.61    6.71
   9   3   1   51.75    6.99
   9   3   1   48.12    5.24
   6  -4  -1   41.24    5.82
   5  -4  -1   22.37    4.25
   4  -4  -1  133.85   10.76
  -4   4   1  132.12    9.76
   3  -4  -1   77.81    6.71
  -3   4   1   74.10    5.87
   2  -4  -1   82.58    5.01
   2  -4  -1   91.00    6.96
  -2   4   1   85.06    6.41
  -2   4   1   79.13    5.14
   1  -4  -1  350.80   22.50
   1  -4  -1  355.81   18.50
  -1   4   1  324.12   19.26
  -1   4   1  340.75   18.23
  -1   4   1  309.36   22.69
   0   4   1  111.76    6.14
   0   4   1   98.14    6.39
   0   4   1  101.12    6.83
   0   4   1   85.35    5.43
   0   4   1   86.77    6.11
  -1  -4  -1   93.71    6.08
   1   4   1   74.17    7.35
  -2  -4  -1   43.74    4.87
  -3  -4  -1    1.11    1.28
  -3  -4  -1   -0.33    0.72
  -3  -4  -1    3.36    1.39
   3   4   1    1.00    0.75
   3   4   1    2.63    0.87
  -4  -4  -1   52.59    6.49
  -4  -4  -1   63.12    5.51
   4   4   1   89.62    7.40
   4   4   1   77.54    5.04
  -5  -4  -1  121.29    9.21
  -5  -4  -1  105.62   10.86
   5   4   1  146.76    8.66
   5   4   1  157.01   11.61
  -6  -4  -1    1.21    1.54
  -6  -4  -1   -0.66    1.17
   6   4   1    0.12    0.90
   6   4   1   -0.15    1.29
  -7  -4  -1   47.52    5.64
  -7  -4  -1   55.01    7.11
   7   4   1   62.10    6.96
   7   4   1   68.03    5.28
  -8  -4  -1   51.98    6.39
  -8  -4  -1   61.83    8.16
   8   4   1   84.67    6.41
   8   4   1   80.66    8.34
  -9  -4  -1    0.46    2.44
   9   4   1   -0.05    1.68
   9   4   1    0.53    2.32
   9   4   1    0.46    0.91
   5  -5  -1   79.36    8.31
   4  -5  -1   42.55    5.34
   3  -5  -1   11.31    2.86
   2  -5  -1  158.70   12.15
  -2   5   1  153.24   10.99
   1  -5  -1   99.30    8.26
  -1   5   1   98.16    7.68
  -1   5   1   87.47    5.36
   0   5   1   73.31    5.88
   0   5   1   66.87    4.18
   0   5   1   71.33    5.09
  -1  -5  -1  129.92    8.74
  -2  -5  -1    6.89    1.84
  -2  -5  -1    0.47    1.29
   2   5   1    6.56    1.38
  -3  -5  -1   79.42    6.64
   3   5   1   95.81    6.16
  -4  -5  -1  143.45   10.36
   4   5   1  164.56    9.75
   4   5   1  150.29   12.42
  -5  -5  -1    3.42    1.68
  -5  -5  -1    1.51    1.79
   5   5   1    3.33    2.05
   5   5   1    4.85    1.34
  -6  -5  -1   85.12   10.05
  -6  -5  -1  104.20    8.65
   6   5   1  124.28    7.94
   6   5   1  128.72   10.77
  -7  -5  -1   44.44    5.65
   7   5   1   65.79    7.28
   7   5   1   64.63    5.31
  -8  -5  -1   -0.18    1.90
  -8  -5  -1   -0.41    1.82
   8   5   1    1.09    2.27
   8   5   1    0.66    1.34
   9   5   1   40.52    3.65
   9   5   1   44.19    6.64
   9   5   1   46.92    5.03
   2  -6  -1   26.00    4.76
  -1   6   1   50.88    4.30
  -1   6   1   51.89    4.93
   0   6   1  159.05   11.89
   0   6   1  155.25    9.12
   0   6   1  170.29   10.23
  -1  -6  -1    2.15    1.68
  -3  -6  -1  123.42    9.87
   3   6   1  165.31    9.58
  -4  -6  -1    5.34    1.98
  -4  -6  -1    2.63    2.08
   4   6   1    2.87    1.63
   4   6   1    4.96    1.40
  -5  -6  -1   60.90    6.21
   5   6   1   78.26    5.77
   5   6   1   83.88    8.29
  -6  -6  -1  109.05    9.60
   6   6   1  127.32    8.91
   6   6   1  162.22   12.69
  -7  -6  -1    1.28    2.18
  -7  -6  -1   -0.12    1.56
   7   6   1    0.50    1.99
   7   6   1    0.79    1.19
  -8  -6  -1   27.41    5.09
   8   6   1   45.15    4.65
   8   6   1   47.50    6.50
   9   6   1   36.07    4.63
   9   6   1   36.66    6.70
  -3  -7  -1   13.33    3.08
   3   7   1   19.39    2.51
  -4  -7  -1   42.26    5.10
   4   7   1   56.42    4.64
  -5  -7  -1   82.26    7.91
   5   7   1  104.54   10.05
   5   7   1  105.38    7.34
  -6  -7  -1   -0.07    1.63
  -6  -7  -1    1.65    2.17
   6   7   1    4.04    2.64
   6   7   1    2.98    1.46
  -7  -7  -1   27.13    4.88
   7   7   1   43.18    4.38
   7   7   1   48.40    6.62
   8   7   1   60.74    7.72
   8   7   1   48.52    5.30
   9   7   1   -1.48    2.61
   2   8   1   19.41    2.96
   2   8   1   16.26    1.93
  -4  -8  -1   45.84    5.40
  -5  -8  -1    2.63    2.72
  -5  -8  -1    6.15    2.46
   5   8   1   11.04    2.42
   5   8   1   10.72    3.83
   6   8   1   61.68    7.88
   6   8   1   48.37    4.94
  -7  -8  -1   25.87    5.14
   7   8   1   56.15    7.40
   7   8   1   40.84    4.58
  -8  -8  -1    0.31    2.74
   8   8   1   -0.72    2.51
   9   8   1   24.94    6.25
   3   9   1   78.62    6.61
   3   9   1   81.63    5.71
  -4  -9  -1    0.13    2.44
   4   9   1    4.26    1.96
   5   9   1   30.05    3.82
  -6  -9  -1    9.68    4.46
  -6  -9  -1   19.72    4.33
  -7  -9  -1   -0.13    2.87
   4  10   1   32.37    3.44
   4  10   1   30.78    4.57
   5  10   1   34.43    4.42
  -6 -10  -1    0.76    3.45
   4  10  -2    1.82    2.35
  -4 -10   2    1.74    2.42
   3  10  -2   34.76    5.46
   7   9  -2   16.92    6.89
  -7  -9   2    5.14    3.84
   6   9  -2   44.66    5.38
   5   9  -2    0.97    1.72
  -5  -9   2    0.96    2.11
  -5  -9   2    1.37    2.66
   4   9  -2   29.71    4.70
  -4  -9   2   21.48    4.17
  -3  -9   2   37.04    4.88
   2   9  -2    0.27    1.92
  -2  -9   2    1.93    2.05
   8   8  -2   21.36    7.29
   7   8  -2   31.76    4.25
   7   8  -2   37.20    8.82
  -7  -8   2   27.16    4.97
   6   8  -2    5.08    2.05
   6   8  -2    7.21    4.47
  -6  -8   2    3.54    2.46
  -6  -8   2    1.64    2.83
  -5  -8   2   13.73    4.54
  -5  -8   2   30.30    4.58
   4   8  -2   84.81    6.98
  -4  -8   2   64.75    6.50
   3   8  -2    1.09    1.75
   3   8  -2    0.23    1.92
  -3  -8   2   -0.13    1.98
  -3  -8   2    1.53    1.68
   2   8  -2   47.69    5.24
  -2  -8   2   34.80    4.44
  -1  -8   2   55.28    5.45
   0   8  -2    0.40    1.99
   8   7  -2   49.66    9.34
  -8  -7   2   27.01    6.46
  -8  -7   2   36.91    5.20
   7   7  -2    7.62    4.53
   7   7  -2   10.22    2.63
  -7  -7   2    6.81    3.39
  -7  -7   2    6.94    2.56
   6   7  -2   31.28    7.37
   6   7  -2   37.93    4.23
  -6  -7   2   28.74    4.50
  -6  -7   2   22.85    5.46
  -5  -7   2   45.47    6.30
   4   7  -2   19.86    3.34
  -4  -7   2   15.71    2.90
  -4  -7   2    8.66    3.28
  -3  -7   2   17.44    4.06
   1   7  -2    4.32    2.05
   1   7  -2    0.22    1.29
  -1  -7   2    1.44    1.42
  -2   7  -2    0.00    1.78
  -9  -6   2   26.43    5.08
   8   6  -2    8.99    2.68
   8   6  -2    1.24    3.16
  -8  -6   2    5.85    3.45
  -8  -6   2    6.32    2.84
   7   6  -2   18.60    3.22
   7   6  -2   14.43    5.35
  -7  -6   2   13.78    4.25
  -7  -6   2   17.21    3.56
   6   6  -2   75.14   10.17
   6   6  -2   94.80    6.94
  -6  -6   2   72.31    8.52
  -6  -6   2   80.76    6.99
   5   6  -2   22.89    3.07
  -5  -6   2   18.62    3.12
  -5  -6   2   15.93    3.95
   4   6  -2   44.43    4.18
  -4  -6   2   26.04    4.56
  -4  -6   2   37.23    3.84
  -3  -6   2   88.73    8.49
   2   6  -2   15.54    2.92
  -2  -6   2   15.50    2.41
  -2  -6   2    3.18    1.85
   0   6  -2  114.38    7.85
   0  -6   2   93.35    7.15
   0  -6   2  108.73    7.07
  -1   6  -2   -0.24    1.12
   1  -6   2    4.34    1.29
   2  -6   2   88.92    6.07
   3  -6   2   68.53    7.95
   4  -6   2    3.03    2.79
   5  -6   2   67.01    8.49
   9   5  -2    8.42    2.89
  -9  -5   2    6.13    3.04
   8   5  -2   35.63    7.36
   8   5  -2   38.71    4.44
  -8  -5   2   27.93    4.77
  -8  -5   2   30.80    6.19
   7   5  -2   67.50    5.68
   7   5  -2   59.58    8.69
  -7  -5   2   55.88    5.83
  -7  -5   2   59.09    7.32
   6   5  -2   14.59    4.68
   6   5  -2   17.15    2.77
  -6  -5   2   14.64    2.83
  -6  -5   2   17.46    3.86
   5   5  -2   42.41    7.90
   5   5  -2   55.63    4.85
  -5  -5   2   62.44    5.13
  -5  -5   2   54.62    6.13
   4   5  -2  151.13    9.70
  -4  -5   2  144.25    9.42
  -4  -5   2  129.89   11.40
   3   5  -2   -0.31    1.26
   3   5  -2    0.85    1.03
  -3  -5   2    2.80    1.59
  -3  -5   2    2.72    1.24
  -2  -5   2   84.87    7.56
  -1  -5   2  151.61    9.49
  -1  -5   2  157.15    9.52
   0   5  -2    3.02    0.96
   0  -5   2    2.19    0.93
   0  -5   2    3.16    1.10
   0  -5   2    0.47    1.04
  -1   5  -2  137.20    9.03
  -1   5  -2  140.66    8.03
  -1   5  -2  160.63    9.33
   1  -5   2  131.55    8.58
   1  -5   2  124.07    8.50
   2  -5   2  156.76   12.31
   2  -5   2  142.22    9.08
   3  -5   2   -0.04    1.55
   3  -5   2    1.61    1.06
   4  -5   2  102.51    9.67
   5  -5   2   94.88    9.56
   9   4  -2   11.06    3.23
   8   4  -2   79.05    6.59
   8   4  -2   68.43    9.03
  -8  -4   2   62.17    6.65
  -8  -4   2   70.33    8.45
   7   4  -2   13.09    4.49
   7   4  -2   11.38    2.48
  -7  -4   2   12.14    2.84
  -7  -4   2   10.16    3.20
   6   4  -2   55.46    4.81
  -6  -4   2   60.48    5.27
  -6  -4   2   54.10    6.18
   5   4  -2  154.17    9.81
  -5  -4   2  138.47    9.71
  -5  -4   2  157.15   12.02
   4   4  -2   49.71    4.25
  -4  -4   2   49.66    5.04
  -4  -4   2   48.19    4.08
   3   4  -2  163.61   10.34
  -3  -4   2  152.30    9.77
  -3  -4   2  165.94   12.03
   2   4  -2  224.99   14.13
  -2  -4   2  213.21   16.01
  -2  -4   2  245.86   13.36
  -1  -4   2    4.54    1.04
  -1  -4   2    2.23    1.19
  -1  -4   2    7.29    1.34
   0   4  -2  319.14   18.20
   0   4  -2  294.98   15.49
   0  -4   2  250.97   15.62
   0  -4   2  249.70   15.82
  -1   4  -2  153.34    9.97
  -1   4  -2  157.24    8.76
  -1   4  -2  167.44   10.24
   1  -4   2  146.05    9.34
   1  -4   2  152.42    9.05
   1  -4   2  156.51   11.98
  -2   4  -2    6.73    0.83
  -2   4  -2    7.22    1.27
   2  -4   2    4.99    1.31
   2  -4   2    6.63    1.99
   2  -4   2    6.24    1.04
   3  -4   2  145.33   11.11
   3  -4   2  136.71    8.99
   4  -4   2  117.06    9.83
   4  -4   2  115.30    8.02
   5  -4   2    1.42    1.81
   6  -4   2   61.25    7.20
   9   3  -2   44.44    5.26
   8   3  -2   11.69    2.78
   8   3  -2    8.72    3.63
  -8  -3   2   11.81    2.99
  -8  -3   2   10.86    3.59
   7   3  -2   10.78    3.62
   7   3  -2   13.61    2.51
  -7  -3   2   10.53    2.57
  -7  -3   2   11.78    3.24
   6   3  -2   87.83   10.50
   6   3  -2  122.63    7.88
  -6  -3   2  118.17    9.75
  -6  -3   2  110.15    7.97
   5   3  -2   26.65    2.71
   5   3  -2   20.92    4.77
  -5  -3   2   22.46    3.19
  -5  -3   2   22.29    2.69
   4   3  -2  134.99    8.78
  -4  -3   2  140.42   10.48
  -4  -3   2  141.47    8.74
   3   3  -2  400.13   22.95
  -3  -3   2  406.27   26.81
  -3  -3   2  406.95   22.61
   2   3  -2   -0.51    0.80
   2   3  -2    0.67    0.85
   2   3  -2    1.01    0.67
  -2  -3   2    0.56    0.59
  -2  -3   2    0.85    0.73
   1   3  -2  248.62   14.14
  -1  -3   2  210.06   12.29
  -1  -3   2  198.27   12.02
  -1  -3   2  196.97   14.40
   0   3  -2  374.59   25.53
   0   3  -2  404.08   21.30
   0   3  -2  398.18   22.44
   0   3  -2  438.72   24.97
   0  -3   2  370.96   21.38
   0  -3   2  360.91   21.70
  -1   3  -2   16.55    1.29
  -1   3  -2   13.90    3.02
   1  -3   2   18.34    2.49
   1  -3   2   16.30    1.37
   1  -3   2   16.41    1.91
  -2   3  -2  198.87   12.03
  -2   3  -2  168.02   10.31
   2  -3   2  187.08   11.42
   2  -3   2  186.35   13.14
   2  -3   2  189.21   10.24
  -3   3  -2  160.97    9.92
   3  -3   2  137.90    9.60
   3  -3   2  129.95    9.84
   3  -3   2  148.38   10.88
  -4   3  -2    0.30    0.93
   4  -3   2    1.48    1.33
   4  -3   2    1.25    1.60
   5  -3   2  110.14    8.86
   5  -3   2  127.94   10.27
   6  -3   2   59.44    6.69
   7  -3   2    2.36    2.36
   8   2  -2   26.19    5.74
   8   2  -2   32.18    3.90
  -8  -2   2   21.28    4.78
   7   2  -2   73.38    5.68
   7   2  -2   60.70    7.84
  -7  -2   2   65.17    6.90
  -7  -2   2   56.31    5.55
   6   2  -2    7.48    2.80
   6   2  -2   11.60    2.08
  -6  -2   2   10.63    2.58
  -6  -2   2    7.79    1.93
   5   2  -2   87.48    5.99
   5   2  -2   69.47    8.31
  -5  -2   2   89.94    6.11
  -5  -2   2   90.61    7.35
   4   2  -2  262.27   15.36
   4   2  -2  243.42   19.94
  -4  -2   2  284.90   18.40
  -4  -2   2  271.34   15.37
   3   2  -2   63.22    4.51
  -3  -2   2   67.97    5.27
  -3  -2   2   65.11    4.35
   2   2  -2  280.03   14.06
   2   2  -2  271.04   16.60
   2   2  -2  279.11   14.32
   2   2  -2  218.28   14.48
  -2  -2   2  230.29   14.05
  -2  -2   2  235.84   16.62
   1   2  -2  369.42   22.62
   1   2  -2  386.25   19.27
  -1  -2   2  326.27   19.25
  -1  -2   2  338.40   19.49
  -1  -2   2  344.47   22.69
   0   2  -2  145.88    9.09
   0   2  -2  139.89   10.49
   0   2  -2  162.24    9.62
   0  -2   2  154.15    8.36
   0  -2   2  144.39    8.80
   0  -2   2  148.56    9.82
  -1   2  -2  271.86   17.70
  -1   2  -2  278.01   14.73
   1  -2   2  273.79   14.65
   1  -2   2  256.16   15.58
   1  -2   2  270.65   17.88
  -2   2  -2  460.82   25.54
  -2   2  -2  388.37   22.28
  -2   2  -2  388.63   21.43
   2  -2   2  418.41   25.37
   2  -2   2  370.25   25.81
   2  -2   2  338.59   22.68
   2  -2   2  416.66   21.39
  -3   2  -2    0.59    0.66
   3  -2   2   -0.12    0.71
   3  -2   2    0.52    1.19
   3  -2   2   -0.22    0.41
  -4   2  -2  156.81   11.33
   4  -2   2  159.93   10.46
   4  -2   2  162.42   10.78
   4  -2   2  157.07   11.95
  -5   2  -2   92.86    7.71
   5  -2   2   93.21    7.15
   5  -2   2   89.76    8.16
   6  -2   2   11.44    2.77
   6  -2   2   11.93    3.07
   7  -2   2   81.36    8.55
   8   1  -2   83.63    9.74
  -8  -1   2   80.98    8.79
   7   1  -2   22.28    3.01
   7   1  -2   23.22    4.91
  -7  -1   2   14.69    3.53
   6   1  -2   55.40    4.48
   6   1  -2   51.42    6.54
  -6  -1   2   55.68    5.61
  -6  -1   2   52.30    4.63
   5   1  -2  197.91   11.36
   5   1  -2  190.63   15.04
  -5  -1   2  182.54   11.26
  -5  -1   2  178.17   13.54
   4   1  -2   14.15    1.71
   4   1  -2   12.55    3.14
  -4  -1   2   16.13    2.17
  -4  -1   2   15.56    1.77
   3   1  -2  263.57   13.02
   3   1  -2  216.67   13.21
   3   1  -2  217.01   17.14
  -3  -1   2  226.25   13.14
  -3  -1   2  238.94   13.52
  -3  -1   2  237.80   15.75
   2   1  -2  421.08   21.13
   2   1  -2  423.14   25.06
   2   1  -2  350.12   21.36
  -2  -1   2  372.73   21.17
  -2  -1   2  376.71   25.08
   1   1  -2   15.45    1.41
   1   1  -2   17.38    1.35
  -1  -1   2   13.07    1.32
  -1  -1   2   13.92    1.39
  -1  -1   2   15.46    1.24
   0   1  -2  120.59    6.74
   0   1  -2  123.29    7.84
   0  -1   2  121.35    7.27
   0  -1   2  120.20    7.82
   0  -1   2  122.19    6.74
  -1   1  -2   79.37    5.41
  -1   1  -2   84.28    5.93
   1  -1   2   78.68    5.88
   1  -1   2   84.26    4.74
   1  -1   2   80.21    5.52
   1  -1   2   89.48    5.44
  -2   1  -2   16.56    1.77
  -2   1  -2   14.94    2.05
  -2   1  -2   16.75    1.09
  -2   1  -2   17.70    1.68
   2  -1   2   15.97    1.91
   2  -1   2   18.22    1.95
   2  -1   2   17.18    1.41
   2  -1   2   14.54    1.31
  -3   1  -2  371.98   23.63
   3  -1   2  361.08   19.48
   3  -1   2  371.26   19.66
   3  -1   2  348.11   20.25
   3  -1   2  337.96   23.64
   3  -1   2  366.62   23.13
  -4   1  -2  164.87   12.06
   4  -1   2  170.56   10.41
   4  -1   2  182.36    9.42
   4  -1   2  163.05   12.43
   4  -1   2  163.76    9.35
  -5   1  -2    3.94    1.69
   5  -1   2    3.73    0.69
   5  -1   2    3.02    1.44
   5  -1   2    2.10    1.43
  -6   1  -2  158.54   13.06
   6  -1   2  174.42   11.09
   6  -1   2  168.86   13.44
  -7   1  -2   58.81    7.02
   7  -1   2   62.28    5.72
   7  -1   2   64.80    7.15
   8  -1   2    1.01    2.29
   8   0  -2   16.84    4.82
  -8   0   2   13.72    3.85
   7   0  -2   18.16    4.50
  -7   0   2   18.97    3.82
   6   0  -2  178.14   10.64
   6   0  -2  173.56   14.25
  -6   0   2  156.51   12.83
   5   0  -2   40.01    3.30
   5   0  -2   40.85    5.16
  -5   0   2   39.08    4.09
  -5   0   2   38.04    3.27
   4   0  -2   75.56    7.08
   4   0  -2   73.92    4.83
   4   0  -2   73.84    4.35
  -4   0   2   71.64    5.91
  -4   0   2   70.70    4.70
   3   0  -2  385.93   19.74
   3   0  -2  328.00   24.58
   3   0  -2  373.66   20.03
  -3   0   2  362.05   23.83
  -3   0   2  364.22   19.90
  -3   0   2  361.96   20.09
   2   0  -2    1.47    1.10
   2   0  -2    0.90    0.43
   2   0  -2    1.99    0.43
   2   0  -2    1.41    0.57
  -2   0   2    1.45    0.54
  -2   0   2    0.42    0.62
  -2   0   2    1.27    0.42
  -2   0   2    1.70    0.68
   1   0  -2   83.81    4.75
   1   0  -2   85.81    4.72
   1   0  -2   89.00    5.73
   1   0  -2   73.97    4.85
  -1   0   2   85.58    4.76
  -1   0   2   84.08    5.77
   0   0  -2  359.54   25.12
   0   0  -2  399.61   21.40
   0   0  -2  409.49   21.27
   0   0   2  402.37   21.43
   0   0   2  387.40   25.11
  -1   0  -2   50.66    3.60
  -1   0  -2   48.56    2.88
   1   0   2   49.17    2.91
   1   0   2   47.94    3.53
  -2   0  -2  409.18   28.13
  -2   0  -2  389.78   28.57
  -2   0  -2  427.39   23.65
  -2   0  -2  440.85   24.04
   2   0   2  469.94   23.71
   2   0   2  511.77   28.45
   2   0   2  426.20   28.05
   2   0   2  449.49   24.09
  -3   0  -2  253.03   17.44
   3   0   2  240.31   17.23
   3   0   2  286.65   17.01
   3   0   2  248.18   14.53
   3   0   2  252.28   14.50
   3   0   2  260.83   14.00
  -4   0  -2    2.86    1.25
   4   0   2    2.96    0.96
   4   0   2    2.37    1.29
   4   0   2    2.99    0.90
   4   0   2    2.17    0.52
  -5   0  -2  133.22   11.23
   5   0   2  150.98   11.66
   5   0   2  165.92    8.72
   5   0   2  142.04    9.28
   5   0   2  145.40    8.34
  -6   0  -2   77.40    7.79
   6   0   2   93.94    5.22
   6   0   2   82.82    8.09
   6   0   2   85.56    6.35
  -7   0  -2    1.55    1.92
   7   0   2    1.92    1.56
   7   0   2    0.99    1.83
  -8   0  -2   69.59    8.68
   8   0   2   84.95    8.79
   8   0   2   81.12    6.87
   7  -1  -2   77.64    8.64
  -7   1   2   70.86    7.45
   6  -1  -2   27.30    4.98
  -6   1   2   27.75    3.80
   5  -1  -2   57.38    6.11
   5  -1  -2   55.96    4.05
  -5   1   2   49.68    4.88
  -5   1   2   45.74    3.69
   4  -1  -2  172.07    9.89
   4  -1  -2  164.59    9.47
   4  -1  -2  169.82   12.96
  -4   1   2  173.29    9.66
  -4   1   2  160.47   11.93
  -4   1   2  172.41    9.81
   3  -1  -2   48.36    4.70
   3  -1  -2   44.45    2.93
   3  -1  -2   46.79    3.08
  -3   1   2   46.66    3.04
  -3   1   2   43.97    3.90
  -3   1   2   47.71    2.90
   2  -1  -2  152.91   11.35
   2  -1  -2  160.35    8.92
   2  -1  -2  161.31   10.87
   2  -1  -2  152.64    9.02
  -2   1   2  163.94    8.88
  -2   1   2  158.20    8.91
  -2   1   2  167.99   11.02
  -2   1   2  179.61   12.07
   1  -1  -2  387.64   27.73
   1  -1  -2  428.24   27.47
   1  -1  -2  461.60   23.30
  -1   1   2  437.79   27.85
  -1   1   2  437.64   27.73
   0  -1  -2   58.42    3.27
   0  -1  -2   60.26    3.38
   0  -1  -2   52.25    3.98
   0   1   2   54.27    4.36
   0   1   2   57.54    3.27
   0   1   2   63.05    3.42
  -1  -1  -2   94.59    6.16
  -1  -1  -2   97.27    5.26
  -1  -1  -2   91.42    5.37
   1   1   2   94.75    6.09
   1   1   2   91.78    5.24
  -2  -1  -2  374.61   23.56
  -2  -1  -2  329.89   19.96
   2   1   2  381.48   24.27
   2   1   2  363.61   23.33
   2   1   2  368.55   19.71
   2   1   2  374.34   20.03
  -3  -1  -2    1.98    1.27
  -3  -1  -2    1.52    0.67
  -3  -1  -2    0.32    1.03
   3   1   2    1.42    0.93
   3   1   2    2.22    0.49
   3   1   2    1.48    0.94
   3   1   2    1.78    0.73
   3   1   2    1.33    0.90
  -4  -1  -2  173.18   13.98
   4   1   2  193.37   11.45
   4   1   2  195.01   10.79
   4   1   2  220.30   11.56
   4   1   2  187.40   13.84
  -5  -1  -2  110.96    9.73
   5   1   2  124.43    7.85
   5   1   2  122.92    6.96
   5   1   2  121.87    9.80
  -6  -1  -2    0.37    1.40
   6   1   2    0.61    1.33
   6   1   2   -0.42    0.95
   6   1   2    0.08    0.51
  -7  -1  -2   60.11    7.29
   7   1   2   74.82    7.57
   7   1   2   73.63    5.80
  -8  -1  -2   35.63    5.97
   8   1   2   43.63    4.62
   8   1   2   42.73    5.92
  -9  -1  -2    4.19    3.37
   7  -2  -2    8.93    3.48
   6  -2  -2   35.55    5.24
  -6   2   2   38.47    4.58
   5  -2  -2  111.73    9.75
  -5   2   2  107.64    8.70
   4  -2  -2    1.83    1.44
   4  -2  -2    1.64    1.13
  -4   2   2    1.41    1.01
   3  -2  -2  108.19    8.42
   3  -2  -2  109.23    6.47
  -3   2   2  101.36    7.76
  -3   2   2   98.54    6.01
  -3   2   2  109.87    5.86
   2  -2  -2  266.78   13.93
   2  -2  -2  246.57   14.12
   2  -2  -2  237.81   17.22
  -2   2   2  272.80   17.88
  -2   2   2  243.94   13.96
  -2   2   2  270.79   17.37
  -2   2   2  272.24   14.05
   1  -2  -2    1.30    0.33
   1  -2  -2    1.23    0.66
   1  -2  -2    0.23    0.76
  -1   2   2    1.24    0.82
  -1   2   2    1.32    0.91
  -1   2   2    1.51    0.47
   0  -2  -2  393.53   19.95
   0  -2  -2  355.30   23.08
   0   2   2  368.32   23.15
   0   2   2  364.08   19.90
   0   2   2  385.94   19.97
   0   2   2  353.58   19.87
  -1  -2  -2  684.05   35.17
   1   2   2  676.17   40.53
   1   2   2  670.25   34.98
   1   2   2  667.04   35.07
   1   2   2  557.68   35.59
  -2  -2  -2  107.18    6.12
   2   2   2  100.53    6.03
   2   2   2   95.74    6.53
   2   2   2  104.49    7.19
   2   2   2   92.70    8.08
   2   2   2  103.49    5.77
  -3  -2  -2  420.57   26.81
   3   2   2  431.68   22.54
   3   2   2  366.54   21.95
   3   2   2  378.02   25.86
  -4  -2  -2  140.06   11.65
  -4  -2  -2  121.53    9.49
   4   2   2  168.13   11.37
   4   2   2  173.65    9.31
  -5  -2  -2    0.91    1.26
   5   2   2    1.18    1.16
   5   2   2    0.06    0.75
  -6  -2  -2  139.05   12.44
   6   2   2  155.03   12.28
   6   2   2  157.53    8.86
   6   2   2  154.99    9.84
  -7  -2  -2   49.91    6.77
   7   2   2   68.44    4.31
   7   2   2   64.12    6.99
   7   2   2   72.31    5.59
  -8  -2  -2    0.81    2.19
   8   2   2    0.75    1.54
   8   2   2    0.49    1.81
  -9  -2  -2   39.29    7.78
   9   2   2   60.42    5.77
   9   2   2   58.23    7.36
   7  -3  -2   16.39    4.38
   6  -3  -2   92.81    9.18
   5  -3  -2    8.51    2.68
  -5   3   2    5.40    1.87
   4  -3  -2  114.06    9.20
  -4   3   2  104.35    8.32
   3  -3  -2  255.88   16.97
   3  -3  -2  236.73   13.25
  -3   3   2  245.94   16.55
  -3   3   2  232.37   13.21
   2  -3  -2    3.59    1.23
   2  -3  -2    3.32    0.50
  -2   3   2    3.14    0.51
  -2   3   2    5.16    1.36
  -2   3   2    3.44    0.73
  -2   3   2    3.86    0.71
   1  -3  -2  136.95    9.69
  -1   3   2  144.99    8.03
  -1   3   2  144.40    7.96
  -1   3   2  150.31    9.95
  -1   3   2  145.05    8.47
  -1   3   2  135.87    8.03
   0  -3  -2  482.03   31.95
   0   3   2  515.37   27.38
   0   3   2  512.65   27.21
   0   3   2  503.79   27.30
   0   3   2  502.30   27.94
   0   3   2  513.63   31.66
  -1  -3  -2   -0.11    0.99
  -1  -3  -2    1.63    0.74
   1   3   2    1.62    1.04
   1   3   2    0.93    0.47
   1   3   2    1.35    0.51
   1   3   2    0.20    1.28
   1   3   2    2.61    0.51
  -2  -3  -2  288.26   14.90
   2   3   2  247.75   17.15
   2   3   2  262.10   14.57
   2   3   2  239.59   18.57
  -3  -3  -2  270.95   18.67
   3   3   2  324.96   18.10
   3   3   2  372.88   21.79
  -4  -3  -2    1.18    1.34
  -4  -3  -2    0.96    1.27
   4   3   2    1.87    1.18
   4   3   2    2.93    0.94
  -5  -3  -2   83.09    8.40
  -5  -3  -2   74.76    6.83
   5   3   2  105.34    8.25
   5   3   2  103.69    6.41
  -6  -3  -2   92.49    9.54
  -6  -3  -2   87.87    7.87
   6   3   2  140.16    9.93
  -7  -3  -2   -0.49    1.40
   7   3   2    0.65    0.75
   7   3   2    0.40    1.53
   7   3   2   -0.12    1.11
   8   3   2  103.70    6.63
   8   3   2  106.26   10.19
   8   3   2  105.77    8.01
  -9  -3  -2   20.10    5.69
   9   3   2   36.98    5.75
   9   3   2   35.78    4.49
   6  -4  -2   18.38    4.27
   5  -4  -2   36.37    5.00
   4  -4  -2   65.15    6.46
  -4   4   2   64.38    5.67
   3  -4  -2   19.28    2.90
  -3   4   2   20.18    2.59
   2  -4  -2   78.77    6.47
  -2   4   2   79.33    6.56
  -2   4   2   76.26    4.76
  -2   4   2   80.88    4.62
   1  -4  -2  262.36   16.72
  -1   4   2  244.20   16.46
  -1   4   2  241.19   13.79
  -1   4   2  244.08   13.91
  -1   4   2  242.73   13.52
   0   4   2    3.47    1.07
   0   4   2    3.48    0.78
   0   4   2    2.90    0.57
   0   4   2    3.56    1.15
   0   4   2    3.21    0.91
   0   4   2    3.72    1.16
   1   4   2  158.49    9.71
   1   4   2  156.85    9.39
   1   4   2  185.48   10.97
   1   4   2  172.49    9.72
  -2  -4  -2   44.50    5.22
  -3  -4  -2   -0.33    0.88
  -3  -4  -2   -0.22    1.18
  -3  -4  -2    0.47    1.11
   3   4   2    1.03    0.68
   3   4   2   -0.13    0.81
   4   4   2  181.57   12.62
   4   4   2  150.76    9.88
  -5  -4  -2   76.84    8.88
  -5  -4  -2   91.16    7.61
   5   4   2  122.09    9.14
   5   4   2  111.77    6.96
  -6  -4  -2    4.24    2.03
  -6  -4  -2    2.62    2.02
   6   4   2    4.44    1.40
   6   4   2    3.16    1.82
   7   4   2   98.02    9.07
   7   4   2   90.18    6.90
   8   4   2   78.11    8.33
   8   4   2   77.51    5.30
   8   4   2   78.37    6.46
  -9  -4  -2    0.98    2.48
   9   4   2    2.80    1.17
   9   4   2    3.58    2.54
   9   4   2    2.77    1.91
   4  -5  -2   11.91    3.12
   3  -5  -2   53.05    5.64
   2  -5  -2  137.43   10.59
  -2   5   2  128.83   10.06
   1  -5  -2   16.73    3.08
  -1   5   2   12.49    2.74
  -1   5   2   15.68    1.70
  -1   5   2   14.32    1.34
   0   5   2  125.13    9.58
   0   5   2  131.51    8.39
   0   5   2  130.16    8.83
   0   5   2  119.92    7.18
   0   5   2  124.94    7.62
   1   5   2  189.29   11.38
   1   5   2  166.94   10.11
   1   5   2  157.91    9.64
  -2  -5  -2   -0.76    1.25
   2   5   2    0.18    0.59
   2   5   2    1.52    0.91
   2   5   2   -0.25    0.49
  -3  -5  -2   90.57    7.84
   3   5   2  129.63    7.35
  -4  -5  -2   73.26    6.68
   4   5   2   94.72    7.96
   4   5   2   88.61    5.96
  -5  -5  -2    0.70    1.63
  -5  -5  -2   -0.10    1.26
   5   5   2    0.39    1.29
   5   5   2    0.39    0.79
  -6  -5  -2   49.21    5.76
   6   5   2   73.12    7.10
   6   5   2   66.60    5.16
  -7  -5  -2   28.09    4.92
   7   5   2   45.04    4.18
   7   5   2   48.42    5.79
  -8  -5  -2    1.22    2.21
   8   5   2    1.96    1.50
   8   5   2    3.93    2.46
   8   5   2    2.58    1.12
   9   5   2   51.97    5.40
   9   5   2   53.01    4.30
   9   5   2   56.54    7.27
  -1   6   2   65.77    6.18
   0   6   2  174.86   10.18
   0   6   2  169.43    9.64
   0   6   2  163.83   12.60
  -1  -6  -2    1.27    1.63
   1   6   2    2.71    1.02
   1   6   2    3.31    0.78
   1   6   2   -0.45    0.81
   2   6   2  114.02    7.38
   2   6   2   90.64    6.50
   2   6   2   92.24    6.00
  -3  -6  -2   81.01    6.83
  -4  -6  -2    0.23    1.61
  -4  -6  -2    1.58    1.66
   4   6   2    1.43    0.97
   4   6   2    1.36    1.61
  -5  -6  -2   53.33    5.85
   5   6   2   76.59    5.40
  -6  -6  -2   58.47    6.37
   6   6   2   66.70    5.49
   6   6   2   82.55    7.83
  -7  -6  -2    3.72    2.27
  -7  -6  -2    0.67    2.15
   7   6   2    3.96    2.28
   7   6   2    4.31    1.66
   8   6   2   67.18    6.04
   8   6   2   71.59    8.04
   9   6   2   26.96    4.15
   9   6   2   21.46    2.67
   9   6   2   17.98    4.78
   1   7   2  110.43    6.67
   1   7   2  108.89    7.29
   2   7   2  100.67    7.05
   2   7   2  106.78    6.50
  -3  -7  -2    1.61    2.13
   3   7   2    5.38    1.44
   3   7   2    1.71    1.19
  -4  -7  -2   39.94    4.75
   5   7   2  116.04   10.14
   5   7   2   96.47    7.39
  -6  -7  -2    1.21    2.25
  -6  -7  -2   -0.52    1.47
   6   7   2    1.16    1.19
   6   7   2    1.02    2.08
   7   7   2   45.65    4.70
   7   7   2   54.98    6.74
   8   7   2   54.68    6.93
   8   7   2   41.47    4.70
   9   7   2    1.00    2.58
  -2  -8  -2   -0.47    1.79
   2   8   2    2.34    1.39
   2   8   2    3.25    1.11
   3   8   2   50.96    4.71
   3   8   2   61.36    4.30
   4   8   2   56.80    5.13
   4   8   2   65.79    4.68
  -5  -8  -2   -0.26    2.25
   5   8   2    1.63    1.32
  -8  -8  -2    1.29    3.08
   3   9   2   62.04    5.45
   3   9   2   65.22    4.84
  -4  -9  -2    1.52    2.98
   4   9   2    0.39    1.08
   4   9   2   -0.28    1.23
   5   9   2   54.57    4.53
   5   9   2   51.17    5.17
   6   9   2   45.90    4.07
   6   9   2   35.21    4.47
  -7  -9  -2   -0.69    2.73
   7   9   2   -0.55    1.49
   4  10   2   48.72    4.39
   5  10   2   53.18    5.57
  -6 -10  -2    0.66    3.57
  -4 -10   3    0.03    2.32
   3  10  -3   32.19    5.45
   7   9  -3   15.18    7.10
  -7  -9   3    8.51    4.41
   6   9  -3   20.75    6.63
  -6  -9   3    7.94    3.89
   5   9  -3   -0.28    2.00
   5   9  -3   -0.19    1.59
  -5  -9   3    1.17    1.87
   4   9  -3   40.73    5.25
  -4  -9   3   29.31    4.81
   3   9  -3   43.73    5.31
  -3  -9   3   31.03    4.84
   2   9  -3    0.26    2.01
  -2  -9   3    0.40    1.91
   1   9  -3   54.08    6.58
   7   8  -3   30.74    8.81
   7   8  -3   34.06    4.48
  -7  -8   3   15.26    5.16
  -7  -8   3   28.07    4.85
   6   8  -3    0.41    1.55
   6   8  -3    0.99    3.11
  -6  -8   3    1.25    1.85
  -6  -8   3    0.29    2.30
  -5  -8   3   22.80    5.46
  -4  -8   3   17.49    4.72
   3   8  -3    0.34    2.25
   3   8  -3    1.28    1.82
  -3  -8   3    1.52    1.67
   2   8  -3   76.84    7.03
  -2  -8   3   53.53    5.59
  -1  -8   3   49.39    5.02
   0   8  -3    0.46    2.03
   0   8  -3    1.01    2.13
   8   7  -3   29.68    8.26
  -8  -7   3   23.58    5.96
  -8  -7   3   24.41    4.81
   7   7  -3    1.88    1.75
   7   7  -3    0.85    3.54
  -7  -7   3    1.37    1.91
  -7  -7   3    1.80    2.68
   6   7  -3   39.85    4.53
   6   7  -3   30.54    8.04
  -6  -7   3   28.84    5.88
  -6  -7   3   35.76    4.45
   5   7  -3   40.27    4.52
  -5  -7   3   36.74    4.27
  -5  -7   3   30.47    5.88
   4   7  -3    0.18    1.35
   4   7  -3    0.25    1.49
  -4  -7   3    1.22    1.40
  -4  -7   3   -0.26    1.71
  -3  -7   3   25.64    4.88
   1   7  -3    3.83    2.08
   1   7  -3   -0.44    1.30
  -1  -7   3    2.20    1.53
   0  -7   3   80.85    6.50
   0  -7   3   91.61    6.39
  -2   7  -3   -0.26    1.68
  -3   7  -3    2.04    2.65
   8   6  -3    1.27    1.92
   8   6  -3    0.30    3.65
  -8  -6   3   -0.47    2.29
  -8  -6   3    1.91    2.17
   7   6  -3   30.91    4.03
   7   6  -3   32.22    8.08
  -7  -6   3   25.53    4.19
  -7  -6   3   23.39    5.23
   6   6  -3   55.03   10.83
   6   6  -3   72.26    6.18
  -6  -6   3   58.57    7.42
  -6  -6   3   74.07    6.32
   5   6  -3    0.57    1.47
   5   6  -3    0.80    1.24
  -5  -6   3    0.81    1.71
  -5  -6   3   -0.56    1.08
   4   6  -3   84.74    6.88
  -4  -6   3   76.91    7.98
  -4  -6   3   80.44    6.26
   3   6  -3  103.83    7.61
  -3  -6   3   68.22    7.77
  -3  -6   3   89.82    6.40
   2   6  -3    0.09    1.56
   2   6  -3    0.37    1.41
  -2  -6   3    0.11    1.33
  -2  -6   3    0.62    1.00
   0  -6   3   96.80    6.47
   0  -6   3   85.80    6.29
   1  -6   3   12.87    2.18
   1  -6   3   13.26    2.14
   2  -6   3   81.23    5.82
   3  -6   3   34.41    5.63
   4  -6   3    1.42    2.46
   5  -6   3   43.90    6.95
   9   5  -3    1.95    2.37
  -9  -5   3    5.28    3.01
   8   5  -3   34.11    7.85
   8   5  -3   46.43    5.03
  -8  -5   3   41.77    6.45
  -8  -5   3   35.07    4.94
   7   5  -3   59.77    9.57
   7   5  -3   74.19    6.23
  -7  -5   3   68.09    6.32
  -7  -5   3   64.19    7.66
   6   5  -3    2.69    1.50
   6   5  -3    3.42    3.15
  -6  -5   3    3.94    2.15
  -6  -5   3    3.60    1.69
   5   5  -3   69.50    5.94
  -5  -5   3   73.12    7.20
  -5  -5   3   72.93    5.79
   4   5  -3  126.16    8.85
  -4  -5   3  119.53   10.12
  -4  -5   3  120.22    8.22
   3   5  -3    2.92    1.48
   3   5  -3    0.50    1.37
  -3  -5   3    3.11    1.25
  -3  -5   3    3.16    1.68
   2   5  -3  163.68   11.47
  -2  -5   3  194.14   10.45
  -2  -5   3  142.73   12.40
  -1  -5   3  221.17   13.26
  -1  -5   3  233.21   13.61
   0   5  -3    6.41    0.95
   0  -5   3    4.59    1.16
   0  -5   3    5.42    1.35
   1  -5   3  123.60    7.95
   1  -5   3  122.34    7.58
   2  -5   3  100.74    9.22
   2  -5   3   95.11    6.67
   3  -5   3   12.63    2.14
   3  -5   3    7.91    2.78
   4  -5   3   83.18    8.51
   5  -5   3   27.82    5.43
   9   4  -3   21.55    4.29
   8   4  -3   60.81    5.75
   8   4  -3   54.19    8.37
  -8  -4   3   49.34    6.89
  -8  -4   3   48.67    5.69
   7   4  -3    6.78    2.10
   7   4  -3    2.93    3.09
  -7  -4   3    4.95    2.49
  -7  -4   3    4.01    1.85
   6   4  -3   78.44    5.86
   6   4  -3   53.85    8.63
  -6  -4   3   74.45    7.21
  -6  -4   3   64.52    5.67
   5   4  -3  127.88    8.78
  -5  -4   3  131.98   10.47
  -5  -4   3  123.32    8.56
   4   4  -3    4.56    1.48
  -4  -4   3    6.47    1.83
  -4  -4   3    5.90    1.49
   3   4  -3  192.72   12.59
  -3  -4   3  207.84   11.80
  -3  -4   3  187.17   13.94
  -2  -4   3  208.83   12.32
  -2  -4   3  214.47   14.84
   1   4  -3    0.49    0.51
   1   4  -3   -0.08    0.89
  -1  -4   3   -0.10    0.73
  -1  -4   3   -0.17    0.58
  -1  -4   3    0.20    0.76
   0   4  -3  336.34   19.40
   0  -4   3  277.09   16.89
   0  -4   3  294.26   17.42
  -1   4  -3  114.25    6.58
   1  -4   3  113.38    9.44
   1  -4   3  110.06    6.66
   1  -4   3  111.56    7.34
  -2   4  -3    0.92    1.09
   2  -4   3    0.45    1.24
   2  -4   3    1.38    0.66
   2  -4   3    1.49    1.05
   3  -4   3  150.07   10.07
   3  -4   3  157.43   12.14
   4  -4   3   98.27    8.63
   4  -4   3   90.55    7.13
   5  -4   3    6.48    2.57
   6  -4   3   78.44    8.40
   8   3  -3    0.60    1.65
   8   3  -3   -0.34    2.58
  -8  -3   3    0.94    2.00
  -8  -3   3    1.92    2.11
   7   3  -3   43.47    4.29
   7   3  -3   31.93    6.61
  -7  -3   3   32.44    4.00
  -7  -3   3   39.60    5.30
   6   3  -3  100.43    7.21
   6   3  -3   85.55   10.61
  -6  -3   3  106.64    8.96
  -6  -3   3   98.69    7.25
   5   3  -3    4.23    1.41
   5   3  -3    4.56    2.93
  -5  -3   3    4.81    1.70
  -5  -3   3    4.77    1.43
   4   3  -3  131.42    8.83
  -4  -3   3  134.91    8.54
  -4  -3   3  142.23   10.31
   3   3  -3  160.78   10.60
  -3  -3   3  167.77   11.85
  -3  -3   3  172.89   10.02
   2   3  -3    3.24    0.89
   2   3  -3   -0.15    1.12
  -2  -3   3    3.86    0.94
  -2  -3   3    3.17    1.02
   1   3  -3  327.46   19.13
  -1  -3   3  273.54   16.39
  -1  -3   3  290.00   19.34
  -1  -3   3  290.10   16.87
   0   3  -3  302.99   16.21
   0   3  -3  311.46   18.77
   0  -3   3  281.43   16.86
   0  -3   3  282.39   16.25
  -1   3  -3   11.14    1.19
   1  -3   3   10.23    2.23
   1  -3   3   10.80    1.09
   1  -3   3   10.32    1.82
  -2   3  -3  129.85    8.74
   2  -3   3  162.32    8.41
   2  -3   3  155.70   11.25
   2  -3   3  156.48    9.94
  -3   3  -3   66.37    5.41
   3  -3   3   79.14    6.25
   3  -3   3   83.01    6.68
  -4   3  -3    8.83    1.91
   4  -3   3   10.65    2.48
   4  -3   3    3.14    2.05
   5  -3   3  132.24   10.48
   5  -3   3  108.53    9.19
   6  -3   3   45.37    5.75
   7  -3   3    6.74    3.12
   8   2  -3   29.29    6.44
  -8  -2   3   33.65    5.42
   7   2  -3   67.49    8.64
   7   2  -3   77.32    6.03
  -7  -2   3   62.86    5.83
  -7  -2   3   74.56    7.47
   6   2  -3    6.08    2.86
   6   2  -3    7.78    1.80
  -6  -2   3    7.10    2.28
  -6  -2   3    5.01    1.69
   5   2  -3  108.24   10.99
   5   2  -3  111.93    7.34
  -5  -2   3  107.29    8.77
  -5  -2   3  108.00    7.21
   4   2  -3  178.78   16.56
   4   2  -3  213.36   12.37
  -4  -2   3  213.95   12.15
  -4  -2   3  211.33   14.57
   3   2  -3    1.71    0.92
   3   2  -3   -0.23    0.67
  -3  -2   3    1.63    0.87
  -3  -2   3    1.73    0.75
   2   2  -3  520.77   31.31
   2   2  -3  426.73   27.31
   2   2  -3  550.63   26.83
  -2  -2   3  472.64   26.59
  -2  -2   3  462.63   31.35
   1   2  -3  164.35   10.31
  -1  -2   3  153.46    9.28
  -1  -2   3  154.16    8.86
  -1  -2   3  153.10   10.34
   0   2  -3  171.86    9.49
   0   2  -3  160.52   12.22
   0   2  -3  177.50   10.96
   0  -2   3  168.96   10.21
   0  -2   3  169.11    9.49
   0  -2   3  169.92   10.97
  -1   2  -3  485.42   24.53
  -1   2  -3  399.23   25.79
  -1   2  -3  465.18   29.01
   1  -2   3  481.38   24.30
   1  -2   3  418.88   25.40
   1  -2   3  439.05   29.18
  -2   2  -3  212.16   12.26
   2  -2   3  239.47   14.06
   2  -2   3  222.91   15.08
   2  -2   3  227.04   12.05
   2  -2   3  196.63   13.53
  -3   2  -3   12.94    1.93
  -3   2  -3   14.94    1.04
   3  -2   3   12.70    2.50
   3  -2   3   15.56    2.31
   3  -2   3   15.04    1.07
   3  -2   3   16.15    1.42
  -4   2  -3  207.45   15.87
   4  -2   3  250.95   15.14
   4  -2   3  220.83   16.25
   4  -2   3  236.31   14.48
  -5   2  -3   75.35    7.09
   5  -2   3   82.00    7.48
   5  -2   3   83.26    6.75
   6  -2   3   24.25    4.01
   6  -2   3   26.63    4.10
   7  -2   3   65.89    7.44
   8   1  -3   74.21    9.25
  -8  -1   3   58.73    7.37
   7   1  -3    7.20    1.99
   7   1  -3    6.87    3.16
  -7  -1   3    6.09    2.40
   6   1  -3   46.76    3.99
   6   1  -3   44.08    6.19
  -6  -1   3   38.27    4.77
  -6  -1   3   45.38    3.99
   5   1  -3  142.16   13.56
   5   1  -3  179.02   10.19
  -5  -1   3  161.57    9.95
  -5  -1   3  163.42   12.18
   4   1  -3    2.40    1.91
   4   1  -3    1.58    0.80
  -4  -1   3    1.85    0.84
  -4  -1   3    1.94    1.03
   3   1  -3  380.31   21.76
  -3  -1   3  382.52   21.56
  -3  -1   3  413.46   25.77
   2   1  -3  300.24   18.88
   2   1  -3  357.90   21.87
   2   1  -3  344.68   18.40
   2   1  -3  373.60   18.64
  -2  -1   3  325.27   18.48
  -2  -1   3  319.78   21.92
   1   1  -3   40.52    2.57
   1   1  -3   35.56    2.66
   1   1  -3   45.65    3.07
  -1  -1   3   38.17    3.05
  -1  -1   3   39.73    2.89
   0   1  -3  883.87   58.07
   0   1  -3  884.67   49.94
   0   1  -3  905.45   49.30
   0  -1   3  974.51   49.33
   0  -1   3  863.18   49.87
   0  -1   3 1000.00   58.03
  -1   1  -3  550.45   35.97
  -1   1  -3  551.47   30.89
  -1   1  -3  549.64   31.47
   1  -1   3  527.47   36.02
   1  -1   3  653.36   30.83
   1  -1   3  579.15   31.61
  -2   1  -3    3.83    0.60
  -2   1  -3    3.95    1.20
  -2   1  -3    3.86    1.05
  -2   1  -3    1.41    0.83
   2  -1   3    3.50    0.80
   2  -1   3    2.79    1.11
   2  -1   3    3.72    1.04
   2  -1   3    4.28    0.77
  -3   1  -3  469.81   26.74
   3  -1   3  532.19   31.85
   3  -1   3  497.52   32.23
   3  -1   3  506.38   27.85
   3  -1   3  487.13   27.01
  -4   1  -3  216.40   16.70
   4  -1   3  236.18   14.33
   4  -1   3  236.13   13.31
   4  -1   3  257.05   15.92
   4  -1   3  253.53   13.59
   4  -1   3  240.30   16.83
  -5   1  -3   12.97    2.85
   5  -1   3   15.08    2.47
   5  -1   3   11.78    2.67
   5  -1   3   14.05    1.44
  -6   1  -3  157.01   13.67
   6  -1   3  185.12   13.96
   6  -1   3  183.29   11.64
  -7   1  -3   31.00    5.63
   7  -1   3   30.38    4.72
   7  -1   3   33.02    4.31
   8  -1   3    9.30    3.34
   8   0  -3    2.17    3.08
  -8   0   3    2.73    2.54
   7   0  -3   21.91    5.22
  -7   0   3   28.81    4.31
   6   0  -3  118.49    7.74
   6   0  -3  121.47   11.16
  -6   0   3  109.82    9.60
   5   0  -3   12.04    1.85
   5   0  -3   14.19    3.36
  -5   0   3   13.09    2.51
  -5   0   3   14.60    1.89
   4   0  -3  104.17    9.32
   4   0  -3  108.04    6.48
  -4   0   3   98.53    6.29
  -4   0   3  104.53    7.99
   3   0  -3  228.79   18.79
   3   0  -3  275.65   14.79
   3   0  -3  273.96   14.56
  -3   0   3  251.74   14.98
  -3   0   3  278.77   17.85
  -3   0   3  270.51   14.69
   2   0  -3    7.42    0.99
   2   0  -3   10.36    1.03
   2   0  -3    6.70    2.04
   2   0  -3    9.36    1.00
  -2   0   3    8.60    1.33
  -2   0   3    9.76    1.00
   1   0  -3  180.89   10.17
   1   0  -3  185.61   12.18
   1   0  -3  180.41   10.26
  -1   0   3  197.74   10.32
  -1   0   3  171.24   12.27
  -1   0   3  189.05   10.24
   0   0  -3  344.40   18.96
   0   0  -3  343.84   22.55
   0   0  -3  340.19   19.15
   0   0   3  350.17   19.22
   0   0   3  337.09   22.42
   0   0   3  353.86   18.99
  -1   0  -3   -0.11    0.72
  -1   0  -3   -0.87    0.59
  -1   0  -3    0.29    0.53
  -1   0  -3    0.54    0.49
   1   0   3    0.64    0.53
   1   0   3   -0.33    0.72
   1   0   3    0.57    0.58
   1   0   3    0.49    0.70
  -2   0  -3  376.74   20.70
  -2   0  -3  385.65   21.15
  -2   0  -3  382.75   24.67
   2   0   3  380.35   25.16
   2   0   3  397.19   21.18
   2   0   3  394.56   20.77
   2   0   3  364.34   24.46
   3   0   3  265.56   13.99
   3   0   3  241.96   17.01
   3   0   3  256.19   14.57
  -4   0  -3    1.31    1.22
   4   0   3    2.50    1.24
   4   0   3    2.34    0.55
   4   0   3    2.73    1.10
   4   0   3    1.20    0.88
  -5   0  -3  161.25   14.07
   5   0   3  194.88   10.69
   5   0   3  181.10   14.03
   5   0   3  187.26   11.66
   5   0   3  220.79   11.29
  -6   0  -3   53.32    6.20
   6   0   3   57.68    4.90
   6   0   3   59.45    6.20
   6   0   3   59.52    3.76
  -7   0  -3   10.82    3.56
   7   0   3   18.56    3.95
   7   0   3   18.13    3.00
  -8   0  -3   66.72    8.96
   8   0   3   93.31    9.20
   8   0   3   99.34    7.71
  -8   1   3   19.34    4.77
   7  -1  -3   73.97    8.48
  -7   1   3   61.02    6.89
   6  -1  -3    6.91    2.83
  -6   1   3    5.43    2.11
   5  -1  -3   75.18    7.84
   5  -1  -3   80.97    5.39
  -5   1   3   78.89    6.89
   4  -1  -3  172.44   13.05
   4  -1  -3  173.43    9.66
   4  -1  -3  153.32    9.46
  -4   1   3  169.94    9.80
  -4   1   3  162.94   11.98
  -4   1   3  164.13    9.47
   3  -1  -3    1.77    0.69
   3  -1  -3    0.91    1.14
   3  -1  -3    1.03    0.56
  -3   1   3    0.84    0.79
  -3   1   3    1.23    0.66
  -3   1   3    1.15    0.51
   2  -1  -3  360.56   18.23
   2  -1  -3  332.25   18.59
   2  -1  -3  321.54   22.56
   2  -1  -3  330.91   18.25
  -2   1   3  345.16   18.47
  -2   1   3  334.67   22.34
   1  -1  -3  154.88    8.65
   1  -1  -3  147.78   10.91
   1  -1  -3  168.63    9.04
   1  -1  -3  155.70   11.07
   1  -1  -3  160.68    8.56
  -1   1   3  158.27   11.08
  -1   1   3  159.99    9.09
   0  -1  -3   -0.36    0.29
   0  -1  -3    0.53    0.45
   0  -1  -3   -0.05    0.32
   0   1   3   -0.29    0.88
   0   1   3   -0.26    0.40
   0   1   3    0.28    0.44
   0   1   3   -0.26    0.57
   0   1   3    0.31    0.47
  -1  -1  -3  172.62   11.76
  -1  -1  -3  186.41   10.19
  -1  -1  -3  187.76   10.31
   1   1   3  187.57   10.29
   1   1   3  187.22   11.78
   1   1   3  187.92   10.21
  -2  -1  -3  173.06    9.54
  -2  -1  -3  166.83   11.51
   2   1   3  175.88    9.86
   2   1   3  170.95   11.36
   2   1   3  175.68    9.57
  -3  -1  -3   39.81    3.81
   3   1   3   32.63    3.30
   3   1   3   36.40    2.35
   3   1   3   38.44    3.81
   3   1   3   36.17    2.81
   3   1   3   30.90    3.30
   4   1   3  319.66   22.04
   4   1   3  331.67   18.01
   4   1   3  334.69   18.71
   5   1   3   89.35    7.87
   5   1   3   95.29    5.59
   5   1   3   94.84    6.41
  -6  -1  -3   23.08    4.54
   6   1   3   32.96    3.27
   6   1   3   29.17    4.12
   6   1   3   33.37    2.38
  -7  -1  -3   54.01    7.34
   7   1   3   73.70    5.97
   7   1   3   79.47    4.76
   7   1   3   79.02    7.70
  -8  -1  -3   17.76    4.97
   8   1   3   27.22    4.96
   8   1   3   29.07    3.80
  -9  -1  -3   11.19    4.73
   9   1   3   11.98    3.31
   7  -2  -3    5.36    3.12
   6  -2  -3   42.04    5.75
  -6   2   3   38.67    4.86
   5  -2  -3  212.98   15.94
  -5   2   3  195.71   14.83
   4  -2  -3   25.63    2.33
   4  -2  -3   24.79    3.70
  -4   2   3   22.70    2.98
   3  -2  -3  154.05    8.12
   3  -2  -3  141.94   11.01
   3  -2  -3  154.61    8.35
  -3   2   3  142.41    8.15
  -3   2   3  139.39    8.21
  -3   2   3  142.24   10.66
   2  -2  -3  207.62   15.09
   2  -2  -3  221.27   12.13
  -2   2   3  223.85   15.87
  -2   2   3  219.74   15.42
  -2   2   3  234.00   12.40
   1  -2  -3   12.27    1.05
   1  -2  -3   11.22    1.57
   1  -2  -3   15.01    2.24
  -1   2   3   13.07    1.32
  -1   2   3    8.14    1.98
  -1   2   3   12.65    1.94
   0  -2  -3  322.40   17.24
   0  -2  -3  322.57   17.16
   0  -2  -3  303.74   19.85
   0   2   3  333.35   17.32
   0   2   3  288.94   20.96
   0   2   3  330.90   17.09
  -1  -2  -3  432.33   22.98
  -1  -2  -3  414.95   23.05
   1   2   3  428.56   23.03
   1   2   3  423.79   22.98
  -2  -2  -3   18.97    2.14
  -2  -2  -3   16.66    1.55
   2   2   3   14.41    1.55
   2   2   3   15.03    1.28
   2   2   3   12.41    2.12
   2   2   3   16.98    1.52
  -3  -2  -3  520.01   30.57
   3   2   3  439.57   25.41
   3   2   3  442.26   25.00
   3   2   3  450.63   29.58
   4   2   3   76.41    4.82
   4   2   3   83.20    6.64
   4   2   3   83.86    5.47
  -5  -2  -3    9.46    2.72
   5   2   3   11.86    1.90
   5   2   3   12.60    1.30
   5   2   3   14.47    2.72
   6   2   3  220.48   12.51
   6   2   3  219.93   13.51
   6   2   3  222.18   16.38
  -7  -2  -3   19.49    4.63
   7   2   3   33.00    4.58
   7   2   3   31.33    2.48
   7   2   3   32.94    3.55
  -8  -2  -3    7.86    3.36
   8   2   3   11.38    2.53
   8   2   3   12.57    3.48
  -9  -2  -3   40.13    8.16
   9   2   3   62.35    5.93
   9   2   3   64.03    7.52
   6  -3  -3   76.55    8.25
   5  -3  -3    4.55    2.28
  -5   3   3    3.04    1.68
   4  -3  -3   44.92    5.07
  -4   3   3   45.19    4.59
   3  -3  -3  179.38   13.19
  -3   3   3  183.17   13.19
   2  -3  -3    1.33    0.93
  -2   3   3    1.60    0.79
  -2   3   3    0.45    0.94
   1  -3  -3   70.18    5.35
  -1   3   3   75.12    4.42
  -1   3   3   63.48    6.26
  -1   3   3   79.56    5.93
   0  -3  -3  279.65   18.80
   0   3   3  286.21   16.04
   0   3   3  320.09   18.93
   0   3   3  312.09   16.23
   0   3   3  297.13   16.12
   0   3   3  281.79   19.89
  -1  -3  -3    5.64    0.99
   1   3   3    4.34    0.66
   1   3   3    4.18    0.72
   1   3   3    0.79    1.31
   1   3   3    4.77    1.49
  -2  -3  -3  443.78   23.75
   2   3   3  413.51   23.28
   2   3   3  444.13   27.09
   2   3   3  415.35   23.51
   3   3   3  446.60   24.85
   3   3   3  452.69   28.90
   3   3   3  449.38   24.47
  -4  -3  -3    4.08    2.06
   4   3   3    7.20    1.36
   4   3   3    8.91    1.91
   4   3   3    7.75    1.01
   5   3   3  284.58   15.65
   5   3   3  273.71   19.42
   5   3   3  280.67   16.36
   6   3   3  149.72    8.73
   6   3   3  146.37   11.72
   6   3   3  146.89    9.57
  -7  -3  -3    0.59    1.77
   7   3   3    3.69    2.07
   7   3   3    1.57    1.23
   7   3   3    2.79    0.93
   8   3   3  107.49    8.00
   8   3   3  100.95    6.57
   8   3   3  105.16    9.94
  -9  -3  -3   15.50    5.00
   9   3   3   26.43    5.21
   9   3   3   19.38    3.55
   5  -4  -3   45.49    5.73
   4  -4  -3   76.60    7.12
  -4   4   3   70.77    6.50
   3  -4  -3    0.74    1.20
  -3   4   3    0.78    1.21
   2  -4  -3  130.03    9.82
  -2   4   3  129.58   10.57
  -2   4   3  140.58    7.96
   1  -4  -3  128.85    9.36
  -1   4   3  122.90    7.24
  -1   4   3  137.81    9.68
  -1   4   3  133.16    7.34
  -1   4   3  125.51   10.43
  -1   4   3  142.40    8.34
  -1   4   3  136.00    7.61
   0   4   3    2.77    1.17
   0   4   3    3.32    1.31
   0   4   3    3.73    0.91
   0   4   3    2.60    0.55
   0   4   3    2.45    0.83
   0   4   3    2.59    0.61
   1   4   3  197.47   11.00
   1   4   3  209.41   11.24
   1   4   3  184.66   11.08
  -3  -4  -3    0.37    1.43
  -3  -4  -3   -0.31    0.69
   3   4   3    0.07    0.46
   3   4   3    1.52    0.95
   3   4   3    0.22    0.57
   4   4   3  180.47   12.39
   4   4   3  173.87    9.81
   4   4   3  156.46   10.23
   5   4   3  127.39   10.13
   5   4   3  134.88    7.74
   5   4   3  123.01    8.28
  -6  -4  -3    0.44    1.61
   6   4   3    2.22    1.61
   6   4   3    1.91    1.10
   6   4   3    0.95    0.76
   7   4   3   80.24    6.24
   7   4   3   79.70    5.30
   7   4   3   78.77    7.78
   8   4   3   60.32    5.56
   8   4   3   61.98    7.07
   8   4   3   65.01    4.55
  -9  -4  -3    1.41    2.62
   9   4   3    3.85    1.26
   9   4   3    2.47    2.47
   9   4   3    2.78    2.03
   3  -5  -3   74.78    7.01
  -3   5   3   74.49    6.72
   2  -5  -3   97.22    8.14
  -2   5   3   97.09    8.40
   1  -5  -3    0.15    1.33
  -1   5   3    0.42    0.43
  -1   5   3    0.66    0.63
  -1   5   3    0.04    1.26
   0   5   3  126.95    9.89
   0   5   3  127.16    7.39
   0   5   3  134.27    8.89
   0   5   3  118.58    7.38
   0   5   3  132.77    8.19
   2   5   3   22.21    2.00
   2   5   3   16.21    1.84
   2   5   3   19.22    1.70
   3   5   3  269.05   16.86
   3   5   3  240.51   13.73
   3   5   3  224.11   14.06
   4   5   3   70.88    4.53
   4   5   3   61.00    4.85
   4   5   3   75.72    6.34
  -5  -5  -3    2.59    1.96
   5   5   3    1.90    1.39
   5   5   3    3.98    1.27
   6   5   3  114.61    8.31
   6   5   3  133.93    7.78
   6   5   3  122.56   10.34
   7   5   3   36.07    3.93
   7   5   3   41.78    3.32
   7   5   3   41.24    5.24
  -8  -5  -3    8.73    3.72
   8   5   3   13.05    1.93
   8   5   3   11.70    3.30
   8   5   3   10.27    2.46
   9   5   3   59.08    5.82
   9   5   3   61.01    7.44
   9   5   3   56.03    4.49
  -1   6   3   78.72    7.30
   0   6   3  148.41   11.46
   0   6   3  144.71    8.66
   0   6   3  150.63    8.59
  -1  -6  -3   -0.53    1.50
   1   6   3    0.73    0.57
   1   6   3    0.54    0.74
   1   6   3    0.24    0.65
   2   6   3  105.56    7.01
   2   6   3  115.26    6.72
   3   6   3  122.96    8.20
   3   6   3  126.83    9.82
   3   6   3  138.96    7.89
   4   6   3   23.34    2.13
   4   6   3   20.95    2.44
   4   6   3   23.04    3.48
   5   6   3   97.91    7.35
   5   6   3  108.14    6.84
   5   6   3  121.41    9.46
   6   6   3   62.32    6.37
   6   6   3   62.00    4.34
   6   6   3   50.23    4.78
  -7  -6  -3    2.00    2.37
   7   6   3    6.39    1.84
   7   6   3    7.50    1.56
   7   6   3    6.69    2.61
   8   6   3   89.41    7.25
   8   6   3   86.29    8.94
   8   6   3   91.13    6.26
   9   6   3   23.05    2.69
   9   6   3   14.20    3.19
   9   6   3   20.23    4.81
   0   7   3    8.14    2.38
   1   7   3   50.22    5.02
   1   7   3   46.81    3.77
   1   7   3   53.20    3.58
   2   7   3   77.83    4.94
   2   7   3   70.81    5.24
  -3  -7  -3    0.17    1.89
   3   7   3    0.11    0.68
   3   7   3    0.14    0.86
   4   7   3   79.86    6.18
   4   7   3   96.32    8.03
   4   7   3   84.91    5.74
   5   7   3   86.87    7.83
   5   7   3   72.36    6.02
   5   7   3   82.93    5.58
  -6  -7  -3    0.72    2.36
   6   7   3    3.38    1.56
   6   7   3    3.08    1.16
   6   7   3    3.15    2.19
   7   7   3   76.45    7.74
   7   7   3   63.43    5.84
   7   7   3   69.85    5.19
   8   7   3   34.36    4.30
   8   7   3   43.25    5.89
   8   7   3   40.17    3.70
   9   7   3    8.59    3.62
  -2  -8  -3    0.53    2.20
   2   8   3    1.78    1.00
   3   8   3   75.17    5.06
   3   8   3   67.26    5.42
   4   8   3   35.65    3.70
   4   8   3   36.23    3.23
  -5  -8  -3    0.70    2.44
   5   8   3    1.90    1.42
   5   8   3    2.13    1.18
   6   8   3   63.30    4.79
   6   8   3   57.00    5.39
   7   8   3   40.28    4.60
   7   8   3   46.55    4.05
   3   9   3   49.20    4.01
  -4  -9  -3   -0.17    2.88
   4   9   3    3.09    1.71
   4   9   3    2.16    1.25
   5   9   3   62.48    4.83
   5   9   3   52.08    5.21
   6   9   3   35.77    3.57
   6   9   3   29.15    4.00
  -7  -9  -3    0.10    2.89
   7   9   3    1.56    1.85
   4  10   3   47.68    4.26
   5  10   3   37.72    4.57
  -6 -10  -3    1.18    3.95
   2  10  -4   19.10    4.65
   6   9  -4    4.10    4.02
  -6  -9   4   21.26    5.89
   5   9  -4    0.51    2.58
   5   9  -4    1.46    2.05
  -5  -9   4   -1.31    1.74
   4   9  -4   40.63    5.49
  -4  -9   4   34.19    4.79
   3   9  -4   32.52    5.28
  -3  -9   4   29.82    4.58
   2   9  -4    1.27    2.36
   2   9  -4   -0.22    2.41
  -2  -9   4    2.08    1.87
   1   9  -4   42.75    6.51
   7   8  -4   17.95    7.63
  -7  -8   4   15.74    5.23
   6   8  -4    0.98    1.70
   6   8  -4    0.82    2.49
  -6  -8   4   -0.19    1.85
  -6  -8   4    0.46    2.36
   5   8  -4   29.27    4.61
  -5  -8   4   15.74    4.89
  -5  -8   4   26.60    4.26
  -4  -8   4   18.04    4.77
   3   8  -4   -0.15    2.11
   3   8  -4    3.61    2.23
  -3  -8   4    2.66    1.78
   2   8  -4   47.00    5.77
  -2  -8   4   43.70    4.65
   1   8  -4   36.10    5.65
  -1  -8   4   29.70    3.88
   0   8  -4   -0.08    1.66
  -1   8  -4    0.05    2.10
   7   7  -4    2.16    4.55
   7   7  -4   -0.40    1.53
  -7  -7   4    0.19    1.86
  -7  -7   4    0.49    2.49
   6   7  -4   62.86    5.99
   6   7  -4   27.02    8.22
  -6  -7   4   44.20    6.50
   5   7  -4   21.79    3.86
  -5  -7   4   19.87    4.62
  -5  -7   4   23.32    3.74
   4   7  -4    6.28    2.37
  -4  -7   4    4.94    2.74
  -4  -7   4    7.56    2.23
  -3  -7   4   38.36    5.35
   2   7  -4   29.31    4.84
  -1  -7   4   13.45    2.40
  -1  -7   4   11.13    2.24
   0  -7   4  104.44    7.47
   0  -7   4  104.65    7.50
  -2   7  -4    0.32    1.82
  -3   7  -4    0.27    2.22
   8   6  -4   -1.00    1.60
   8   6  -4   -0.82    3.53
  -8  -6   4    0.49    2.41
  -8  -6   4    0.94    2.21
   7   6  -4   30.76    8.55
   7   6  -4   39.44    4.82
  -7  -6   4   33.47    4.41
  -7  -6   4   35.04    5.75
   6   6  -4   44.84    5.00
  -6  -6   4   43.31    4.73
  -6  -6   4   49.10    6.33
   5   6  -4    0.89    2.16
   5   6  -4    5.27    2.03
  -5  -6   4    5.40    1.82
  -5  -6   4    7.40    2.77
   4   6  -4   82.10    7.07
  -4  -6   4   78.95    7.84
  -4  -6   4   76.02    6.13
   3   6  -4   71.90    6.57
  -3  -6   4   71.62    5.39
  -3  -6   4   58.15    6.64
   2   6  -4    7.28    2.44
  -2  -6   4    7.34    2.46
  -2  -6   4   12.00    2.03
   0  -6   4   57.43    4.50
   0  -6   4   59.15    4.82
   1  -6   4   35.29    3.39
   1  -6   4   29.25    3.00
   3  -6   4   13.17    2.38
   3  -6   4   18.85    4.61
   4  -6   4   21.17    5.21
  -9  -5   4    0.70    2.50
   8   5  -4   29.72    8.11
   8   5  -4   49.36    5.38
  -8  -5   4   32.72    5.18
  -8  -5   4   34.33    6.61
   7   5  -4   61.60    5.65
   7   5  -4   38.63    9.52
  -7  -5   4   51.14    6.68
  -7  -5   4   47.88    5.18
   6   5  -4   -1.18    2.77
   6   5  -4    0.72    1.26
  -6  -5   4    0.43    1.22
  -6  -5   4   -0.36    1.44
   5   5  -4   79.44    6.89
  -5  -5   4   89.91    8.04
  -5  -5   4   80.80    6.40
   4   5  -4   96.57    7.81
  -4  -5   4  104.85    8.57
  -4  -5   4   91.22    6.83
   3   5  -4   -0.48    1.42
   3   5  -4   -0.29    1.06
  -3  -5   4    0.68    0.96
  -3  -5   4    0.28    1.14
  -2  -5   4  149.56    9.55
  -2  -5   4  152.01   11.74
  -2  -5   4  165.85   10.20
   1   5  -4  152.58    8.98
  -1  -5   4  122.19    8.54
  -1  -5   4  111.74    7.97
   0   5  -4   26.23    1.83
   0  -5   4   18.97    2.20
   0  -5   4   23.07    2.71
   1  -5   4  148.78    9.35
   1  -5   4  138.71    8.57
   2  -5   4   75.54    5.87
   2  -5   4   83.45    8.19
   3  -5   4   30.12    4.73
   3  -5   4   31.43    3.51
   4  -5   4   81.00    6.51
   4  -5   4   86.20    8.69
   5  -5   4   20.68    4.69
   9   4  -4   27.83    4.90
   8   4  -4   32.72    8.64
   8   4  -4   47.43    5.26
  -8  -4   4   43.82    5.19
  -8  -4   4   44.69    6.55
   7   4  -4    1.01    2.93
   7   4  -4    0.42    1.41
  -7  -4   4   -0.58    1.55
  -7  -4   4    0.05    1.42
   6   4  -4   72.65   11.04
   6   4  -4   96.84    7.36
  -6  -4   4   98.65    8.88
  -6  -4   4  103.07    7.34
   5   4  -4   73.73    5.99
  -5  -4   4   67.83    5.51
  -5  -4   4   73.64    6.79
   4   4  -4    0.56    1.31
   4   4  -4    1.35    1.16
  -4  -4   4    0.90    1.03
  -4  -4   4    1.08    1.01
   3   4  -4   77.64    6.77
  -3  -4   4   83.48    5.72
  -3  -4   4   86.35    6.84
  -2  -4   4  150.56    9.41
  -2  -4   4  159.02   11.21
  -2  -4   4  162.02   10.03
   1   4  -4    8.65    1.18
  -1  -4   4    6.39    1.46
  -1  -4   4    6.87    1.23
  -1  -4   4    7.43    1.63
   0   4  -4  181.35   10.74
   0  -4   4  155.67    9.60
   0  -4   4  156.97   10.30
   1  -4   4   59.78    4.62
   1  -4   4   52.76    3.62
  -2   4  -4   23.48    2.77
   2  -4   4   17.94    3.42
   2  -4   4   18.33    1.69
   2  -4   4   20.06    2.72
   3  -4   4  127.17    9.16
   3  -4   4  133.60   10.88
   4  -4   4   46.75    4.97
   4  -4   4   52.96    5.90
   5  -4   4   13.92    3.17
   5  -4   4   15.98    3.65
   6  -4   4   65.82    7.68
   8   3  -4   -0.30    2.72
   8   3  -4   -0.79    1.64
  -8  -3   4    0.35    1.90
  -8  -3   4    0.28    1.85
   7   3  -4   53.33    8.62
   7   3  -4   69.94    5.87
  -7  -3   4   58.69    5.62
  -7  -3   4   66.66    7.12
   6   3  -4   92.97    6.82
  -6  -3   4   88.04    8.11
  -6  -3   4   81.67    6.52
   5   3  -4    1.96    2.37
   5   3  -4    0.54    0.86
  -5  -3   4    0.80    1.07
  -5  -3   4    0.04    0.93
   4   3  -4  114.38    7.87
  -4  -3   4  102.80    7.15
  -4  -3   4  118.21    8.80
   3   3  -4  118.54    8.38
  -3  -3   4  121.05    7.37
  -3  -3   4  112.88    8.65
  -2  -3   4   44.55    3.24
  -2  -3   4   43.69    3.73
   1   3  -4  372.71   21.55
  -1  -3   4  319.56   21.63
  -1  -3   4  307.71   18.45
   0   3  -4   62.85    4.29
   0  -3   4   61.16    3.96
   0  -3   4   62.39    4.47
   0  -3   4   67.04    4.87
  -1   3  -4   71.24    4.40
   1  -3   4   73.21    6.46
   1  -3   4   67.41    4.19
   1  -3   4   63.94    5.27
  -2   3  -4  149.38    9.33
   2  -3   4  146.36   10.31
   2  -3   4  163.55   11.80
   2  -3   4  159.79    8.70
  -3   3  -4   33.24    2.32
   3  -3   4   38.69    4.27
   3  -3   4   37.24    4.26
   3  -3   4   39.55    2.35
   4  -3   4   33.30    4.13
   4  -3   4   30.60    4.20
   5  -3   4  101.02    8.77
   5  -3   4  116.65    9.73
   6  -3   4   27.74    4.77
   6  -3   4   30.28    4.65
   7  -3   4   16.13    4.15
   8   2  -4   52.76    8.33
  -8  -2   4   45.72    6.45
   7   2  -4   60.84    5.21
   7   2  -4   47.92    7.65
  -7  -2   4   56.76    6.39
  -7  -2   4   48.26    4.85
   6   2  -4    1.02    1.17
   6   2  -4    1.01    2.33
  -6  -2   4    0.73    1.37
  -6  -2   4   -0.11    0.98
   5   2  -4  121.53   13.87
   5   2  -4  166.19    9.98
  -5  -2   4  155.11    9.70
  -5  -2   4  164.73   11.95
   4   2  -4  140.14    8.97
  -4  -2   4  137.44    8.59
  -4  -2   4  141.74   10.41
   3   2  -4    0.12    0.81
   3   2  -4   -0.20    0.84
  -3  -2   4    0.73    0.67
  -3  -2   4    0.47    0.72
  -2  -2   4  396.45   22.28
  -2  -2   4  396.62   21.88
  -2  -2   4  397.23   25.81
   1   2  -4  224.74   13.51
  -1  -2   4  194.59   11.54
  -1  -2   4  220.38   12.32
  -1  -2   4  185.82   13.47
   0   2  -4  152.78    9.42
   0   2  -4  142.18    8.11
   0   2  -4  124.41   10.77
   0  -2   4  140.19    8.98
   0  -2   4  141.73    8.10
   0  -2   4  143.44    9.29
  -1   2  -4  373.11   21.11
   1  -2   4  350.09   22.04
   1  -2   4  410.16   24.15
   1  -2   4  381.90   25.40
   1  -2   4  390.84   20.86
  -2   2  -4  148.72    9.32
   2  -2   4  171.80    9.03
   2  -2   4  167.45   11.63
   2  -2   4  151.40   10.55
  -3   2  -4   71.72    4.43
   3  -2   4   81.14    4.53
   3  -2   4   79.47    5.18
   3  -2   4   73.72    6.37
   3  -2   4   74.17    6.21
   4  -2   4  237.34   14.88
   4  -2   4  212.53   14.39
   4  -2   4  225.56   12.43
   4  -2   4  229.46   16.23
  -5   2  -4   36.37    4.83
   5  -2   4   59.58    5.64
   5  -2   4   53.89    5.21
   6  -2   4   34.43    4.61
   6  -2   4   42.49    5.21
   7  -2   4   78.84    7.97
   7  -2   4   60.99    6.94
   8   1  -4   45.79    8.27
  -8  -1   4   36.65    5.80
   7   1  -4    0.87    2.49
  -7  -1   4    1.93    1.89
   6   1  -4   84.90    5.80
   6   1  -4   72.05    8.64
  -6  -1   4   66.25    6.83
  -6  -1   4   66.94    5.37
   5   1  -4  118.08    7.34
   5   1  -4   84.64   10.23
  -5  -1   4  108.67    7.05
  -5  -1   4  113.41    8.90
   4   1  -4    0.18    0.65
   4   1  -4   -0.07    1.30
  -4  -1   4    0.06    0.81
  -4  -1   4    0.71    0.68
   3   1  -4  249.87   14.22
  -3  -1   4  235.81   16.62
  -3  -1   4  249.61   13.88
   2   1  -4  267.41   14.14
   2   1  -4  235.93   14.79
  -2  -1   4  255.67   16.82
  -2  -1   4  248.11   14.08
   1   1  -4   -0.55    0.70
   1   1  -4    0.27    0.53
   1   1  -4    0.57    0.43
   1   1  -4    1.31    0.54
  -1  -1   4   -0.24    0.74
  -1  -1   4    1.07    0.51
  -1  -1   4    0.31    0.68
  -1  -1   4    0.51    0.51
   0   1  -4  698.80   47.22
   0   1  -4  724.75   40.75
   0  -1   4  664.43   40.61
   0  -1   4  796.85   47.11
   0  -1   4  813.98   40.08
  -1   1  -4   54.84    3.70
  -1   1  -4   45.94    4.17
  -1   1  -4   49.69    4.40
   1  -1   4   54.63    3.53
   1  -1   4   53.93    4.32
   1  -1   4   54.58    3.89
   1  -1   4   50.59    4.45
  -2   1  -4   15.73    1.41
   2  -1   4   16.78    2.17
   2  -1   4   12.63    1.50
   2  -1   4   14.21    1.94
   2  -1   4   13.85    1.81
  -3   1  -4  242.28   13.96
   3  -1   4  243.55   14.30
   3  -1   4  251.21   15.10
   3  -1   4  247.15   17.23
   3  -1   4  293.04   16.85
   4  -1   4  105.52    6.87
   4  -1   4   94.37    7.70
   4  -1   4   83.73    6.30
   4  -1   4   94.64    5.77
   4  -1   4   92.01    6.71
   5  -1   4   43.05    3.14
   5  -1   4   47.65    4.97
   5  -1   4   44.91    4.21
   6  -1   4  194.36   14.71
   6  -1   4  183.12   12.40
   7  -1   4   31.17    4.66
   7  -1   4   27.05    4.15
   8  -1   4   24.09    5.01
  -8   0   4    1.44    2.33
   7   0  -4   53.95    7.57
  -7   0   4   50.42    6.16
   6   0  -4   64.06    7.68
  -6   0   4   56.34    6.13
   5   0  -4    4.92    2.50
   5   0  -4    2.62    1.13
  -5   0   4    2.62    1.11
  -5   0   4    2.00    1.33
   4   0  -4  174.27    9.70
   4   0  -4  146.98   13.29
  -4   0   4  159.94    9.54
  -4   0   4  163.61   11.94
   3   0  -4  208.58   17.18
   3   0  -4  231.65   12.89
  -3   0   4  238.46   15.76
  -3   0   4  227.71   12.85
   2   0  -4   12.13    1.15
   2   0  -4   10.81    1.30
   2   0  -4   10.82    1.36
  -2   0   4   11.90    1.73
  -2   0   4   10.63    1.29
   1   0  -4  288.54   17.01
   1   0  -4  308.20   20.24
   1   0  -4  298.84   17.09
  -1   0   4  328.38   17.22
  -1   0   4  316.83   20.47
  -1   0   4  314.14   17.16
   0   0  -4  129.29    7.92
   0   0  -4  138.97    9.42
   0   0   4  125.18    9.11
   0   0   4  126.45    7.98
   0   0   4  129.26    7.71
  -1   0  -4   15.06    1.57
  -1   0  -4   12.53    1.72
  -1   0  -4   15.12    1.81
   1   0   4   17.76    1.88
   1   0   4   15.68    1.85
  -2   0  -4  320.00   21.23
  -2   0  -4  321.40   17.84
  -2   0  -4  324.27   18.35
   2   0   4  328.10   21.10
   2   0   4  331.64   18.34
   2   0   4  332.89   17.94
  -3   0  -4  238.98   13.78
   3   0   4  241.31   14.47
   3   0   4  241.73   16.77
   3   0   4  284.78   17.29
   3   0   4  253.83   13.93
   4   0   4   29.18    2.13
   4   0   4   30.49    3.34
   4   0   4   28.27    2.82
   4   0   4   25.81    3.10
   5   0   4  225.90   12.48
   5   0   4  221.77   13.49
   5   0   4  217.09   15.95
   6   0   4   37.36    3.85
   6   0   4   35.29    2.67
   6   0   4   35.13    4.51
  -7   0  -4   12.95    4.10
   7   0   4   25.21    3.40
   7   0   4   23.72    4.25
   8   0   4   81.62    7.23
   8   0   4   84.66    8.74
   7  -1  -4   47.51    7.05
  -7   1   4   46.77    5.94
   6  -1  -4    2.78    2.48
  -6   1   4    1.05    1.58
   5  -1  -4  114.08   10.48
  -5   1   4  115.93    9.47
   4  -1  -4  136.18   11.19
   4  -1  -4  137.20    7.83
  -4   1   4  127.76   10.12
  -4   1   4  128.90    7.79
   3  -1  -4   10.37    1.02
   3  -1  -4    8.21    1.34
   3  -1  -4   10.01    1.10
   3  -1  -4    6.66    2.12
  -3   1   4    6.82    1.74
  -3   1   4    9.71    1.23
   2  -1  -4  355.78   19.74
   2  -1  -4  316.95   24.54
   2  -1  -4  386.47   20.31
   2  -1  -4  370.31   19.78
  -2   1   4  360.05   24.46
  -2   1   4  401.49   20.27
   1  -1  -4  218.57   12.26
   1  -1  -4  190.79   14.92
   1  -1  -4  241.41   11.95
  -1   1   4  218.94   11.75
  -1   1   4  229.34   12.37
  -1   1   4  187.52   14.80
   0  -1  -4   40.86    2.56
   0  -1  -4   39.71    2.70
   0   1   4   28.89    3.32
   0   1   4   39.99    2.77
   0   1   4   37.10    2.69
  -1  -1  -4  327.99   17.55
  -1  -1  -4  321.99   17.64
  -1  -1  -4  298.74   20.24
   1   1   4  308.07   20.37
   1   1   4  327.57   17.56
   1   1   4  336.94   17.64
  -2  -1  -4   34.80    2.34
  -2  -1  -4   33.58    3.02
   2   1   4   37.00    2.65
   2   1   4   36.15    2.38
   2   1   4   34.88    2.87
  -3  -1  -4   82.08    6.52
  -3  -1  -4   78.96    4.84
   3   1   4   86.25    5.42
   3   1   4   83.38    6.22
   3   1   4   82.64    7.19
   3   1   4   82.29    4.92
   4   1   4  316.97   18.35
   4   1   4  326.07   17.69
   4   1   4  319.92   21.47
   5   1   4   64.22    4.85
   5   1   4   62.99    5.89
   5   1   4   62.94    4.05
   6   1   4   69.68    4.48
   6   1   4   75.90    6.92
   6   1   4   64.36    5.41
   7   1   4   99.09    7.57
   7   1   4  105.76    6.40
   7   1   4  103.07    9.39
  -8  -1  -4    9.61    3.94
   8   1   4   19.34    3.99
   8   1   4   16.33    3.14
  -9  -1  -4   10.09    4.55
   9   1   4   22.78    4.15
   7  -2  -4   -0.51    2.35
  -7   2   4   -0.48    1.78
   6  -2  -4   54.53    6.89
  -6   2   4   52.79    6.04
   5  -2  -4  122.01   10.76
  -5   2   4  119.20    9.95
   4  -2  -4    0.65    1.43
  -4   2   4    0.34    1.14
   3  -2  -4  204.03   11.04
   3  -2  -4  188.61   14.29
  -3   2   4  197.01   11.08
  -3   2   4  194.45   14.31
   2  -2  -4  118.69    9.43
   2  -2  -4  134.86    7.40
  -2   2   4  131.48    7.70
  -2   2   4  124.59    9.93
   1  -2  -4    8.36    1.00
   1  -2  -4    5.92    1.35
  -1   2   4    6.45    1.77
  -1   2   4    6.54    1.18
   0  -2  -4  542.28   34.01
   0  -2  -4  534.80   29.15
   0  -2  -4  571.77   29.41
   0   2   4  553.26   29.50
   0   2   4  571.90   29.20
   0   2   4  482.16   35.33
  -1  -2  -4   99.19    5.87
  -1  -2  -4  100.40    5.79
   1   2   4   98.46    5.82
   1   2   4  102.22    5.85
  -2  -2  -4   26.81    2.53
   2   2   4   27.57    2.01
   2   2   4   26.78    2.23
   2   2   4   30.94    2.27
  -3  -2  -4  457.40   28.32
   3   2   4  433.48   23.94
   3   2   4  427.62   23.51
   3   2   4  410.25   27.57
   4   2   4  104.05    6.78
   4   2   4  106.57    6.22
   4   2   4  104.03    7.98
   5   2   4   60.61    4.75
   5   2   4   61.04    5.74
   5   2   4   64.43    4.05
   6   2   4  237.67   14.66
   6   2   4  246.57   17.59
   6   2   4  241.91   13.68
  -7  -2  -4    4.64    2.73
   7   2   4   12.27    1.55
   7   2   4   13.59    2.46
   7   2   4   15.28    3.31
   8   2   4   34.84    5.07
   8   2   4   35.71    4.10
   9   2   4   67.89    6.46
   9   2   4   66.49    7.84
   6  -3  -4   58.52    7.22
   5  -3  -4    0.56    1.77
  -5   3   4    1.16    1.65
   4  -3  -4  101.49    8.63
  -4   3   4   90.82    8.22
   3  -3  -4  232.28   16.12
  -3   3   4  212.17   16.39
  -3   3   4  230.43   12.51
   2  -3  -4    5.84    1.56
   2  -3  -4    6.25    0.82
  -2   3   4    6.48    2.13
  -2   3   4    4.71    1.23
   1  -3  -4  198.28   13.70
   1  -3  -4  212.93   11.48
  -1   3   4  210.86   15.23
  -1   3   4  207.67   11.78
   0  -3  -4  283.57   14.68
   0  -3  -4  266.08   16.82
   0   3   4  233.49   18.13
   0   3   4  279.12   14.80
   0   3   4  274.12   14.44
   0   3   4  259.34   14.46
  -1  -3  -4    1.10    0.58
  -1  -3  -4   -0.09    1.11
   1   3   4    0.79    0.50
   1   3   4    0.45    0.44
  -2  -3  -4  246.23   13.65
   2   3   4  236.42   13.50
   2   3   4  237.97   15.12
   2   3   4  239.32   13.31
  -3  -3  -4  120.22    9.74
   3   3   4  134.70    7.55
   3   3   4  125.29    7.87
   3   3   4  137.45    9.00
   4   3   4   52.20    4.51
   4   3   4   47.55    3.27
   4   3   4   48.30    3.76
   5   3   4  214.62   13.29
   5   3   4  219.57   12.62
   5   3   4  235.81   15.87
   6   3   4   29.16    3.83
   6   3   4   25.64    2.27
   6   3   4   31.12    3.11
  -7  -3  -4    9.03    3.44
   7   3   4   16.73    1.82
   7   3   4   18.59    2.87
   7   3   4   18.34    3.65
   8   3   4   91.63    5.92
   8   3   4   87.52    8.78
   8   3   4   87.86    7.08
  -9  -3  -4    5.03    3.45
   9   3   4   10.32    2.86
   9   3   4   11.09    3.55
   4  -4  -4   78.12    7.36
  -4   4   4   74.17    7.17
   3  -4  -4    1.72    1.42
  -3   4   4    2.84    1.68
   2  -4  -4  105.67    8.35
  -2   4   4  100.79    9.43
  -2   4   4  121.12    6.98
   1  -4  -4  125.46    8.88
  -1   4   4  115.15    8.17
  -1   4   4  126.48    9.52
  -1   4   4  122.57    7.42
  -1   4   4  142.38   10.52
   0   4   4    1.51    1.12
   0   4   4    0.76    0.59
   0   4   4    0.77    0.38
   0   4   4    1.61    0.80
   0   4   4    1.00    0.58
  -1  -4  -4  203.46   12.84
   1   4   4  226.74   12.34
   1   4   4  228.52   12.33
   2   4   4  157.03    9.02
   2   4   4  159.07    9.24
   3   4   4   13.40    1.67
   3   4   4   11.70    1.33
   3   4   4   13.87    1.65
   4   4   4  180.24   10.56
   4   4   4  192.33   12.85
   4   4   4  180.68   11.06
   5   4   4   78.36    4.96
   5   4   4   77.00    6.59
   5   4   4   73.55    5.47
   6   4   4   61.81    6.00
   6   4   4   60.28    4.12
   6   4   4   55.30    4.73
   7   4   4  116.64    9.94
   7   4   4  112.76    7.13
   7   4   4  111.98    8.07
  -8  -4  -4   11.88    4.22
   8   4   4   20.92    2.25
   8   4   4   20.29    3.25
   8   4   4   23.17    4.35
  -9  -4  -4    7.22    3.86
   9   4   4   17.20    4.19
   9   4   4   17.77    3.38
   9   4   4   14.36    2.11
  -3   5   4  109.04    9.44
  -2   5   4   87.50    8.25
   1  -5  -4    6.37    1.87
  -1   5   4    5.88    1.14
  -1   5   4    5.10    2.06
   0   5   4  165.62    9.71
   0   5   4  181.45   10.02
   0   5   4  177.48   13.07
   1   5   4  123.19    7.32
   1   5   4  124.80    7.19
   1   5   4  117.22    7.17
   2   5   4   23.30    2.10
   2   5   4   22.40    1.88
   3   5   4  298.96   18.25
   3   5   4  277.54   15.70
   3   5   4  263.02   16.00
   4   5   4   73.83    5.65
   4   5   4   62.19    4.80
   4   5   4   63.66    4.36
   5   5   4   20.29    2.42
   5   5   4   20.87    3.02
   5   5   4   21.19    2.02
   6   5   4  163.97   11.13
   6   5   4  184.88   13.44
   6   5   4  180.76   10.52
   7   5   4   32.71    4.45
   7   5   4   29.26    3.47
   7   5   4   29.95    2.73
   8   5   4   13.20    2.73
   8   5   4   16.16    2.09
   8   5   4   12.71    3.41
   9   5   4   71.83    5.16
   9   5   4   70.94    7.93
   9   5   4   62.94    6.12
  -1   6   4  102.48    9.02
   0   6   4   96.91    6.12
   0   6   4  103.72    8.57
   1   6   4   11.02    1.33
   1   6   4    9.97    1.40
   2   6   4  176.32    9.91
   2   6   4  163.19   10.09
   3   6   4  102.34    6.55
   3   6   4   98.51    6.85
   3   6   4  117.50    7.73
   4   6   4   42.58    4.00
   4   6   4   36.03    3.36
   4   6   4   38.68    3.04
   5   6   4  149.80   10.81
   5   6   4  129.75    9.07
   5   6   4  141.68    8.59
   6   6   4   43.76    4.86
   6   6   4   39.11    3.30
   6   6   4   36.56    3.79
   7   6   4   21.18    2.34
   7   6   4   15.17    2.71
   7   6   4   18.32    3.81
   8   6   4   94.22    6.44
   8   6   4   87.16    7.29
   8   6   4   96.74    9.14
  -9  -6  -4    6.05    3.73
   9   6   4   17.19    2.49
   9   6   4   17.33    4.29
   0   7   4    0.58    1.46
   1   7   4  127.95    7.67
   1   7   4  124.14   10.10
   2   7   4   82.65    5.77
   2   7   4   88.18    5.54
   3   7   4   15.76    2.12
   3   7   4   17.60    1.92
   4   7   4   98.02    6.24
   4   7   4   90.18    6.62
   5   7   4   57.67    4.86
   5   7   4   57.67    4.30
   6   7   4   16.09    2.78
   6   7   4   18.69    2.26
   7   7   4   71.49    5.07
   7   7   4   56.92    5.48
   7   7   4   66.91    6.96
  -8  -7  -4    3.79    3.38
   8   7   4   13.68    2.86
   8   7   4   14.57    3.72
   8   7   4   14.92    2.32
   9   7   4   14.21    4.11
  -2  -8  -4    1.30    2.48
   2   8   4    0.07    0.91
   3   8   4   71.81    4.93
   3   8   4   66.00    5.24
   4   8   4   29.24    3.27
   4   8   4   28.34    2.82
  -5  -8  -4    1.30    2.73
   5   8   4    5.44    1.78
   5   8   4    5.84    1.50
   6   8   4   58.28    5.28
   6   8   4   56.01    4.57
   7   8   4   19.47    2.51
   7   8   4   17.58    3.20
  -4  -9  -4    2.25    3.50
   4   9   4   10.50    1.97
   4   9   4   11.44    2.42
   5   9   4   42.13    4.48
   5   9   4   47.19    4.10
   6   9   4   20.89    2.67
   6   9   4   16.66    3.11
  -7  -9  -4    2.09    3.60
   7   9   4   10.13    2.71
   4  10   4   40.15    3.88
  -5 -10  -4    1.83    4.03
   6  10   4    4.30    2.35
   6   9  -5    0.84    3.61
   5   9  -5    0.35    2.57
   4   9  -5   45.62    5.99
  -4  -9   5   41.40    5.22
   3   9  -5   18.78    4.31
  -3  -9   5   14.96    3.30
   2   9  -5   -0.14    2.44
   2   9  -5   10.32    3.56
  -2  -9   5    6.49    2.61
   1   9  -5   42.77    6.72
   7   8  -5    6.64    6.52
  -7  -8   5   16.13    5.06
   6   8  -5    2.21    2.24
   6   8  -5   -0.27    2.79
  -6  -8   5    1.08    1.91
  -6  -8   5    1.34    2.69
  -5  -8   5   25.79    5.77
   4   8  -5   36.96    5.67
  -4  -8   5   34.35    4.33
   3   8  -5    6.68    2.85
  -3  -8   5    6.60    2.24
   2   8  -5   50.42    6.34
  -2  -8   5   50.35    4.92
  -1  -8   5   21.14    3.40
   0   8  -5    0.02    1.90
   0  -8   5    6.87    2.05
  -2   8  -5    0.31    2.60
   7   7  -5    1.89    4.89
   7   7  -5    1.80    2.27
  -7  -7   5    0.18    1.93
  -7  -7   5    3.82    3.06
   6   7  -5   56.56    6.27
  -6  -7   5   50.76    7.17
  -6  -7   5   62.62    6.04
   5   7  -5   34.68    4.72
  -5  -7   5   31.68    4.01
  -5  -7   5   27.70    5.39
   4   7  -5    5.53    2.40
   4   7  -5   -0.78    2.19
  -4  -7   5    5.10    1.90
  -4  -7   5    3.35    2.46
   3   7  -5   62.30    6.49
  -3  -7   5   43.88    6.04
   2   7  -5   26.15    4.69
  -2  -7   5   29.70    3.32
  -1  -7   5    6.95    1.88
  -1  -7   5    7.11    1.97
   0  -7   5   83.55    6.34
   0  -7   5   91.22    6.85
   1  -7   5   14.88    2.66
   2  -7   5   17.93    2.93
  -3   7  -5    0.46    2.51
   8   6  -5    1.37    2.25
  -8  -6   5    2.45    2.34
   7   6  -5   40.41    5.08
   7   6  -5   25.19    8.81
  -7  -6   5   38.74    6.07
  -7  -6   5   39.56    4.90
   6   6  -5   16.82    7.03
   6   6  -5   35.65    4.66
  -6  -6   5   39.87    4.32
  -6  -6   5   33.42    5.10
   5   6  -5   13.34    3.20
  -5  -6   5   14.17    2.74
  -5  -6   5   13.15    3.34
   4   6  -5  121.06    9.91
  -4  -6   5  122.94   10.64
  -4  -6   5  124.17    8.62
   3   6  -5   41.21    5.23
  -3  -6   5   45.67    4.11
  -3  -6   5   47.09    5.38
  -2  -6   5   38.57    4.02
  -2  -6   5   40.75    3.57
  -2  -6   5   29.40    4.31
  -1  -6   5   34.98    4.00
   0  -6   5   42.21    4.00
   0  -6   5   38.73    3.41
   1  -6   5   32.58    3.56
   1  -6   5   32.40    3.01
   3  -6   5    9.87    2.26
   4  -6   5   26.22    5.88
   8   5  -5   47.40    5.58
   8   5  -5   28.17    8.71
  -8  -5   5   34.72    5.34
  -8  -5   5   35.63    6.76
   7   5  -5   42.66    5.06
   7   5  -5   35.76    9.81
  -7  -5   5   44.22    6.19
  -7  -5   5   41.25    4.83
   6   5  -5    1.63    3.62
   6   5  -5    5.35    2.06
  -6  -5   5    2.48    1.57
  -6  -5   5    5.07    2.37
   5   5  -5   81.91    7.25
  -5  -5   5   87.01    6.57
  -5  -5   5   82.66    7.82
   4   5  -5   53.28    5.59
  -4  -5   5   56.82    5.59
  -4  -5   5   49.96    4.47
   3   5  -5   17.39    3.53
  -3  -5   5   18.91    2.46
  -3  -5   5   20.81    3.01
  -2  -5   5  136.24   10.38
  -2  -5   5  138.56    9.35
  -2  -5   5  133.21    8.56
  -1  -5   5   59.86    5.73
  -1  -5   5   71.50    4.82
  -1  -5   5   70.14    5.48
   1  -5   5  175.59   11.36
   1  -5   5  176.85   10.37
   2  -5   5   43.32    3.24
   2  -5   5   43.26    4.25
   3  -5   5   59.46    5.26
   3  -5   5   53.04    6.66
   4  -5   5   79.36    6.84
   4  -5   5   91.10    9.12
   5  -5   5    7.47    3.31
   8   4  -5   14.90    6.41
   8   4  -5   30.53    4.74
  -8  -4   5   25.79    5.40
  -8  -4   5   25.49    4.30
   7   4  -5    2.00    3.61
   7   4  -5    0.65    1.63
  -7  -4   5    0.37    1.42
  -7  -4   5    0.98    1.85
   6   4  -5   64.76    5.81
  -6  -4   5   66.07    6.81
  -6  -4   5   56.49    5.29
   5   4  -5   34.30    4.09
  -5  -4   5   39.22    3.77
  -5  -4   5   37.32    4.46
   4   4  -5   10.27    2.57
  -4  -4   5    9.42    1.82
  -4  -4   5   12.18    2.49
   3   4  -5  144.36   11.42
  -3  -4   5  171.42   10.11
  -3  -4   5  167.97   11.86
  -2  -4   5   93.96    6.28
  -2  -4   5   95.94    7.06
  -2  -4   5  101.09    7.41
   1   4  -5   22.61    1.96
  -1  -4   5   18.21    2.50
  -1  -4   5   15.94    1.86
  -1  -4   5   17.79    2.16
   0   4  -5  276.21   16.56
   0  -4   5  226.61   16.88
   0  -4   5  274.00   15.64
   0  -4   5  251.88   14.50
   1  -4   5   50.86    3.49
   1  -4   5   52.40    4.54
   2  -4   5   65.28    4.25
   2  -4   5   68.13    5.78
   2  -4   5   72.25    7.07
   3  -4   5  138.01   11.85
   3  -4   5  152.98   10.45
   4  -4   5   22.78    4.37
   4  -4   5   20.23    3.76
   5  -4   5   30.51    4.73
   5  -4   5   34.08    5.08
   6  -4   5   72.14    8.23
   8   3  -5    3.43    4.14
  -8  -3   5    1.38    2.31
   7   3  -5   57.68   10.66
   7   3  -5   71.24    6.13
  -7  -3   5   64.53    5.83
  -7  -3   5   65.89    7.31
   6   3  -5   35.64    8.41
   6   3  -5   51.39    4.57
  -6  -3   5   41.11    4.07
  -6  -3   5   36.27    4.86
   5   3  -5    3.46    3.09
   5   3  -5    9.59    2.18
  -5  -3   5   10.27    2.39
  -5  -3   5   11.01    2.01
   4   3  -5  131.36    9.09
  -4  -3   5  131.38    9.81
  -4  -3   5  118.82    8.06
   3   3  -5   97.65    7.99
  -3  -3   5  104.04    7.89
  -3  -3   5  106.42    6.72
  -2  -3   5   32.71    3.04
  -2  -3   5   29.99    3.19
  -2  -3   5   32.00    2.65
   1   3  -5  226.79   13.24
  -1  -3   5  185.07   11.39
  -1  -3   5  195.95   12.35
  -1  -3   5  187.83   13.23
   0   3  -5  248.09   15.62
   0  -3   5  230.59   15.50
   0  -3   5  234.20   13.46
   0  -3   5  247.10   14.61
   1  -3   5    6.69    1.91
   1  -3   5    4.38    0.81
  -2   3  -5  216.49   12.80
   2  -3   5  210.21   11.94
   2  -3   5  209.02   15.63
   2  -3   5  223.51   13.96
  -3   3  -5   25.02    2.09
   3  -3   5   26.26    1.91
   3  -3   5   27.00    3.68
   3  -3   5   28.12    3.76
   4  -3   5   39.37    4.72
   4  -3   5   37.09    4.77
   5  -3   5   96.29    8.69
   5  -3   5   87.41    8.08
   6  -3   5    6.79    3.00
   6  -3   5    6.87    2.71
   8   2  -5   39.34    8.24
  -8  -2   5   44.76    6.41
   7   2  -5   60.44    5.28
   7   2  -5   51.28    8.36
  -7  -2   5   48.53    6.25
  -7  -2   5   54.91    5.13
   6   2  -5    8.64    2.07
   6   2  -5    3.97    3.44
  -6  -2   5   11.29    2.82
  -6  -2   5    7.50    1.88
   5   2  -5  167.28   10.39
   5   2  -5  141.64   15.33
  -5  -2   5  164.56   12.33
  -5  -2   5  157.64   10.03
   4   2  -5   84.32    6.06
  -4  -2   5   80.33    5.49
  -4  -2   5   74.98    6.61
   3   2  -5    8.50    1.99
  -3  -2   5    6.64    1.25
  -3  -2   5    5.70    1.44
  -2  -2   5  322.28   18.97
  -2  -2   5  362.37   19.74
  -2  -2   5  340.06   22.45
   1   2  -5  228.34   14.38
  -1  -2   5  225.96   13.30
  -1  -2   5  209.38   14.42
  -1  -2   5  209.16   12.32
   0   2  -5  105.82    7.49
   0  -2   5  108.04    7.25
   0  -2   5  109.78    6.40
   0  -2   5  100.41    7.30
  -1   2  -5  192.06   12.39
   1  -2   5  221.87   13.58
   1  -2   5  218.66   12.19
   1  -2   5  230.56   13.97
  -2   2  -5   41.80    3.60
   2  -2   5   52.86    3.50
   2  -2   5   52.35    4.86
   2  -2   5   50.66    4.77
   2  -2   5   52.09    3.28
   2  -2   5   41.94    3.39
  -3   2  -5   82.21    5.21
   3  -2   5   90.98    5.89
   3  -2   5   83.68    7.20
   3  -2   5   80.88    6.84
   3  -2   5   94.23    5.35
   4  -2   5  141.91    7.76
   4  -2   5  124.95    9.60
   4  -2   5  129.82   10.41
   5  -2   5   35.07    4.42
   5  -2   5   32.23    4.23
   6  -2   5   48.70    5.67
   6  -2   5   56.37    6.20
   7  -2   5   76.51    7.65
   7  -2   5   80.39    8.35
  -8  -1   5   38.19    6.06
   7   1  -5    0.66    2.75
  -7  -1   5    1.05    1.69
   6   1  -5  102.97   11.12
   6   1  -5  100.97    7.02
  -6  -1   5   90.13    6.77
  -6  -1   5   96.42    8.79
   5   1  -5   75.69    5.38
   5   1  -5   65.38    8.73
  -5  -1   5   72.82    6.68
  -5  -1   5   67.86    5.13
   4   1  -5    1.11    0.91
   4   1  -5    1.82    2.25
  -4  -1   5    1.28    1.07
  -4  -1   5    1.35    0.88
   3   1  -5  249.87   14.68
  -3  -1   5  252.73   14.20
  -3  -1   5  242.04   17.04
   2   1  -5  148.01    8.59
  -2  -1   5  146.70   10.37
  -2  -1   5  144.50    8.86
  -2  -1   5  145.36    8.61
   1   1  -5   57.22    4.32
   1   1  -5   50.34    3.88
  -1  -1   5   55.91    3.75
  -1  -1   5   56.56    4.38
  -1  -1   5   57.00    4.46
   0   1  -5  587.88   39.42
   0   1  -5  587.96   34.04
   0   1  -5  596.87   33.29
   0  -1   5  642.13   33.36
   0  -1   5  622.05   39.18
   0  -1   5  625.74   34.13
  -1   1  -5  126.25    7.52
  -1   1  -5  106.88    9.02
   1  -1   5  113.96    8.34
   1  -1   5  126.25    8.23
   1  -1   5  130.74    7.39
  -2   1  -5   51.82    3.66
   2  -1   5   54.69    4.72
   2  -1   5   52.82    4.41
   2  -1   5   50.55    3.70
  -3   1  -5  247.61   14.43
   3  -1   5  265.46   15.69
   3  -1   5  247.49   14.77
   3  -1   5  251.40   17.69
   3  -1   5  296.78   17.53
  -4   1  -5   32.68    2.35
   4  -1   5   42.00    3.31
   4  -1   5   32.44    3.76
   4  -1   5   32.18    2.76
   4  -1   5   40.00    3.72
   5  -1   5   57.71    4.23
   5  -1   5   65.41    6.11
   5  -1   5   66.91    5.50
   6  -1   5  152.52   10.76
   6  -1   5  156.49   12.47
   7  -1   5   15.47    3.35
   7  -1   5   15.24    3.54
   8  -1   5   30.79    5.00
   8  -1   5   29.46    5.01
   7   0  -5   39.25    7.33
  -7   0   5   34.50    5.33
   6   0  -5   47.00    6.72
  -6   0   5   37.02    4.96
   5   0  -5    2.02    1.06
   5   0  -5    2.67    2.30
  -5   0   5    1.96    1.47
  -5   0   5    0.85    0.96
   4   0  -5   92.02    5.69
   4   0  -5   74.02    8.74
  -4   0   5   84.38    5.63
  -4   0   5   89.33    7.42
   3   0  -5  146.23    8.08
   3   0  -5  143.27    8.34
   3   0  -5  110.28   11.70
  -3   0   5  141.25    8.34
  -3   0   5  142.89   10.44
   2   0  -5   10.59    1.24
   2   0  -5   10.41    1.68
  -2   0   5   12.81    1.50
  -2   0   5   11.68    1.90
   1   0  -5  231.37   13.68
   1   0  -5  224.22   13.65
  -1   0   5  243.95   13.77
  -1   0   5  260.59   14.04
  -1   0   5  247.50   16.51
   0   0  -5   59.60    4.50
   0   0  -5   68.30    5.47
   0   0   5   60.77    4.30
   0   0   5   64.10    5.15
   0   0   5   61.76    4.60
  -1   0  -5   99.85    6.41
  -1   0  -5   84.28    7.22
  -1   0  -5   99.23    6.10
   1   0   5   94.84    6.01
   1   0   5  101.55    6.40
   1   0   5   98.97    6.96
  -2   0  -5  466.27   25.65
  -2   0  -5  441.17   30.12
   2   0   5  478.65   30.12
   2   0   5  481.11   25.75
   2   0   5  479.59   26.16
   3   0   5   73.86    4.75
   3   0   5   74.89    5.29
   3   0   5   77.57    5.98
   3   0   5   77.25    6.54
   4   0   5   61.18    4.73
   4   0   5   62.18    5.43
   4   0   5   61.35    4.02
   5   0   5  159.58    9.13
   5   0   5  150.03   10.09
   5   0   5  157.32   11.85
   6   0   5   25.44    3.17
   6   0   5   23.32    2.22
   6   0   5   26.80    3.77
   7   0   5   47.68    4.99
   7   0   5   52.88    5.99
   8   0   5   85.40    8.66
   8   0   5   79.00    7.30
   9   0   5    2.40    2.72
   7  -1  -5   38.27    7.10
  -7   1   5   29.95    5.67
   6  -1  -5    4.27    3.04
  -6   1   5    4.94    2.24
   5  -1  -5   99.15    9.38
  -5   1   5   83.22    7.99
   4  -1  -5   12.44    3.15
   4  -1  -5   12.93    1.53
  -4   1   5   14.85    2.89
  -4   1   5   14.80    1.76
   3  -1  -5   35.68    2.41
   3  -1  -5   33.88    2.31
   3  -1  -5   29.49    4.40
  -3   1   5   34.22    3.93
  -3   1   5   38.63    2.87
   2  -1  -5  323.17   17.42
   2  -1  -5  307.70   22.39
   2  -1  -5  305.98   17.43
  -2   1   5  348.53   18.07
  -2   1   5  309.61   21.89
   1  -1  -5   93.25    5.40
   1  -1  -5   93.27    5.73
  -1   1   5   77.16    7.03
  -1   1   5   90.01    5.33
  -1   1   5   88.83    5.76
   0  -1  -5  222.28   12.06
   0  -1  -5  227.00   11.90
   0   1   5  202.87   12.06
   0   1   5  196.11   14.46
   0   1   5  195.91   11.97
  -1  -1  -5  319.67   17.09
  -1  -1  -5  324.11   17.20
  -1  -1  -5  267.09   19.73
   1   1   5  313.01   17.07
   1   1   5  311.90   17.13
  -2  -1  -5  126.28    7.65
  -2  -1  -5  118.75    8.66
   2   1   5  123.52    8.56
   2   1   5  128.54    7.31
   2   1   5  128.00    7.57
   3   1   5   31.96    3.07
   3   1   5   34.97    2.86
   3   1   5   33.66    2.42
   4   1   5  295.12   16.93
   4   1   5  298.50   16.25
   4   1   5  281.29   19.50
   5   1   5   75.56    6.73
   5   1   5   76.45    5.75
   5   1   5   82.63    5.00
   6   1   5   85.76    7.76
   6   1   5   87.23    5.51
   6   1   5   87.20    6.52
   7   1   5  119.03    8.43
   7   1   5  108.08    9.84
   7   1   5  112.43    7.02
  -8  -1  -5    5.03    3.26
   8   1   5    8.82    2.92
   8   1   5   10.00    2.67
   9   1   5   32.18    4.94
   7  -2  -5   -0.32    2.48
  -7   2   5    1.66    2.56
   6  -2  -5   64.69    7.73
  -6   2   5   59.98    7.02
   5  -2  -5   68.39    7.40
  -5   2   5   62.40    6.75
   4  -2  -5    6.49    2.32
  -4   2   5    8.07    2.41
   3  -2  -5  251.61   18.38
  -3   2   5  275.72   14.77
  -3   2   5  245.96   18.66
   2  -2  -5   96.97    8.10
   2  -2  -5  113.74    6.32
  -2   2   5  100.47    6.57
  -2   2   5   96.12    8.62
   1  -2  -5   83.75    5.04
   1  -2  -5   75.40    6.28
  -1   2   5   78.71    5.27
  -1   2   5   83.18    6.99
   0  -2  -5  481.87   33.34
   0  -2  -5  539.12   28.31
   0   2   5  483.68   34.47
   0   2   5  574.08   28.53
   0   2   5  545.09   28.77
  -1  -2  -5   51.33    3.42
  -1  -2  -5   51.21    3.63
   1   2   5   54.14    3.49
   1   2   5   54.78    3.45
  -2  -2  -5   38.87    3.21
   2   2   5   41.20    3.05
   2   2   5   38.32    2.70
   2   2   5   38.60    2.87
  -3  -2  -5  403.13   26.81
   3   2   5  406.27   26.31
   3   2   5  421.52   22.60
   3   2   5  417.55   22.99
   4   2   5   45.69    3.16
   4   2   5   46.41    4.17
   4   2   5   47.18    3.74
   5   2   5   41.26    4.37
   5   2   5   46.15    3.90
   5   2   5   45.09    3.16
   6   2   5  137.09   11.07
   6   2   5  144.11    9.42
   6   2   5  141.54    8.41
  -7  -2  -5    3.17    2.46
   7   2   5    7.16    2.48
   7   2   5    8.33    1.39
   7   2   5    8.17    2.09
   8   2   5   48.55    5.16
   8   2   5   56.77    6.42
   9   2   5   53.88    6.87
   9   2   5   56.82    5.95
  -6   3   5   40.66    5.80
   5  -3  -5    2.61    2.31
  -5   3   5    1.16    2.04
   4  -3  -5   81.13    7.64
  -4   3   5   76.51    7.69
   3  -3  -5   90.20    7.83
  -3   3   5  100.70    5.88
  -3   3   5   79.60    8.26
   2  -3  -5   15.60    2.41
   2  -3  -5   17.71    1.52
  -2   3   5   15.12    3.35
  -2   3   5   18.14    2.18
   1  -3  -5  214.90   14.77
  -1   3   5  244.29   16.49
  -1   3   5  214.64   12.79
   0  -3  -5  101.65    5.89
   0   3   5  104.31    5.73
   0   3   5   90.25    7.90
   0   3   5  104.52    6.16
  -1  -3  -5   31.88    2.37
   1   3   5   30.86    2.26
   1   3   5   32.40    2.37
  -2  -3  -5  203.39   12.11
   2   3   5  217.03   12.07
   2   3   5  213.66   11.91
  -3  -3  -5   72.42    5.75
   3   3   5   59.06    3.99
   3   3   5   62.93    4.62
   3   3   5   59.34    4.28
   4   3   5   81.18    6.24
   4   3   5   80.12    5.52
   4   3   5   80.09    5.04
   5   3   5  242.41   13.85
   5   3   5  249.18   16.97
   5   3   5  242.76   14.57
   6   3   5    9.56    2.01
   6   3   5   13.05    1.57
   6   3   5   13.19    2.73
   7   3   5   46.09    4.32
   7   3   5   41.58    3.34
   7   3   5   45.65    5.24
   8   3   5   92.53    6.07
   8   3   5   88.16    8.72
   8   3   5   92.04    7.26
  -9  -3  -5    2.10    2.86
   9   3   5    0.42    1.75
   9   3   5    0.87    1.93
  -4   4   5   43.53    5.56
   3  -4  -5    1.86    1.49
  -3   4   5    3.28    2.23
   2  -4  -5  102.94    8.05
  -2   4   5   83.87    9.08
  -2   4   5  121.48    6.91
   1  -4  -5   76.67    5.80
  -1   4   5   85.09    7.40
  -1   4   5   71.92    4.98
   0   4   5   32.61    3.92
   0   4   5   39.26    2.33
   0   4   5   35.51    2.44
   0   4   5   38.29    2.80
  -1  -4  -5  200.88   11.31
   1   4   5  186.21   10.83
   1   4   5  185.13   10.69
   2   4   5   54.83    3.80
   2   4   5   58.03    3.72
   3   4   5   23.79    1.95
   3   4   5   22.00    1.98
   3   4   5   20.59    2.12
   4   4   5  201.71   13.23
   4   4   5  187.13   11.14
   4   4   5  195.11   11.67
   5   4   5   29.72    2.42
   5   4   5   26.73    2.83
   5   4   5   30.33    3.38
   6   4   5   72.37    5.70
   6   4   5   76.35    5.06
   6   4   5   79.02    6.91
   7   4   5   73.93    7.05
   7   4   5   70.58    5.80
   7   4   5   70.12    4.90
  -8  -4  -5    0.84    2.41
   8   4   5    4.05    1.23
   8   4   5    2.65    1.67
   8   4   5    4.38    2.26
   9   4   5   28.71    3.97
   9   4   5   27.98    2.86
   9   4   5   33.21    5.07
  -3   5   5  102.29    9.63
  -2   5   5   31.67    4.80
  -1   5   5   24.97    3.72
  -1   5   5   19.29    2.18
   0   5   5  129.94    7.53
   0   5   5  133.89   10.67
   0   5   5  143.04    8.12
   1   5   5   38.12    2.69
   1   5   5   36.46    2.79
   1   5   5   38.25    2.85
   2   5   5   27.47    2.28
   2   5   5   25.53    2.17
   3   5   5  229.78   13.15
   3   5   5  232.85   13.46
   4   5   5   30.04    3.05
   4   5   5   37.83    3.34
   4   5   5   37.24    2.79
   5   5   5   38.91    3.11
   5   5   5   45.30    4.23
   5   5   5   39.72    3.60
   6   5   5  132.53    9.33
   6   5   5  146.58    8.72
   6   5   5  145.49   11.02
  -7  -5  -5    3.44    2.56
   7   5   5   13.03    3.01
   7   5   5   10.25    1.64
   7   5   5    9.61    2.12
   8   5   5   29.33    2.87
   8   5   5   28.43    4.44
   8   5   5   29.16    3.70
   9   5   5   54.06    6.75
   9   5   5   58.85    4.52
   9   5   5   52.72    5.45
  -2   6   5   16.60    3.78
  -1   6   5  135.73   11.27
   0   6   5   76.84    7.10
   0   6   5   75.01    5.03
   1   6   5   55.19    5.41
   1   6   5   52.87    3.68
   1   6   5   55.64    3.80
   2   6   5  184.07   10.86
   2   6   5  185.31   10.74
   3   6   5   75.21    5.18
   3   6   5   72.38    4.87
   4   6   5   39.76    3.43
   4   6   5   38.80    3.45
   4   6   5   36.76    3.01
   5   6   5  144.75   10.11
   5   6   5  162.45    9.70
   5   6   5  173.56   11.64
   6   6   5   15.87    2.98
   6   6   5   14.46    1.87
   6   6   5   14.38    2.44
   7   6   5   18.90    3.01
   7   6   5   23.76    3.72
   7   6   5   20.62    2.32
   8   6   5   65.57    5.97
   8   6   5   68.06    7.28
   8   6   5   74.14    5.30
   9   6   5    5.67    1.68
   9   6   5    6.55    2.94
   0   7   5   12.14    2.96
   1   7   5   93.61    6.20
   1   7   5  103.64    8.59
   2   7   5   36.09    3.13
   2   7   5   36.57    2.98
   3   7   5   30.29    2.63
   3   7   5   29.79    2.94
   4   7   5  108.88    6.93
   4   7   5  105.39    7.31
   5   7   5   31.78    3.32
   5   7   5   33.08    3.01
   6   7   5   36.67    3.31
   6   7   5   35.78    3.82
   7   7   5   56.37    5.31
   7   7   5   61.46    4.71
  -8  -7  -5    0.75    2.81
   8   7   5    6.36    1.69
   8   7   5    6.65    2.26
   1   8   5   29.80    4.15
   2   8   5   17.75    3.44
   2   8   5   19.00    2.15
   4   8   5   11.39    1.91
   4   8   5   12.64    2.30
   5   8   5   31.34    2.98
   5   8   5   28.42    3.38
   6   8   5   62.81    5.78
   6   8   5   76.18    5.43
  -7  -8  -5   -0.10    2.57
   7   8   5    6.27    2.15
   7   8   5    5.31    1.68
  -3  -9  -5    1.70    3.60
  -4  -9  -5    1.21    3.15
   4   9   5   18.43    2.32
   5   9   5   64.33    5.62
   5   9   5   65.25    5.14
   6   9   5   11.35    2.62
   6   9   5   13.10    2.38
   7   9   5   16.24    3.28
   4  10   5   38.50    3.82
  -5 -10  -5    0.27    3.67
   6  10   5   13.11    3.12
   5   9  -6    0.05    2.72
   3   9  -6    1.72    3.33
   3   9  -6   10.13    3.68
  -3  -9   6    5.45    2.47
   2   9  -6   17.28    4.56
  -2  -9   6   16.21    3.46
   1   9  -6   39.58    6.69
   0   9  -6    1.13    3.13
   6   8  -6   -0.36    2.67
  -6  -8   6    4.44    3.36
   5   8  -6   33.25    5.43
  -5  -8   6   33.74    4.38
  -5  -8   6   22.75    5.58
   4   8  -6   13.77    3.73
  -4  -8   6   13.99    3.06
   3   8  -6    9.00    3.41
  -3  -8   6   15.35    2.92
   2   8  -6   43.46    5.96
  -2  -8   6   48.84    4.75
   1   8  -6   -0.87    1.81
  -1  -8   6    3.95    1.75
  -1  -8   6    5.33    2.13
   0  -8   6   22.44    3.62
  -2   8  -6    1.69    2.88
   7   7  -6    1.61    4.62
  -7  -7   6    5.36    3.31
   6   7  -6   45.60    5.95
  -6  -7   6   53.33    5.56
  -6  -7   6   45.29    6.70
   5   7  -6   14.76    3.69
  -5  -7   6   13.11    3.90
  -5  -7   6   21.24    3.43
   4   7  -6   15.53    3.80
  -4  -7   6   14.86    3.86
  -4  -7   6   14.01    2.72
   3   7  -6   64.08    7.00
  -3  -7   6   70.08    5.54
  -3  -7   6   51.07    6.75
  -2  -7   6   11.45    2.30
  -1  -7   6   23.60    3.62
  -1  -7   6   22.79    2.93
   0  -7   6   67.36    5.38
   0  -7   6   71.04    6.05
  -1   7  -6    0.32    1.85
   1  -7   6    4.12    1.91
  -3   7  -6    0.51    2.38
   7   6  -6   42.63    5.57
   7   6  -6   25.68    9.38
  -7  -6   6   41.19    4.95
  -7  -6   6   38.14    6.23
   6   6  -6   39.76    5.28
  -6  -6   6   32.10    5.11
  -6  -6   6   30.76    4.02
   5   6  -6   17.37    3.85
  -5  -6   6   18.19    3.05
  -5  -6   6   15.37    3.55
   4   6  -6   82.46    8.33
  -4  -6   6  102.29    7.26
  -4  -6   6   95.43    8.74
   3   6  -6   15.71    3.78
  -3  -6   6   16.94    3.42
  -3  -6   6   15.16    2.49
  -2  -6   6   39.51    4.79
  -2  -6   6   44.76    4.51
  -2  -6   6   38.69    3.64
  -1  -6   6  100.82    7.57
  -1  -6   6   95.06    6.67
   0  -6   6   17.46    2.98
   0  -6   6   18.44    2.25
   1  -6   6   30.67    2.94
   1  -6   6   31.66    3.73
  -3   6  -6   -0.04    1.97
   3  -6   6    0.75    1.61
   4  -6   6   40.98    6.70
   8   5  -6   37.84    5.74
  -8  -5   6   30.61    5.12
   7   5  -6   28.85    4.68
   7   5  -6   10.69    6.17
  -7  -5   6   28.25    5.40
  -7  -5   6   20.79    3.76
   6   5  -6    8.53    2.81
   6   5  -6    6.85    5.11
  -6  -5   6   10.45    3.15
  -6  -5   6   10.34    2.57
   5   5  -6  103.44    8.66
  -5  -5   6   99.18    8.85
  -5  -5   6   93.60    7.26
   4   5  -6   30.41    4.93
  -4  -5   6   37.81    4.39
  -4  -5   6   34.02    3.49
   3   5  -6   41.05    5.57
  -3  -5   6   55.48    5.23
  -3  -5   6   56.93    4.47
  -2  -5   6  166.32   12.13
  -2  -5   6  168.32   10.28
  -2  -5   6  159.92   11.21
  -1  -5   6   30.09    3.55
  -1  -5   6   26.42    3.19
  -1  -5   6   24.05    2.49
   0  -5   6   38.25    3.33
   1  -5   6  178.48   11.53
   1  -5   6  166.29   10.14
   2  -5   6   24.83    2.31
   2  -5   6   25.92    3.36
   3  -5   6   60.35    5.80
   3  -5   6   66.04    7.56
   4  -5   6   82.56    7.22
   4  -5   6   85.09    9.13
   5  -5   6    1.08    2.49
   8   4  -6   15.08    3.70
  -8  -4   6   13.35    3.53
   7   4  -6    3.92    2.12
   7   4  -6    4.97    4.91
  -7  -4   6    5.99    2.79
  -7  -4   6    4.24    2.01
   6   4  -6   65.10    6.20
  -6  -4   6   64.16    6.97
  -6  -4   6   70.20    5.83
   5   4  -6   29.37    3.93
  -5  -4   6   24.96    3.13
  -5  -4   6   27.41    3.81
   4   4  -6   47.52    5.32
  -4  -4   6   44.96    4.78
  -4  -4   6   50.19    4.19
  -3  -4   6  149.97    9.66
  -3  -4   6  159.05   11.39
  -2  -4   6   17.80    2.09
  -2  -4   6   14.78    2.75
  -2  -4   6   17.38    2.24
   1   4  -6   42.26    3.27
  -1  -4   6   39.27    3.11
  -1  -4   6   34.20    3.38
  -1  -4   6   44.88    4.26
   0   4  -6  225.20   14.84
   0  -4   6  234.92   14.22
   0  -4   6  232.94   14.88
   0  -4   6  205.45   12.81
   1  -4   6   22.13    2.07
   1  -4   6   24.45    3.13
   2  -4   6  108.34    6.62
   2  -4   6  113.97   10.01
   2  -4   6  110.19    8.34
   3  -4   6  149.67   12.31
   3  -4   6  142.99   10.58
   3  -4   6  143.17    8.38
   4  -4   6    4.01    2.14
   4  -4   6    4.65    2.25
   5  -4   6   65.94    7.40
   5  -4   6   54.25    6.28
   6  -4   6   52.88    7.08
   7   3  -6   65.83    6.01
   7   3  -6   47.10   10.45
  -7  -3   6   60.90    7.11
  -7  -3   6   58.85    5.64
   6   3  -6   35.17    4.16
   6   3  -6   32.58    8.51
  -6  -3   6   39.14    4.96
  -6  -3   6   38.39    3.98
   5   3  -6    9.60    4.70
   5   3  -6   21.17    3.40
  -5  -3   6   22.23    2.74
  -5  -3   6   22.45    3.31
   4   3  -6  125.67    9.10
  -4  -3   6  114.13    9.28
  -4  -3   6  115.16    7.77
   3   3  -6   24.33    4.10
  -3  -3   6   29.76    3.20
  -3  -3   6   30.06    2.79
  -2  -3   6   94.34    6.03
  -2  -3   6   92.58    6.95
  -2  -3   6   87.30    6.91
  -1  -3   6  195.35   13.02
  -1  -3   6  191.62   11.27
  -1  -3   6  192.57   12.41
   0   3  -6   27.04    2.60
   0  -3   6   23.83    2.18
   0  -3   6   27.45    3.18
   0  -3   6   27.16    2.25
   2  -3   6  287.50   17.33
   2  -3   6  262.30   15.17
   2  -3   6  272.04   19.61
   3  -3   6    2.38    1.60
   3  -3   6    4.02    2.10
   3  -3   6    2.23    0.70
   4  -3   6   91.45    8.16
   4  -3   6   99.27    8.77
   5  -3   6  103.33    9.33
   5  -3   6   95.99    8.63
   6  -3   6    0.24    1.73
   6  -3   6   -0.91    2.02
   7   2  -6   31.13    7.34
  -7  -2   6   34.24    4.15
  -7  -2   6   37.56    5.54
   6   2  -6   14.09    2.68
   6   2  -6    9.61    4.75
  -6  -2   6   10.41    2.31
  -6  -2   6   13.44    3.26
   5   2  -6  163.51   10.29
  -5  -2   6  143.79   11.91
  -5  -2   6  151.41    9.83
   4   2  -6   65.82    5.36
  -4  -2   6   55.00    5.54
  -4  -2   6   63.66    4.68
   3   2  -6   44.86    4.67
  -3  -2   6   43.02    3.47
  -3  -2   6   45.97    4.31
  -2  -2   6  229.83   14.16
  -2  -2   6  229.79   15.68
  -2  -2   6  229.04   13.27
  -1  -2   6  127.36    9.13
  -1  -2   6  131.79    8.90
  -1  -2   6  131.52    7.88
   0   2  -6   90.49    7.08
   0  -2   6   88.91    6.92
   0  -2   6  101.44    6.79
   0  -2   6   97.37    5.98
   2  -2   6   54.97    3.70
   2  -2   6   56.08    3.94
   2  -2   6   50.87    5.07
   2  -2   6   44.49    5.02
   3  -2   6  164.31    9.25
   3  -2   6  143.37   10.84
   3  -2   6  140.29   11.71
   3  -2   6  169.76   10.45
   4  -2   6  203.42   11.09
   4  -2   6  192.25   14.28
   4  -2   6  175.43   12.83
   5  -2   6   14.71    3.08
   5  -2   6   17.76    3.51
   6  -2   6   53.23    6.10
   6  -2   6   66.69    6.83
   7  -2   6   54.25    6.59
   7  -2   6   47.95    6.19
   7   1  -6    3.02    3.81
  -7  -1   6    2.72    2.34
   6   1  -6   85.01   10.59
  -6  -1   6   87.54    8.40
  -6  -1   6   83.72    6.39
   5   1  -6   37.77    7.93
   5   1  -6   65.49    4.91
  -5  -1   6   63.65    4.78
  -5  -1   6   59.94    6.07
   4   1  -6    6.39    1.60
   4   1  -6    7.87    3.68
  -4  -1   6    7.78    1.58
  -4  -1   6    9.82    2.25
   3   1  -6  218.02   13.21
  -3  -1   6  200.94   15.02
  -3  -1   6  218.75   12.52
  -2  -1   6   39.25    3.15
  -2  -1   6   39.93    3.87
  -2  -1   6   42.25    3.58
  -1  -1   6   32.72    3.44
  -1  -1   6   33.41    3.28
  -1  -1   6   35.42    2.85
   0   1  -6  534.83   32.26
   0  -1   6  537.00   27.99
   0  -1   6  431.01   31.63
   0  -1   6  460.18   26.99
   2  -1   6  162.62   10.73
   2  -1   6  162.05    9.84
   2  -1   6  169.73   12.00
   3  -1   6  163.97   10.37
   3  -1   6  176.70   12.65
   3  -1   6  188.63   12.59
   3  -1   6  175.04   11.30
   4  -1   6    6.80    1.38
   4  -1   6    7.11    1.89
   4  -1   6    8.02    2.03
   4  -1   6   11.21    1.85
   5  -1   6   57.67    4.33
   5  -1   6   64.36    5.64
   5  -1   6   66.53    6.13
   6  -1   6  109.02    9.41
   6  -1   6  103.21    8.29
   7  -1   6    3.14    2.00
   7  -1   6    2.78    2.25
   8  -1   6   46.48    5.97
   7   0  -6   56.77    8.57
  -7   0   6   63.12    7.58
   6   0  -6   26.41    5.87
  -6   0   6   20.00    4.21
   5   0  -6   25.24    5.28
  -5   0   6   30.19    2.97
  -5   0   6   24.83    3.88
   4   0  -6  109.89   12.13
   4   0  -6  147.43    8.32
  -4   0   6  135.68    8.41
  -4   0   6  128.02   10.62
   3   0  -6   88.78    5.55
   3   0  -6   92.39    5.97
  -3   0   6   87.04    7.56
  -3   0   6   92.98    6.00
   2   0  -6   51.02    3.78
  -2   0   6   60.05    5.29
  -2   0   6   60.56    4.18
   1   0  -6  281.30   16.39
  -1   0   6  289.49   16.42
  -1   0   6  294.09   16.79
  -1   0   6  283.12   19.61
   0   0  -6   51.32    4.24
   0   0   6   57.86    4.47
   0   0   6   54.77    4.07
   0   0   6   55.77    4.76
  -1   0  -6  165.52   13.77
   1   0   6  191.24   13.28
   1   0   6  202.43   11.46
   1   0   6  217.75   12.02
   2   0   6  335.20   19.64
   2   0   6  359.28   23.17
   2   0   6  361.88   20.16
   3   0   6   17.74    2.28
   3   0   6   12.21    2.72
   3   0   6   16.18    1.74
   3   0   6   18.95    2.29
   4   0   6  112.08    8.54
   4   0   6  113.46    7.59
   4   0   6  107.64    6.78
   5   0   6  171.36   11.16
   5   0   6  169.48   10.16
   5   0   6  179.13   12.92
  -6   0  -6    2.44    2.13
   6   0   6    3.72    1.73
   6   0   6    4.60    1.22
   6   0   6    3.99    1.79
   7   0   6   60.04    6.52
   7   0   6   57.96    5.68
   8   0   6   65.52    7.26
   8   0   6   58.19    6.26
   9   0   6    1.63    2.61
   7  -1  -6   27.62    6.58
  -7   1   6   22.25    5.30
   6  -1  -6    8.84    3.75
  -6   1   6    8.25    3.07
   5  -1  -6  103.39   10.15
  -5   1   6   95.76    9.16
   4  -1  -6   57.33    6.73
  -4   1   6   52.41    5.84
  -4   1   6   55.76    4.17
   3  -1  -6   19.42    4.08
   3  -1  -6   15.78    1.55
   3  -1  -6   17.91    1.56
  -3   1   6   17.52    3.31
  -3   1   6   18.66    2.16
   2  -1  -6  293.71   15.66
   2  -1  -6  271.46   15.61
  -2   1   6  263.17   19.77
  -2   1   6  294.66   16.25
   1  -1  -6  124.31    7.07
  -1   1   6  122.21    7.46
  -1   1   6  102.23    8.98
  -1   1   6  117.78    7.16
   0  -1  -6  105.60    6.46
   0   1   6  109.69    8.12
   0   1   6  111.84    6.76
   0   1   6   87.98    6.45
  -1  -1  -6  405.36   21.67
  -1  -1  -6  341.83   25.13
   1   1   6  401.35   25.55
   1   1   6  394.42   21.63
   1   1   6  390.67   21.51
  -2  -1  -6   36.32    3.41
   2   1   6   37.10    3.03
   2   1   6   40.49    3.46
   2   1   6   37.62    2.83
   3   1   6  248.48   13.89
   3   1   6  241.42   14.31
   3   1   6  247.29   16.35
   4   1   6  186.21   11.40
   4   1   6  186.21   10.74
   4   1   6  185.78   12.99
   5   1   6   15.12    2.67
   5   1   6   14.77    2.36
   5   1   6   13.27    1.60
   6   1   6  157.57   10.55
   6   1   6  162.20    9.48
   6   1   6  156.17   12.23
   7   1   6  105.85    8.34
   7   1   6  116.70    7.24
   7   1   6  120.08   10.06
  -8  -1  -6    0.88    2.61
   8   1   6    1.39    1.88
   8   1   6   -0.36    1.61
   9   1   6   41.68    5.45
   6  -2  -6   68.54    8.12
  -6   2   6   54.37    7.15
   5  -2  -6   31.13    5.11
  -5   2   6   32.20    5.00
   4  -2  -6    7.25    2.59
  -4   2   6    6.48    2.50
   3  -2  -6  164.76   12.94
  -3   2   6  186.50   10.34
  -3   2   6  145.60   13.13
   2  -2  -6   40.66    4.44
  -2   2   6   32.63    4.46
  -2   2   6   43.67    3.47
   1  -2  -6   24.75    3.22
  -1   2   6   24.81    2.52
  -1   2   6   27.98    3.47
   0  -2  -6  268.07   14.22
   0   2   6  263.04   14.71
   0   2   6  255.70   14.52
   0   2   6  240.14   17.82
  -1  -2  -6   25.43    2.16
  -1  -2  -6   23.82    2.23
   1   2   6   27.32    2.22
   1   2   6   27.05    2.20
  -2  -2  -6  134.85    9.53
   2   2   6  138.28    8.27
   2   2   6  150.78    9.62
   2   2   6  140.38    8.42
  -3  -2  -6  410.82   28.01
   3   2   6  451.93   27.64
   3   2   6  433.83   23.80
   3   2   6  433.13   24.15
   4   2   6   45.64    3.72
   4   2   6   46.38    3.25
   4   2   6   43.88    3.99
   5   2   6   67.56    5.73
   5   2   6   62.59    5.01
   5   2   6   63.32    4.31
   6   2   6  232.69   14.53
   6   2   6  244.85   13.61
   6   2   6  229.14   16.85
   7   2   6   13.56    2.64
   7   2   6   18.38    1.99
   7   2   6   15.21    3.22
   8   2   6   77.91    6.85
   8   2   6   79.34    5.52
   8   2   6   84.93    8.19
   9   2   6   57.81    6.94
   9   2   6   55.63    6.02
  -6   3   6   22.23    5.30
   5  -3  -6   14.70    3.78
  -5   3   6    7.93    3.10
   4  -3  -6   68.09    6.74
  -4   3   6   53.31    6.74
   3  -3  -6   54.70    5.52
  -3   3   6   47.69    6.13
   2  -3  -6   38.67    3.97
  -2   3   6   26.00    4.37
  -2   3   6   42.15    3.44
   1  -3  -6  269.30   18.06
  -1   3   6  306.53   19.85
  -1   3   6  252.21   15.63
   0  -3  -6   30.66    2.08
   0  -3  -6   28.11    2.34
   0   3   6   30.92    2.52
   0   3   6   25.46    3.35
   0   3   6   29.99    2.17
  -1  -3  -6   74.71    4.90
   1   3   6   83.31    4.91
   1   3   6   79.99    5.05
   2   3   6  195.28   11.34
   2   3   6  201.83   11.43
  -3  -3  -6   31.52    3.40
   3   3   6   30.21    2.56
   3   3   6   28.46    2.33
   3   3   6   30.75    2.66
   4   3   6   89.52    5.53
   4   3   6   86.72    6.53
   4   3   6   86.63    5.96
   5   3   6  216.35   14.66
   5   3   6  210.46   12.10
   5   3   6  202.14   12.73
   6   3   6   12.70    2.23
   6   3   6   13.04    1.67
   6   3   6   14.57    2.76
   7   3   6   44.11    4.38
   7   3   6   47.64    3.62
   7   3   6   46.39    5.25
   8   3   6   70.38    5.03
   8   3   6   67.96    7.23
   8   3   6   72.74    6.26
  -9  -3  -6    3.70    3.22
   9   3   6    1.23    1.82
   9   3   6    1.76    1.86
  -4   4   6   27.29    5.31
  -3   4   6    9.92    3.29
   2  -4  -6  145.99   11.21
  -2   4   6  165.54    9.70
   1  -4  -6   23.79    2.56
  -1   4   6   20.63    2.34
  -1   4   6   29.68    3.84
   0   4   6   62.87    6.32
   0   4   6   74.78    4.20
   0   4   6   74.60    4.83
  -1  -4  -6  209.63   11.83
   1   4   6  199.13   11.64
   1   4   6  198.46   11.38
   1   4   6  203.99   14.53
   2   4   6   23.05    1.99
   2   4   6   20.61    1.98
   3   4   6  113.65    7.11
   3   4   6  108.85    6.83
   3   4   6  116.06    7.46
   4   4   6  152.97    9.64
   4   4   6  163.95   10.70
   4   4   6  152.48    9.21
   5   4   6   11.17    1.50
   5   4   6   10.70    2.01
   5   4   6    8.86    1.77
   6   4   6   95.91    7.89
   6   4   6   91.43    6.84
   6   4   6   96.03    6.14
   7   4   6   90.13    6.04
   7   4   6   90.88    8.13
   7   4   6   93.47    7.03
  -8  -4  -6   -0.92    1.78
   8   4   6    0.44    1.42
   8   4   6   -0.58    1.31
   8   4   6    0.46    0.93
   9   4   6   60.79    6.72
   9   4   6   46.66    5.20
   9   4   6   48.65    4.13
  -3   5   6   84.76    8.94
  -2   5   6   42.37    5.72
  -1   5   6   17.98    2.28
  -1   5   6   23.78    3.73
   0   5   6  192.44   13.99
   0   5   6  176.80   10.80
   1   5   6   40.14    2.76
   1   5   6   36.21    2.95
   1   5   6   41.59    4.35
   2   5   6   19.27    1.91
   2   5   6   21.18    1.97
   3   5   6  204.78   12.13
   3   5   6  207.64   11.91
   4   5   6    8.42    1.64
   4   5   6    9.33    1.42
   4   5   6    9.06    1.41
   5   5   6   71.02    4.90
   5   5   6   66.96    5.31
   5   5   6   78.02    5.94
   6   5   6  146.26   10.62
   6   5   6  134.67    9.21
   6   5   6  134.67    8.52
  -7  -5  -6    0.26    1.78
   7   5   6    1.28    1.29
   7   5   6    1.42    0.93
   7   5   6    1.41    1.49
   8   5   6   63.29    6.63
   8   5   6   56.29    5.37
   8   5   6   59.37    4.53
   9   5   6   47.36    6.06
   9   5   6   44.87    5.02
   9   5   6   42.33    3.87
  -2   6   6   10.75    3.34
  -1   6   6  117.46   10.20
   0   6   6   20.48    2.35
   0   6   6   30.58    3.88
   1   6   6   20.87    2.10
   1   6   6   20.92    3.16
   2   6   6   62.25    4.34
   2   6   6   64.02    4.37
   3   6   6   35.92    2.89
   3   6   6   35.87    3.12
   4   6   6   28.80    2.59
   4   6   6   28.44    2.88
   5   6   6  117.89    7.40
   5   6   6  114.66    7.88
  -6  -6  -6    0.18    2.04
   6   6   6    2.45    1.09
   6   6   6    2.22    1.40
   6   6   6    3.59    1.59
   7   6   6   36.50    4.02
   7   6   6   39.00    3.43
   7   6   6   38.94    4.63
   8   6   6   80.47    5.71
   8   6   6   77.37    7.61
   8   6   6   72.08    6.37
   9   6   6    1.30    1.22
   9   6   6    1.02    2.17
   0   7   6   28.38    4.11
   1   7   6   83.89    7.77
   1   7   6   84.33    5.67
   2   7   6   11.91    1.75
   3   7   6   54.17    4.07
   3   7   6   56.51    4.31
   4   7   6   92.80    6.17
   4   7   6   91.40    6.49
  -5  -7  -6    0.65    2.45
   5   7   6    7.59    1.78
   5   7   6    7.97    1.59
   6   7   6   45.27    3.72
   6   7   6   41.92    4.21
   7   7   6   58.98    4.71
   7   7   6   60.48    5.39
  -8  -7  -6   -0.44    2.54
   8   7   6    4.68    1.49
   8   7   6    2.08    1.68
   1   8   6    9.67    2.78
   2   8   6   25.19    2.66
   2   8   6   28.69    4.18
  -4  -8  -6    2.41    3.25
   4   8   6    6.10    1.53
   4   8   6    6.09    1.72
   5   8   6   44.41    4.25
   5   8   6   44.90    3.87
   6   8   6   74.53    5.41
   6   8   6   64.01    5.72
  -7  -8  -6    1.18    2.97
   7   8   6    1.03    1.44
   7   8   6    2.56    1.36
   3   9   6   14.24    2.26
   5   9   6   71.66    5.35
   5   9   6   60.12    5.53
  -6  -9  -6   -0.78    2.79
   6   9   6    1.87    1.74
   7   9   6   27.25    4.15
   4   9  -7    1.03    3.70
   3   9  -7    0.63    3.00
  -3  -9   7    0.90    1.87
   2   9  -7   -0.29    2.71
  -2  -9   7   14.68    3.15
   1   9  -7    0.20    2.65
   0   9  -7    0.76    2.94
  -6  -8   7   15.30    5.07
   5   8  -7   24.04    5.08
  -5  -8   7   24.78    4.19
   4   8  -7    1.62    2.33
   4   8  -7   -0.08    2.44
  -4  -8   7    2.45    1.87
   3   8  -7   22.34    4.85
  -3  -8   7   26.95    3.72
   2   8  -7   29.97    5.83
  -2  -8   7   44.70    4.50
   1   8  -7    0.34    1.92
  -1  -8   7    0.66    1.42
  -1  -8   7    1.48    1.73
   1  -8   7   29.68    4.14
  -7  -7   7    8.64    3.89
   6   7  -7   34.42    5.92
  -6  -7   7   35.86    6.55
   5   7  -7   -0.54    2.35
   5   7  -7    3.06    2.57
  -5  -7   7    4.18    1.97
  -5  -7   7    5.77    3.02
   4   7  -7   19.43    4.64
  -4  -7   7   24.46    3.44
  -4  -7   7   25.48    4.96
   3   7  -7   48.19    6.55
  -3  -7   7   69.01    5.56
   2   7  -7   -0.72    1.47
  -2  -7   7    1.38    1.57
  -2  -7   7    2.41    1.44
  -1  -7   7   36.06    3.68
  -1  -7   7   36.81    4.49
   0  -7   7   67.96    6.02
   0  -7   7   56.11    4.92
  -1   7  -7   -0.62    1.66
   1  -7   7   -0.58    1.41
  -3   7  -7    0.23    2.40
   7   6  -7   29.16    5.44
   7   6  -7   13.70    7.60
  -7  -6   7   32.80    6.29
  -7  -6   7   32.80    4.95
   6   6  -7    1.93    3.20
   6   6  -7    9.43    3.32
  -6  -6   7    9.40    2.73
  -6  -6   7   11.72    3.58
   5   6  -7   14.94    3.93
  -5  -6   7   17.38    3.90
  -5  -6   7   17.84    3.13
   4   6  -7   71.10    7.70
  -4  -6   7   76.71    7.39
  -4  -6   7   69.81    5.92
   3   6  -7   13.58    3.84
  -3  -6   7   20.00    3.65
  -3  -6   7   14.88    2.53
  -2  -6   7   45.83    4.12
  -2  -6   7   46.65    5.20
  -1  -6   7  105.01    8.10
  -1  -6   7   97.64    6.90
   0  -6   7    5.31    1.46
   0  -6   7    5.17    2.06
   1  -6   7   26.81    2.83
   1  -6   7   32.17    3.88
  -3   6  -7   -0.49    1.91
   3  -6   7   -0.73    1.37
   4  -6   7   47.29    5.26
   8   5  -7   36.41    5.99
   7   5  -7   11.30    3.42
   7   5  -7    4.18    5.93
  -7  -5   7   10.15    3.01
  -7  -5   7   11.63    3.75
   6   5  -7   24.09    4.68
  -6  -5   7   32.85    4.88
  -6  -5   7   26.20    3.71
   5   5  -7   77.49    8.11
  -5  -5   7   88.22    6.97
  -5  -5   7  101.90    8.70
   4   5  -7   16.02    4.02
  -4  -5   7   22.59    3.36
  -4  -5   7   18.80    2.65
  -3  -5   7   31.52    3.28
  -3  -5   7   35.49    3.97
  -2  -5   7   75.49    5.62
  -2  -5   7   80.97    6.61
  -2  -5   7   76.24    6.76
  -1  -5   7   12.76    2.25
  -1  -5   7    8.39    1.69
  -1  -5   7   11.76    2.62
   1  -5   7   59.22    5.45
   1  -5   7   52.10    4.00
   2  -5   7    5.03    1.97
   2  -5   7    5.35    1.26
   3  -5   7   47.19    5.23
   4  -5   7   54.03    7.32
   4  -5   7   59.22    6.12
   5  -5   7    1.02    2.44
   5  -5   7   -0.47    1.92
  -8  -4   7    7.61    3.08
   7   4  -7    7.24    2.74
   7   4  -7    0.32    4.40
  -7  -4   7    7.20    3.00
  -7  -4   7    9.80    2.81
   6   4  -7   70.93    7.08
  -6  -4   7   74.22    7.81
  -6  -4   7   80.08    6.57
   5   4  -7   18.87    3.87
  -5  -4   7   18.48    3.58
  -5  -4   7   18.76    2.98
   4   4  -7   53.95    6.43
  -4  -4   7   64.97    6.03
  -4  -4   7   61.68    5.00
  -3  -4   7  147.07   11.00
  -3  -4   7  146.47    9.39
   2   4  -7    0.25    1.36
  -2  -4   7    2.56    1.15
  -2  -4   7    2.75    1.06
  -2  -4   7    1.34    1.50
  -1  -4   7   91.24    6.12
  -1  -4   7   92.16    6.90
  -1  -4   7   96.00    7.40
   0   4  -7  166.58   10.55
   0  -4   7  134.03    8.86
   0  -4   7  139.54   10.19
   0  -4   7  147.65   10.05
  -1   4  -7    0.18    1.07
   1  -4   7    0.94    0.78
   1  -4   7    2.03    1.54
   2  -4   7  119.76    7.36
   2  -4   7  124.54    9.25
   3  -4   7   89.70    7.76
   3  -4   7   90.67    9.00
   3  -4   7   91.46    5.67
   4  -4   7    2.51    2.18
   4  -4   7    1.57    2.08
   5  -4   7   65.51    7.07
   5  -4   7   70.91    8.02
   6  -4   7   40.06    6.07
   7   3  -7   53.95    5.58
   7   3  -7   38.88    9.80
  -7  -3   7   56.37    7.03
  -7  -3   7   52.58    5.51
   6   3  -7   19.51    3.47
   6   3  -7   12.61    6.01
  -6  -3   7   17.78    3.11
  -6  -3   7   18.83    4.00
   5   3  -7   44.58    4.95
  -5  -3   7   42.11    5.04
  -5  -3   7   45.03    4.24
   4   3  -7  128.13    9.77
  -4  -3   7  115.97    9.64
   3   3  -7   10.55    3.05
  -3  -3   7   15.92    2.47
  -3  -3   7   18.29    2.24
  -2  -3   7  138.08    8.71
  -2  -3   7  150.11   10.17
  -2  -3   7  133.86   10.06
  -1  -3   7  203.74   13.24
  -1  -3   7  199.93   13.75
  -1  -3   7  204.26   11.95
   0   3  -7    1.31    0.98
   0   3  -7    0.15    0.84
   0  -3   7    0.84    0.60
   0  -3   7    1.77    1.41
   0  -3   7    1.38    0.75
   2  -3   7  308.08   18.54
   2  -3   7  281.04   16.42
   3  -3   7    1.15    0.75
   3  -3   7    1.88    1.70
   3  -3   7    0.98    1.91
   4  -3   7  152.45   12.11
   4  -3   7  132.93   10.77
   5  -3   7   98.85    9.24
   5  -3   7   89.41    8.49
   6  -3   7    3.48    2.34
   6  -3   7    0.42    2.31
   7  -3   7   41.31    6.46
   7   2  -7    4.67    4.59
  -7  -2   7    8.91    3.35
   6   2  -7   12.88    2.65
   6   2  -7   11.25    5.39
  -6  -2   7   14.28    2.74
  -6  -2   7   11.20    3.15
   5   2  -7  104.12    7.62
  -5  -2   7  101.32    8.92
  -5  -2   7   93.52    7.11
   4   2  -7    4.07    2.89
   4   2  -7    7.08    2.18
  -4  -2   7    7.93    1.71
  -4  -2   7    7.22    2.06
   3   2  -7   86.28    7.95
  -3  -2   7  102.09    8.00
  -3  -2   7  100.81    6.62
  -2  -2   7  128.28    9.05
  -2  -2   7  126.83    9.46
  -2  -2   7  126.00    7.98
  -1  -2   7   58.95    4.67
  -1  -2   7   50.60    3.91
  -1  -2   7   50.40    4.83
   0   2  -7  159.19   11.00
   0  -2   7  141.45    9.05
   0  -2   7  154.50   10.46
   0  -2   7  144.32   10.06
   2  -2   7    3.80    0.92
   2  -2   7    7.74    2.21
   2  -2   7    3.28    1.02
   2  -2   7    1.54    1.06
   2  -2   7    3.30    1.59
   3  -2   7  181.45   13.37
   3  -2   7  194.45   13.38
   3  -2   7  209.36   15.11
   3  -2   7  208.64   11.89
   3  -2   7  216.31   13.71
   4  -2   7  134.73   10.99
   4  -2   7  131.25   10.17
   4  -2   7  140.68    8.32
   5  -2   7    0.58    1.66
   5  -2   7   -0.81    1.01
   6  -2   7   82.06    7.70
   6  -2   7   82.93    8.22
   7  -2   7   46.75    6.24
   7  -2   7   54.58    6.66
   7   1  -7   12.97    5.12
  -7  -1   7   12.97    4.07
   6   1  -7   68.07   10.57
  -6  -1   7   91.44    6.74
  -6  -1   7   82.06    8.51
   5   1  -7   16.14    2.54
   5   1  -7    9.68    4.66
  -5  -1   7   16.66    2.61
  -5  -1   7   13.09    3.10
   4   1  -7   47.91    9.57
   4   1  -7   78.92    5.84
  -4  -1   7   79.95    5.63
  -4  -1   7   76.36    7.02
   3   1  -7  180.23   11.94
  -3  -1   7  185.58   11.07
  -3  -1   7  175.98   13.37
  -2  -1   7    4.30    1.47
  -2  -1   7    4.40    1.55
  -2  -1   7    3.88    1.18
  -1  -1   7  108.26    6.73
  -1  -1   7   97.80    7.85
  -1  -1   7   99.52    7.44
   0  -1   7  297.72   18.15
   0  -1   7  310.13   21.33
   0  -1   7  355.97   19.17
   1  -1   7   24.23    2.51
   1  -1   7   22.56    3.06
   1  -1   7   19.39    2.30
   2  -1   7   91.49    6.68
   2  -1   7   92.26    7.69
   2  -1   7   92.31    6.08
   2  -1   7   87.19    6.88
   3  -1   7  114.87    8.55
   3  -1   7  103.18    6.66
   3  -1   7  107.26    7.70
   3  -1   7   85.92    8.05
  -4   1  -7   -0.18    1.32
   4  -1   7   -0.36    0.87
   4  -1   7   -0.21    1.32
   4  -1   7   -0.37    0.87
   5  -1   7   84.41    6.82
   5  -1   7   88.87    7.53
   5  -1   7   73.73    5.48
   6  -1   7   58.08    5.96
   6  -1   7   64.98    6.59
   7  -1   7    1.02    2.06
   7  -1   7    1.48    1.79
   8  -1   7   48.71    6.29
   7   0  -7   56.68    8.65
  -7   0   7   51.40    7.40
   6   0  -7   14.57    4.64
  -6   0   7   17.21    4.25
   5   0  -7   36.17    7.34
  -5   0   7   45.87    4.06
  -5   0   7   39.34    5.28
   4   0  -7  187.04   10.15
   4   0  -7  127.31   14.41
  -4   0   7  145.11   12.85
  -4   0   7  183.21   10.57
   3   0  -7   53.00    4.03
   3   0  -7   34.68    7.14
  -3   0   7   51.78    4.07
  -3   0   7   46.54    5.12
   2   0  -7   95.15    6.13
  -2   0   7   81.82    7.74
  -2   0   7   95.67    6.18
  -2   0   7  104.56    6.51
   1   0  -7  302.47   17.18
  -1   0   7  320.86   17.27
  -1   0   7  264.20   17.43
  -1   0   7  303.21   20.58
   0   0   7   52.64    4.45
   0   0   7   54.11    4.81
   0   0   7   54.42    4.15
   1   0   7  167.51   11.98
   1   0   7  170.58   10.79
   1   0   7  172.40   10.29
   2   0   7  216.02   14.82
   2   0   7  220.69   12.93
   2   0   7  197.41   12.30
  -3   0  -7    1.03    1.45
   3   0   7    4.14    1.38
   3   0   7    4.03    1.07
   3   0   7    3.50    1.34
   4   0   7  197.69   11.77
   4   0   7  206.08   12.63
   4   0   7  199.71   14.21
   5   0   7   89.37    5.93
   5   0   7   88.92    7.60
   5   0   7   90.54    6.87
  -6   0  -7    2.03    2.11
   6   0   7    6.62    2.13
   6   0   7    7.79    1.55
   6   0   7    8.26    2.26
   7   0   7   57.50    6.27
   7   0   7   53.05    5.49
   8   0   7   48.03    6.00
   8   0   7   37.83    5.26
   7  -1  -7   16.73    5.61
   6  -1  -7   14.08    4.43
  -6   1   7   10.04    3.71
   5  -1  -7  119.69   11.58
  -5   1   7  111.35   10.73
   4  -1  -7   16.28    4.06
  -4   1   7   19.60    4.00
  -4   1   7   18.20    2.51
   3  -1  -7   77.13    4.65
   3  -1  -7   64.15    7.81
  -3   1   7   83.70    5.61
  -3   1   7   63.91    7.04
   2  -1  -7  172.86   10.21
   2  -1  -7  174.90    9.98
  -2   1   7  168.50   10.60
   1  -1  -7   63.80    4.32
  -1   1   7   67.03    4.71
  -1   1   7   58.05    4.48
  -1   1   7   64.04    5.87
   0  -1  -7  216.05   12.67
   0   1   7  222.92   15.41
   0   1   7  193.22   12.69
   0   1   7  240.55   13.05
   1   1   7  457.79   25.11
   1   1   7  432.18   24.86
   1   1   7  450.85   29.51
  -2  -1  -7   12.25    2.01
   2   1   7   11.41    1.84
   2   1   7   11.59    1.63
   2   1   7   14.44    2.07
   3   1   7  225.11   13.65
   3   1   7  244.16   14.19
   3   1   7  249.86   16.20
   4   1   7  136.71    8.39
   4   1   7  138.22   10.11
   4   1   7  143.04    9.10
  -5  -1  -7    0.69    1.52
   5   1   7    3.41    1.50
   5   1   7    2.51    1.28
   5   1   7    2.98    1.05
   6   1   7  186.97   12.19
   6   1   7  182.10   11.07
   6   1   7  191.51   14.00
   7   1   7  104.29    8.84
   7   1   7   91.90    7.54
   7   1   7   89.87    6.25
  -8  -1  -7    1.35    2.69
   8   1   7    0.32    1.64
   8   1   7    1.21    2.01
   9   1   7   52.72    6.25
   6  -2  -7   51.13    7.30
  -6   2   7   49.24    7.40
   5  -2  -7   11.27    3.74
  -5   2   7   12.11    3.79
   4  -2  -7   20.77    4.27
  -4   2   7   24.20    4.81
   3  -2  -7  156.54   12.53
  -3   2   7  174.96   10.08
  -3   2   7  128.78   12.64
   2  -2  -7   25.62    3.70
  -2   2   7   28.65    2.88
  -2   2   7   18.94    3.81
   1  -2  -7   45.45    5.23
  -1   2   7   51.91    3.29
  -1   2   7   59.30    5.53
  -1   2   7   56.58    4.20
   0  -2  -7  314.17   17.31
   0   2   7  339.57   17.73
   0   2   7  281.23   17.70
   0   2   7  315.75   21.55
  -1  -2  -7   13.17    1.68
  -1  -2  -7   12.30    1.83
   1   2   7   13.51    1.72
   1   2   7   13.70    2.12
   1   2   7   13.67    1.72
  -2  -2  -7  168.63   11.72
   2   2   7  176.39   10.22
   2   2   7  176.59   10.34
  -3  -2  -7  246.90   16.97
   3   2   7  258.83   16.60
   3   2   7  248.85   14.61
   3   2   7  248.34   14.27
   4   2   7    5.22    1.31
   4   2   7    6.38    1.53
   4   2   7    4.80    1.06
   5   2   7  114.33    6.98
   5   2   7  107.96    8.52
   5   2   7  110.83    7.66
   6   2   7  101.56    7.75
   6   2   7  113.47    6.96
   6   2   7  109.51    8.88
  -7  -2  -7    1.04    2.10
   7   2   7   -0.16    0.94
   7   2   7    0.46    1.36
   7   2   7    0.29    1.21
   8   2   7   76.76    5.60
   8   2   7   86.45    8.13
   8   2   7   78.01    6.85
   9   2   7   39.19    5.68
   9   2   7   44.23    5.41
  -6   3   7   12.86    4.71
  -5   3   7   11.05    3.99
   4  -3  -7   69.39    6.95
  -4   3   7   49.35    7.14
   3  -3  -7   11.13    2.74
  -3   3   7    7.10    2.91
   2  -3  -7   82.15    7.38
  -2   3   7   81.53    8.52
  -2   3   7  104.29    6.45
   1  -3  -7  179.50   13.27
  -1   3   7  190.66   11.61
  -1   3   7  219.03   14.93
   0  -3  -7    9.39    1.42
   0  -3  -7    9.95    1.09
   0   3   7    9.46    1.59
   0   3   7   11.71    1.49
   0   3   7   11.17    2.39
  -1  -3  -7  138.00    8.39
   1   3   7  150.73    8.47
   1   3   7  149.74    8.68
   1   3   7  132.34   10.63
  -3  -3  -7    0.10    0.90
  -3  -3  -7    0.51    1.58
   3   3   7    1.16    0.70
   3   3   7    0.99    0.83
   3   3   7    0.46    0.64
   4   3   7  104.14    7.53
   4   3   7  105.99    6.52
   4   3   7  102.78    6.94
   5   3   7  134.28    9.89
   5   3   7  131.30    8.88
   5   3   7  140.03    8.28
  -6  -3  -7    0.61    1.79
   6   3   7   -0.12    1.00
   6   3   7   -0.37    0.98
   6   3   7    0.79    0.84
   7   3   7   83.45    6.78
   7   3   7   89.09    5.92
   7   3   7   90.81    7.95
   8   3   7   64.37    5.92
   8   3   7   64.46    4.76
   8   3   7   61.58    6.67
  -9  -3  -7   -0.13    2.90
   9   3   7   -0.36    1.65
   9   3   7    0.55    1.81
  -5   4   7   48.51    7.33
  -4   4   7    6.07    3.21
  -3   4   7   18.32    4.43
  -2   4   7  158.23    9.24
  -2   4   7  124.37   12.12
  -1   4   7   19.49    2.40
  -1   4   7   24.99    3.72
   0   4   7  109.03    6.92
   0   4   7  106.32    8.94
  -1  -4  -7  288.59   16.56
   1   4   7  302.48   16.34
   1   4   7  287.77   16.65
   1   4   7  294.38   20.46
  -2  -4  -7    0.47    1.61
   2   4   7    3.65    1.00
   2   4   7    3.59    0.97
   3   4   7  168.02   10.78
   3   4   7  202.22   11.92
   3   4   7  174.83   10.63
  -4  -4  -7  107.69    9.60
   4   4   7  132.01    8.31
   4   4   7  115.50    7.29
   4   4   7  116.22    7.71
  -5  -4  -7    1.86    2.24
   5   4   7    6.24    1.53
   5   4   7    6.70    1.26
   5   4   7    6.75    1.60
   6   4   7  132.94    9.92
   6   4   7  125.71    8.76
   6   4   7  128.97    8.06
   7   4   7   73.14    5.22
   7   4   7   80.29    7.03
   7   4   7   69.33    5.93
  -8  -4  -7    0.87    2.26
   8   4   7    3.28    1.26
   8   4   7    2.45    1.84
   8   4   7    1.49    1.62
   9   4   7   66.30    7.19
   9   4   7   56.03    5.96
   9   4   7   64.85    4.93
  -3   5   7   66.59    8.08
  -2   5   7   17.52    4.21
  -1   5   7   51.25    4.39
  -1   5   7   70.99    6.64
   0   5   7  172.44   12.94
   0   5   7  160.67   10.05
   1   5   7    5.35    1.28
   1   5   7    5.69    1.03
   1   5   7    5.43    1.90
   2   5   7   63.73    4.33
   2   5   7   59.94    4.19
   3   5   7  173.12   10.28
   3   5   7  168.20   10.10
  -4  -5  -7   -0.67    1.58
   4   5   7    0.28    0.74
   4   5   7    0.02    0.76
   4   5   7    1.07    0.61
   5   5   7   93.37    6.23
   5   5   7  100.62    7.20
   5   5   7   94.64    6.77
   6   5   7  116.90    7.59
   6   5   7  115.49    8.24
   6   5   7  126.65    9.24
  -7  -5  -7    0.42    2.11
   7   5   7    0.11    0.85
   7   5   7    0.67    1.28
   7   5   7    0.66    1.27
   8   5   7   89.52    7.94
   8   5   7   79.30    5.76
   8   5   7   72.97    6.58
   9   5   7   42.08    5.55
   9   5   7   40.39    3.77
  -2   6   7   26.51    5.06
  -1   6   7   98.34    9.05
   0   6   7   14.19    2.18
   0   6   7   17.02    3.40
   1   6   7   57.04    4.20
   1   6   7   55.84    5.84
   2   6   7  130.23    7.90
   2   6   7  130.34    8.06
   3   6   7    8.12    1.56
   3   6   7    9.28    1.53
   4   6   7   50.03    3.82
   4   6   7   50.49    4.10
   5   6   7  106.22    6.88
   5   6   7  104.75    7.35
  -6  -6  -7    1.24    2.33
   6   6   7   -0.17    1.08
   6   6   7    0.32    0.93
   7   6   7   55.58    5.10
   7   6   7   58.16    4.47
   8   6   7   46.44    4.01
   8   6   7   40.92    4.54
   9   6   7    0.45    1.24
   0   7   7   37.71    4.85
   1   7   7   74.39    5.18
   1   7   7   65.68    6.88
   2   7   7    8.37    2.46
   2   7   7    8.08    1.58
   3   7   7   41.59    3.46
   3   7   7   37.55    3.27
   4   7   7   60.88    4.81
   4   7   7   61.52    4.57
  -5  -7  -7    0.77    2.44
   5   7   7    4.02    1.26
   5   7   7    3.95    1.50
   6   7   7   40.88    4.12
   6   7   7   43.95    3.75
   7   7   7   48.46    4.12
   7   7   7   44.11    4.64
  -8  -7  -7   -0.80    2.46
   8   7   7    1.30    1.55
   8   7   7    0.20    1.27
   1   8   7    3.92    2.27
   2   8   7   31.30    2.98
   2   8   7   26.48    4.24
  -4  -8  -7   -0.85    2.58
   4   8   7    1.87    1.22
   5   8   7   39.86    4.04
   5   8   7   42.94    3.79
   6   8   7   58.15    4.65
   6   8   7   50.99    4.95
  -7  -8  -7    1.56    3.30
   7   8   7    0.30    1.16
   7   8   7   -1.08    1.27
   3   9   7    3.55    1.50
   3   9   7    6.27    2.78
   6   9   7    0.12    1.59
   3   9  -8   -0.19    3.02
  -2  -9   8   20.86    3.83
  -6  -8   8   12.21    4.83
   5   8  -8    0.22    2.94
   4   8  -8   -1.62    2.84
   4   8  -8   -0.32    2.20
  -4  -8   8    1.33    1.79
   3   8  -8   17.71    4.66
  -3  -8   8   24.62    3.77
   1   8  -8    1.00    2.12
  -1  -8   8   -0.72    1.36
  -1  -8   8    0.06    1.83
   1  -8   8   21.36    4.01
   6   7  -8   25.60    5.47
  -6  -7   8   28.43    5.97
   5   7  -8    2.53    2.61
   5   7  -8    0.70    2.41
  -5  -7   8    1.40    2.29
  -5  -7   8    0.79    1.69
   4   7  -8   21.84    5.02
  -4  -7   8   26.91    3.73
  -4  -7   8   29.24    5.34
   3   7  -8   37.52    6.30
   2   7  -8   -0.05    1.85
  -2  -7   8    0.06    1.25
  -2  -7   8    1.45    1.80
  -1  -7   8   57.53    6.02
  -1  -7   8   55.91    4.91
   0  -7   8   67.40    6.38
   0  -7   8   59.32    5.12
  -1   7  -8    0.36    1.67
   1  -7   8    2.01    1.83
   3  -7   8   28.74    4.61
   7   6  -8   27.75    5.79
   6   6  -8    3.28    2.79
   6   6  -8   -0.38    2.37
  -6  -6   8    1.36    2.17
  -6  -6   8    2.60    2.02
   5   6  -8   12.29    3.93
  -5  -6   8   19.15    4.03
  -5  -6   8   19.51    3.29
   4   6  -8   37.43    6.55
  -4  -6   8   55.01    5.01
  -4  -6   8   50.54    5.81
   3   6  -8   -0.22    2.02
   3   6  -8    1.35    2.29
  -3  -6   8    1.22    1.31
  -3  -6   8    1.66    1.56
  -2  -6   8   69.28    6.44
  -2  -6   8   63.31    5.25
  -2  -6   8   61.67    6.39
   0   6  -8    0.35    1.27
   0  -6   8    0.96    1.57
   0  -6   8    0.11    1.02
   1  -6   8   46.21    5.16
   1  -6   8   44.96    3.87
  -3   6  -8    0.54    1.99
   3  -6   8    2.78    2.03
   7   5  -8    2.90    2.82
  -7  -5   8    1.91    2.16
  -7  -5   8    4.14    2.89
   6   5  -8   20.12    4.58
  -6  -5   8   20.72    4.48
  -6  -5   8   19.85    3.57
   5   5  -8   41.69    6.53
  -5  -5   8   45.41    4.70
  -5  -5   8   48.33    5.66
   4   5  -8    3.29    2.44
   4   5  -8   -0.31    1.50
  -4  -5   8    2.47    1.48
  -4  -5   8    2.96    1.80
  -3  -5   8   51.95    5.14
  -3  -5   8   50.10    4.50
  -2  -5   8   89.86    7.10
  -2  -5   8   78.58    6.06
   1   5  -8   -0.11    1.10
  -1  -5   8   -0.43    1.29
  -1  -5   8    0.31    0.99
  -1  -5   8   -0.54    0.82
   0  -5   8  104.56    8.16
   0  -5   8   98.80    6.72
   1  -5   8   72.05    5.28
   1  -5   8   85.08    7.03
  -2   5  -8   -0.28    1.31
   2  -5   8    0.21    0.81
   2  -5   8    0.34    1.62
   4  -5   8   46.48    5.65
   4  -5   8   42.11    6.49
   5  -5   8    4.00    2.61
  -8  -4   8    4.59    3.10
   7   4  -8   20.22    4.18
   7   4  -8    5.40    5.80
  -7  -4   8   18.57    4.68
  -7  -4   8   14.90    3.51
   6   4  -8   54.00    6.22
  -6  -4   8   50.58    5.26
  -6  -4   8   55.41    6.72
   5   4  -8    0.52    2.65
   5   4  -8    6.34    2.72
  -5  -4   8    5.67    2.27
  -5  -4   8    2.72    1.54
   4   4  -8   38.46    6.32
  -4  -4   8   53.30    5.52
  -4  -4   8   57.19    4.75
  -3  -4   8  133.30   10.41
  -3  -4   8  137.61    9.01
   2   4  -8    0.07    1.37
  -2  -4   8   -0.40    1.31
  -2  -4   8    0.17    0.93
  -2  -4   8    0.31    0.86
  -1  -4   8   96.45    7.09
  -1  -4   8   84.53    7.51
  -1  -4   8   95.55    6.39
   0  -4   8  104.22    6.90
   0  -4   8  108.98    8.39
   0  -4   8  107.21    7.59
   1  -4   8    6.58    2.34
   1  -4   8    4.72    1.22
   2  -4   8   62.29    5.91
   2  -4   8   56.46    4.15
   3  -4   8   64.25    4.59
   3  -4   8   76.17    6.83
   3  -4   8   69.95    7.70
   4  -4   8    2.77    2.35
   4  -4   8    2.89    2.22
   5  -4   8   66.70    7.20
   5  -4   8   62.35    7.76
   6  -4   8   27.96    5.38
   7   3  -8   34.09    9.89
  -7  -3   8   39.11    6.14
  -7  -3   8   36.73    5.04
   6   3  -8    5.90    2.38
   6   3  -8    0.82    4.00
  -6  -3   8    8.32    2.47
  -6  -3   8    9.31    3.03
   5   3  -8   49.39    5.67
  -5  -3   8   49.93    5.78
  -5  -3   8   54.45    4.96
   4   3  -8  103.29    9.13
  -4  -3   8   95.60    7.27
  -4  -3   8  111.61    8.98
  -3  -3   8   10.32    2.27
  -3  -3   8    8.95    1.89
  -2  -3   8  143.29   10.27
  -2  -3   8  132.63   10.22
  -2  -3   8  134.30    8.80
  -1  -3   8  167.10   11.33
  -1  -3   8  152.61   11.06
  -1  -3   8  155.80    9.80
   0   3  -8    0.41    1.05
   0  -3   8    1.09    1.32
   0  -3   8    2.03    0.98
   0  -3   8    1.28    0.76
   2  -3   8  210.97   13.75
   2  -3   8  193.52   11.73
   2  -3   8  199.20   12.93
   3  -3   8    2.09    0.93
   3  -3   8    2.30    2.07
   3  -3   8    0.49    1.53
   4  -3   8  108.84    8.99
   4  -3   8   96.80    9.45
   4  -3   8  103.34    6.45
   5  -3   8   52.81    6.44
   5  -3   8   49.77    5.98
   6  -3   8    8.91    3.34
   6  -3   8   10.25    3.67
   7  -3   8   49.89    6.82
   7   2  -8    4.30    5.06
  -7  -2   8   13.39    4.14
   6   2  -8   15.89    6.43
  -6  -2   8   24.41    4.77
  -6  -2   8   26.77    3.97
   5   2  -8   81.69    6.73
  -5  -2   8   77.42    7.82
  -5  -2   8   80.37    6.43
   4   2  -8    4.21    2.10
   4   2  -8   -0.05    1.28
  -4  -2   8    2.67    1.39
  -4  -2   8    2.97    1.68
   3   2  -8   84.29    8.52
  -3  -2   8  107.72    7.24
  -3  -2   8  113.87    8.80
  -2  -2   8  140.70   10.72
  -2  -2   8  158.10   11.47
  -2  -2   8  157.76    9.67
  -1  -2   8   10.74    2.56
  -1  -2   8    9.43    1.94
  -1  -2   8    9.76    1.74
   0  -2   8  220.17   12.85
   0  -2   8  204.57   14.75
   0  -2   8  224.63   13.89
   2  -2   8    1.05    0.75
   2  -2   8    0.73    0.92
   2  -2   8    0.38    1.12
   2  -2   8    0.31    1.49
   3  -2   8  180.31   10.31
   3  -2   8  170.26   13.28
   3  -2   8  153.72   11.40
   3  -2   8  178.86   12.07
   4  -2   8  128.74    8.00
   4  -2   8  120.99    9.74
   4  -2   8  130.25   10.74
   5  -2   8    2.94    1.91
   5  -2   8    1.69    2.21
   6  -2   8   87.44    8.71
   6  -2   8   87.84    8.22
   7  -2   8   34.41    5.36
   7  -2   8   29.42    5.35
   7   1  -8   15.21    5.76
   6   1  -8   47.68    9.96
  -6  -1   8   50.46    5.05
  -6  -1   8   48.01    6.60
   5   1  -8    3.44    3.48
  -5  -1   8    8.16    2.76
  -5  -1   8    7.74    2.14
   4   1  -8   25.66    3.24
   4   1  -8   11.07    4.87
  -4  -1   8   25.76    3.83
  -4  -1   8   26.82    3.10
   3   1  -8   75.54    6.87
  -3  -1   8   85.05    7.50
  -3  -1   8   85.24    6.10
   2   1  -8    0.51    1.08
  -2  -1   8    0.65    1.26
  -2  -1   8    1.13    1.04
  -2  -1   8    2.20    1.34
  -1  -1   8  105.06    8.39
  -1  -1   8  100.81    7.78
  -1  -1   8  110.80    7.11
   0  -1   8  103.95    7.29
   0  -1   8   95.07    6.55
   0  -1   8   96.41    7.60
  -1   1  -8   -0.37    0.69
   1  -1   8    0.67    1.32
   1  -1   8    0.12    0.69
   1  -1   8    0.50    0.92
   2  -1   8  203.00   11.50
   2  -1   8  189.87   12.44
   2  -1   8  175.11   12.94
   3  -1   8  196.41   13.98
   3  -1   8  179.57   12.28
   3  -1   8  182.46   11.24
   4  -1   8   11.02    2.53
   4  -1   8   12.52    2.72
   4  -1   8    9.00    1.79
   5  -1   8  112.14    8.88
   5  -1   8  112.39    7.59
   5  -1   8  129.38   10.03
   6  -1   8   48.87    5.55
   6  -1   8   43.11    5.10
   7  -1   8    3.29    2.35
   7  -1   8    5.90    2.55
   8  -1   8   60.95    7.14
   7   0  -8   37.18    7.98
   6   0  -8    3.91    3.76
  -6   0   8    7.00    3.19
   5   0  -8   41.88    8.22
  -5   0   8   55.21    6.74
  -5   0   8   60.09    5.19
   4   0  -8   57.58    8.95
  -4   0   8   67.30    7.33
  -4   0   8   83.55    6.01
   3   0  -8   -0.11    1.94
   3   0  -8    0.11    1.03
  -3   0   8    1.15    1.41
  -3   0   8    1.62    1.21
  -2   0   8  129.11   10.74
  -2   0   8  136.64    8.64
  -2   0   8  138.59    8.81
  -1   0   8  119.66    8.72
  -1   0   8  138.79    8.49
  -1   0   8  131.86   10.18
   0   0   8    7.85    1.57
   0   0   8    8.21    1.88
   0   0   8    6.04    1.66
   1   0   8  199.13   12.25
   1   0   8  186.47   13.55
   1   0   8  193.97   11.62
   2   0   8  143.21    9.97
   2   0   8  140.51    9.24
   2   0   8  128.66    8.56
  -3   0  -8    0.44    1.37
   3   0   8    2.88    1.12
   3   0   8    2.84    1.37
   3   0   8    2.28    1.25
   4   0   8  168.09   12.12
   4   0   8  165.42   10.80
   4   0   8  155.52    9.89
   5   0   8   95.56    6.61
   5   0   8  105.13    7.69
   5   0   8  101.08    8.37
  -6   0  -8    0.74    1.77
   6   0   8    2.92    1.82
   6   0   8    5.00    2.02
   6   0   8    5.09    1.49
   7   0   8   53.88    5.84
   7   0   8   60.05    6.47
   8   0   8   39.86    5.47
   8   0   8   29.74    5.11
   6  -1  -8   16.53    5.19
  -6   1   8   26.26    6.11
   5  -1  -8  106.49   10.92
  -5   1   8   92.03   10.08
   4  -1  -8    4.12    2.51
  -4   1   8    5.33    1.87
  -4   1   8    4.61    2.54
   3  -1  -8   69.17    8.22
  -3   1   8   56.68    6.96
  -3   1   8   83.71    5.82
   2  -1  -8  144.29    9.04
  -2   1   8  154.71    9.31
  -2   1   8  126.43   11.38
   1  -1  -8   18.06    2.15
  -1   1   8   20.69    2.99
  -1   1   8   15.75    2.26
  -1   1   8   20.21    2.40
   0  -1  -8  303.17   18.00
   0   1   8  291.15   18.08
   0   1   8  330.17   21.74
   0   1   8  340.11   18.37
  -1  -1  -8  200.58   17.06
   1   1   8  255.15   14.22
   1   1   8  240.86   16.80
   1   1   8  266.07   14.58
   2   1   8   10.84    1.94
   2   1   8    8.78    1.56
   3   1   8  201.79   12.50
   3   1   8  200.04   12.06
   3   1   8  213.48   14.38
   4   1   8   84.67    6.39
   4   1   8   89.98    7.12
   4   1   8   89.48    5.89
  -5  -1  -8    0.00    1.63
   5   1   8    3.80    1.48
   5   1   8    3.48    1.52
   5   1   8    4.15    1.26
   6   1   8  101.28    7.87
   6   1   8  104.55    6.88
   6   1   8  105.59    8.74
   7   1   8   35.02    3.29
   7   1   8   35.27    4.58
   7   1   8   34.79    4.23
  -8  -1  -8    1.20    2.73
   8   1   8    3.64    2.23
   8   1   8    8.02    2.75
  -6   2   8   38.41    7.81
   5  -2  -8    3.62    2.84
  -5   2   8    3.19    2.94
   4  -2  -8   37.67    5.44
  -4   2   8   30.46    5.88
   3  -2  -8  137.95   11.41
  -3   2   8  123.43    8.79
   2  -2  -8    4.30    2.22
  -2   2   8    6.77    2.49
  -2   2   8    3.45    1.49
   1  -2  -8   61.08    6.92
  -1   2   8   82.00    5.44
  -1   2   8   67.40    4.58
  -1   2   8   89.43    7.17
   0  -2  -8  183.78   10.85
   0   2   8  214.58   11.30
   0   2   8  194.85   13.83
   0   2   8  158.84   11.13
  -1  -2  -8    1.93    1.15
   1   2   8    3.14    1.30
   1   2   8    3.25    1.14
   1   2   8    2.68    1.15
   3   2   8  231.83   14.87
   3   2   8  208.43   12.93
   3   2   8  211.16   12.64
  -4  -2  -8    0.54    1.57
   4   2   8    2.21    1.16
   4   2   8    2.31    0.99
   4   2   8    2.78    1.11
   5   2   8  135.93    9.37
   5   2   8  147.63    8.74
   5   2   8  138.19   10.37
   6   2   8   59.94    4.46
   6   2   8   61.50    5.73
   6   2   8   58.70    5.29
  -7  -2  -8    0.62    2.08
   7   2   8    0.28    1.30
   7   2   8    1.92    1.17
   7   2   8    1.71    1.60
   8   2   8   86.25    6.08
   8   2   8   85.54    8.25
   8   2   8   80.34    7.21
  -9  -2  -8    1.97    3.46
  -5   3   8   24.55    6.00
  -4   3   8   35.65    6.68
  -3   3   8    0.88    2.16
   2  -3  -8   44.29    4.89
  -2   3   8   42.80    5.70
  -2   3   8   58.38    4.37
   1  -3  -8  108.37    9.10
  -1   3   8  135.78   10.44
  -1   3   8  131.95    8.10
   0  -3  -8    4.87    0.88
   0  -3  -8    2.99    1.12
   0   3   8    5.80    1.44
   0   3   8    5.65    1.81
   0   3   8    6.00    1.21
  -1  -3  -8  150.61    8.98
   1   3   8  135.89   11.29
   1   3   8  154.51    9.28
   1   3   8  162.65    9.15
  -3  -3  -8    0.70    1.74
  -3  -3  -8    1.40    1.16
   3   3   8    1.56    0.84
   3   3   8    1.77    0.95
   3   3   8    2.04    1.02
   4   3   8  121.77    8.10
   4   3   8  118.55    7.67
   4   3   8  132.41    8.91
   5   3   8  104.95    7.74
   5   3   8   96.65    6.49
   5   3   8  100.97    7.11
  -6  -3  -8    1.49    2.29
   6   3   8    7.13    1.85
   6   3   8    9.79    2.16
   6   3   8    7.63    1.46
   7   3   8   90.62    7.93
   7   3   8   90.51    7.15
   7   3   8   88.74    6.13
   8   3   8   46.76    3.95
   8   3   8   45.18    4.93
   8   3   8   42.45    5.32
  -9  -3  -8    0.78    3.12
   9   3   8    4.99    2.54
  -5   4   8   48.68    8.13
  -4   4   8    3.25    3.07
  -3   4   8   23.36    5.21
  -2   4   8   98.98    9.62
  -1   4   8    2.00    1.65
  -1   4   8    0.51    1.14
   0   4   8  128.33    8.64
   0   4   8  150.08   11.18
   1   4   8   96.22    6.34
   1   4   8   85.64    7.94
   1   4   8  102.71    6.04
   2   4   8   15.15    1.80
   2   4   8   14.49    1.79
   3   4   8  208.78   12.12
   3   4   8  204.54   12.22
   4   4   8   77.59    5.54
   4   4   8   84.87    5.97
   4   4   8   92.38    6.29
  -5  -4  -8    0.65    1.94
   5   4   8   -0.20    0.71
   5   4   8    0.48    1.08
   5   4   8    1.05    0.82
   6   4   8  116.26    8.47
   6   4   8  125.40    9.38
   6   4   8  125.03    7.82
   7   4   8   53.09    4.17
   7   4   8   47.07    4.75
   7   4   8   56.27    5.47
  -8  -4  -8   -1.05    2.12
   8   4   8    1.53    1.18
   8   4   8    2.51    1.78
   8   4   8    3.39    1.92
   9   4   8   63.48    5.05
   9   4   8   63.54    7.01
  -3   5   8   40.32    6.35
  -2   5   8   -0.26    1.91
  -1   5   8   57.05    4.76
  -1   5   8   71.68    6.81
   0   5   8  174.77   12.80
   0   5   8  149.64    9.90
   1   5   8    0.62    1.19
   1   5   8    0.78    0.95
   2   5   8  134.61    8.23
   2   5   8  138.01    8.46
   3   5   8  146.99    9.11
   3   5   8  152.16    9.19
  -4  -5  -8    1.06    2.18
   4   5   8    2.86    1.09
   4   5   8    2.85    1.18
   5   5   8  134.63    9.11
   5   5   8  125.72    8.59
   5   5   8  126.72    8.12
   6   5   8   77.69    6.24
   6   5   8   79.50    5.62
   6   5   8   85.95    6.69
  -7  -5  -8   -0.36    2.04
   7   5   8    1.31    1.10
   7   5   8    0.89    1.32
   7   5   8    1.29    1.37
   8   5   8   73.07    6.98
   8   5   8   66.12    6.06
   8   5   8   69.34    5.28
   9   5   8   21.47    2.84
   9   5   8   27.36    4.73
  -2   6   8   24.49    4.92
  -1   6   8   87.55    8.41
   0   6   8    3.12    1.82
   0   6   8    1.69    1.35
   1   6   8   84.08    5.79
   1   6   8   79.30    7.59
   2   6   8   78.00    5.49
   2   6   8   82.28    7.51
  -3  -6  -8   -0.61    2.16
   3   6   8    1.63    1.02
   3   6   8   -0.09    0.82
   4   6   8   57.25    4.22
   4   6   8   52.74    4.35
   5   6   8   90.48    6.52
   5   6   8   88.31    6.06
  -6  -6  -8    0.46    2.45
   6   6   8    1.93    1.42
   6   6   8    1.67    1.08
   7   6   8   65.30    5.73
   7   6   8   68.71    5.17
   8   6   8   26.44    3.75
   8   6   8   30.68    3.15
  -1   7   8   -0.05    1.83
   0   7   8   45.08    5.40
   1   7   8   61.95    4.79
   1   7   8   56.90    6.28
   2   7   8   -0.08    1.02
   2   7   8   -0.77    1.34
   4   7   8   44.32    3.61
   4   7   8   37.78    3.68
  -5  -7  -8    0.56    2.88
   5   7   8    1.31    1.09
   5   7   8    0.97    1.18
   6   7   8   63.99    5.53
   6   7   8   67.55    5.12
   7   7   8   36.82    3.55
   7   7   8   32.22    3.98
   8   7   8    5.06    2.12
   1   8   8   -0.14    1.69
   2   8   8   38.39    5.12
   2   8   8   40.14    3.74
   3   8   8   46.45    3.98
  -4  -8  -8    1.65    3.16
   4   8   8    1.63    1.23
   5   8   8   48.69    4.49
   5   8   8   44.53    3.99
   6   8   8   39.25    3.65
   6   8   8   33.49    3.94
   7   8   8    3.10    1.83
   3   9   8   -0.76    1.94
   4   8  -9   -0.90    2.97
  -3  -8   9   20.47    3.54
  -2  -8   9   19.96    3.44
   1   8  -9    0.55    2.22
  -1  -8   9    1.38    2.20
  -1  -8   9    1.34    1.62
  -6  -7   9   33.51    6.71
   5   7  -9    0.96    2.55
   5   7  -9    0.08    2.62
  -5  -7   9    0.57    1.75
  -5  -7   9    0.06    2.27
   4   7  -9   26.45    5.77
  -4  -7   9   35.66    4.34
   3   7  -9   24.42    5.45
  -3  -7   9   35.08    4.08
   2   7  -9   -0.13    1.81
  -2  -7   9    2.92    1.58
  -2  -7   9    2.78    2.24
  -1  -7   9   43.89    4.40
  -1  -7   9   49.85    5.74
   0  -7   9   22.74    4.12
   0  -7   9   19.36    3.01
  -1   7  -9   -0.43    1.71
   1  -7   9    7.19    2.77
   3  -7   9   12.84    3.56
   6   6  -9   -0.57    2.62
   6   6  -9   -0.19    2.41
  -6  -6   9    0.59    1.93
  -6  -6   9    0.36    2.32
   5   6  -9   14.44    4.42
  -5  -6   9   21.45    3.72
  -5  -6   9   27.03    5.03
   4   6  -9   17.74    4.80
   3   6  -9   -0.08    1.79
  -3  -6   9    0.31    1.45
  -3  -6   9   -0.01    1.21
  -2  -6   9   64.83    5.48
  -2  -6   9   72.81    7.25
  -1  -6   9   64.34    5.33
  -1  -6   9   70.75    6.85
   0  -6   9   10.42    2.91
   0  -6   9   10.25    2.02
   1  -6   9   90.44    6.45
   1  -6   9   93.01    8.01
  -3   6  -9   -0.17    2.01
   3  -6   9    8.27    3.08
   4  -6   9   55.41    6.39
   7   5  -9    2.15    2.78
   6   5  -9   20.52    4.88
   6   5  -9    6.68    6.28
  -6  -5   9   26.97    4.38
  -6  -5   9   30.25    5.48
   5   5  -9   24.13    5.40
  -5  -5   9   33.32    4.15
  -5  -5   9   36.32    5.11
   4   5  -9    0.22    2.35
   4   5  -9    0.98    2.09
  -4  -5   9    1.22    1.34
  -4  -5   9    0.03    1.39
  -3  -5   9   51.93    6.45
  -3  -5   9   59.37    5.84
  -3  -5   9   60.97    5.18
  -2  -5   9   58.83    5.45
  -2  -5   9   55.09    4.77
   1   5  -9    0.95    1.69
  -1  -5   9    0.69    1.67
  -1  -5   9    2.20    1.21
  -1  -5   9    1.05    1.09
   0  -5   9  100.95    6.93
   0  -5   9  102.24    8.39
   1  -5   9   40.53    3.53
   1  -5   9   38.80    4.94
   2  -5   9    8.89    2.75
   2  -5   9    7.43    1.58
   4  -5   9   32.57    5.17
   5  -5   9    5.07    3.16
  -7  -4   9   26.72    4.85
   6   4  -9   27.89    5.24
  -6  -4   9   37.93    5.56
  -6  -4   9   34.95    4.60
   5   4  -9   -1.06    1.78
   5   4  -9    1.10    2.62
  -5  -4   9   -0.50    1.46
  -5  -4   9    0.53    1.47
   4   4  -9   34.99    6.03
  -3  -4   9   80.50    7.01
  -3  -4   9   67.85    7.40
  -3  -4   9   81.02    6.09
  -2  -4   9    6.16    1.63
  -2  -4   9    6.34    2.60
  -2  -4   9    7.90    1.88
  -1  -4   9  109.93    7.60
  -1  -4   9  116.08    8.54
  -1  -4   9  114.61    9.12
   0  -4   9   80.22    6.03
   0  -4   9   79.22    5.68
   0  -4   9   76.65    6.87
   1  -4   9   12.10    1.90
   1  -4   9   11.92    2.87
   2  -4   9  115.50    7.60
   2  -4   9  126.18    9.53
   3  -4   9   37.53    4.81
   3  -4   9   33.51    3.00
   4  -4   9   13.70    3.98
   4  -4   9   16.46    3.79
   5  -4   9   93.08    8.69
   5  -4   9   84.91    9.65
   6  -4   9   19.77    4.78
  -7  -3   9   44.62    5.88
   6   3  -9   -2.06    3.63
   6   3  -9    1.91    1.93
  -6  -3   9    1.70    2.10
  -6  -3   9    2.07    1.89
   5   3  -9   59.23    6.73
  -5  -3   9   71.74    6.11
  -5  -3   9   69.58    7.31
   4   3  -9   93.12    9.42
  -4  -3   9  105.54    7.89
  -4  -3   9  120.60    9.66
   3   3  -9    0.23    1.88
  -3  -3   9    6.03    2.51
  -3  -3   9    5.33    1.69
  -3  -3   9    5.49    1.97
  -2  -3   9  106.62    7.71
  -2  -3   9  122.64    9.17
  -1  -3   9  136.82    8.75
  -1  -3   9  124.05    9.80
  -1  -3   9  137.00    9.95
   0  -3   9   14.79    2.22
   0  -3   9   13.75    1.99
   0  -3   9   15.28    3.06
   1  -3   9  137.88    9.80
   1  -3   9  133.66    9.22
   1  -3   9  125.33    8.33
   2  -3   9   86.96    7.37
   2  -3   9   84.40    5.85
   2  -3   9   85.48    6.03
   3  -3   9    6.84    1.52
   3  -3   9   10.34    3.16
   3  -3   9    9.98    2.85
   4  -3   9   86.23    9.02
   4  -3   9   93.46    6.04
   4  -3   9   90.11    8.18
   5  -3   9   48.90    6.36
   5  -3   9   47.10    6.00
   6  -3   9   15.19    4.18
   6  -3   9   21.75    4.76
   7  -3   9   48.01    7.33
   6   2  -9   12.40    6.59
  -6  -2   9   21.99    4.84
  -6  -2   9   24.58    4.09
   5   2  -9   53.99    5.46
  -5  -2   9   58.86    6.72
  -5  -2   9   49.82    5.20
   4   2  -9    6.97    2.68
  -4  -2   9    6.27    1.91
  -4  -2   9    9.99    2.77
   3   2  -9   57.98    6.60
  -2  -2   9  123.64    9.65
  -2  -2   9  104.69    9.08
  -2  -2   9  127.00    8.19
   1   2  -9    0.39    1.14
  -1  -2   9    0.34    0.98
  -1  -2   9   -0.12    1.33
  -1  -2   9    0.22    0.97
   0  -2   9  139.66   10.59
   0  -2   9  159.17   10.30
   0  -2   9  141.11    9.23
   1  -2   9  107.74    7.66
   1  -2   9  121.25    8.73
   1  -2   9  130.19    8.94
  -2   2  -9    0.00    1.12
   2  -2   9    3.70    1.98
   2  -2   9    6.28    1.33
   2  -2   9    5.00    1.36
   2  -2   9    2.45    1.72
   3  -2   9  171.19   14.07
   3  -2   9  182.42   10.92
   3  -2   9  173.86   12.52
   3  -2   9  181.34   12.19
   4  -2   9   57.79    6.31
   4  -2   9   74.37    7.27
   4  -2   9   69.26    4.96
   5  -2   9   11.53    3.21
   5  -2   9   14.59    3.49
   6  -2   9  100.97    9.45
   6  -2   9   79.02    8.30
   7  -2   9   15.63    4.17
   6   1  -9   26.88    7.82
  -6  -1   9   38.00    6.13
   5   1  -9   -1.90    2.72
  -5  -1   9    0.87    1.71
  -5  -1   9   -0.43    1.46
   4   1  -9   64.69    5.78
  -4  -1   9   65.70    5.66
  -4  -1   9   65.31    7.02
   3   1  -9   91.28    8.21
  -3  -1   9  105.93    7.36
  -3  -1   9   99.47    8.90
  -2  -1   9    7.69    2.20
  -2  -1   9    9.02    1.94
  -2  -1   9    7.39    2.16
  -1  -1   9  159.44   12.27
  -1  -1   9  161.56   10.35
  -1  -1   9  171.88   11.22
   0  -1   9  109.73    7.75
   0  -1   9  101.74    7.08
   0  -1   9  103.63    8.20
   1  -1   9   11.42    2.06
   1  -1   9    8.92    2.23
   1  -1   9   11.28    1.95
   2  -1   9  236.24   13.22
   2  -1   9  209.15   14.06
   2  -1   9  209.28   14.99
   3  -1   9  132.68   10.43
   3  -1   9  123.11    8.05
   3  -1   9  109.60    8.94
   3  -1   9  126.47    8.98
   4  -1   9   14.02    3.07
   4  -1   9   12.26    2.11
   4  -1   9   10.56    2.69
   5  -1   9  126.08    9.79
   5  -1   9  123.09    8.25
   5  -1   9  134.27   10.84
   6  -1   9   39.43    5.04
   6  -1   9   39.92    5.16
   7  -1   9   14.48    3.86
   7  -1   9   14.36    3.67
   6   0  -9   -0.21    3.35
  -6   0   9    1.93    2.80
   5   0  -9   51.84    9.73
  -5   0   9   55.20    7.30
  -5   0   9   58.11    5.60
   4   0  -9   48.48    9.42
  -4   0   9   64.52    5.44
  -4   0   9   46.16    6.26
   3   0  -9    0.59    1.25
   3   0  -9   -1.25    2.21
  -3   0   9    0.01    1.31
  -3   0   9    0.96    1.32
  -2   0   9  144.49    9.36
  -2   0   9  143.22   11.54
  -2   0   9  139.22    9.24
  -1   0   9  155.08   11.82
  -1   0   9  154.83   10.22
  -1   0   9  150.11    9.71
   0   0   9    7.85    1.87
   0   0   9    8.93    1.99
   0   0   9    7.30    1.61
   1   0   9  159.91   10.65
   1   0   9  160.32   10.10
   1   0   9  166.22   11.85
   2   0   9   92.98    7.36
   2   0   9   95.64    6.46
   2   0   9   92.90    7.06
   3   0   9   31.17    3.14
   3   0   9   37.32    3.92
   3   0   9   36.50    4.21
   4   0   9  235.81   16.23
   4   0   9  216.78   13.29
   4   0   9  215.51   14.13
   5   0   9   83.60    6.93
   5   0   9   90.47    7.68
   5   0   9   81.18    5.95
   6   0   9   42.28    4.87
   6   0   9   45.99    5.11
   6   0   9   37.33    3.67
   7   0   9   89.73    7.84
   7   0   9   85.53    8.37
   8   0   9   22.63    4.57
   8   0   9   19.07    4.25
   6  -1  -9   22.44    5.94
   5  -1  -9   57.23    7.80
  -5   1   9   39.83    6.73
   4  -1  -9    2.26    2.91
  -4   1   9    3.80    2.01
  -4   1   9    3.41    2.48
   3  -1  -9   67.75    8.86
  -3   1   9   70.80    8.04
  -3   1   9   93.31    6.54
   2  -1  -9   83.02    6.63
  -2   1   9  102.75    8.85
  -2   1   9   97.44    6.78
   1  -1  -9    0.68    1.19
  -1   1   9    2.79    1.52
  -1   1   9    3.04    1.34
  -1   1   9    4.49    1.42
   0   1   9  197.07   11.43
   0   1   9  173.58   11.18
   0   1   9  179.26   13.39
   1   1   9  106.82    7.05
   1   1   9   99.05    8.28
   1   1   9  110.88    7.46
  -2  -1  -9   -0.48    0.76
   2   1   9    1.14    0.95
   2   1   9   -0.24    0.81
   2   1   9    0.05    1.09
   3   1   9  250.96   15.06
   3   1   9  263.89   17.97
   3   1   9  258.93   15.59
   4   1   9   66.90    5.88
   4   1   9   60.92    5.22
   4   1   9   62.98    4.69
   5   1   9   15.48    2.83
   5   1   9   17.06    2.24
   5   1   9   17.18    2.88
   6   1   9  132.01    9.48
   6   1   9  127.20    8.35
   6   1   9  125.94   10.27
   7   1   9   42.99    3.99
   7   1   9   46.18    5.15
   7   1   9   48.60    5.46
   8   1   9   11.74    3.27
   8   1   9   16.36    3.74
  -5   2   9    0.20    2.61
   4  -2  -9   45.65    6.15
  -4   2   9   29.53    6.33
   3  -2  -9   83.14    8.29
  -3   2   9   77.56    6.24
  -3   2   9   66.16    8.01
   2  -2  -9   -0.04    1.77
  -2   2   9    1.55    1.73
  -2   2   9    1.07    1.29
  -1   2   9  100.42    6.45
  -1   2   9  104.97    8.26
  -1   2   9   74.94    5.54
   0  -2  -9  126.19    7.76
   0   2   9  141.49    8.10
   0   2   9  116.89    9.79
   0   2   9  115.53    8.06
  -1  -2  -9    0.09    0.89
  -1  -2  -9    0.21    1.32
   1   2   9    1.17    1.04
   1   2   9    0.22    1.01
   1   2   9    0.68    1.04
  -2  -2  -9  138.92   10.34
   2   2   9  143.77   10.81
   2   2   9  148.88    9.17
   2   2   9  140.97    8.94
   3   2   9  117.41    8.72
   3   2   9  112.14    7.33
   3   2   9  110.54    7.57
   4   2   9   18.43    2.52
   4   2   9   15.78    2.07
   4   2   9   14.20    2.38
   5   2   9  141.61    9.03
   5   2   9  143.12    9.75
   5   2   9  147.91   10.73
   6   2   9   36.52    3.94
   6   2   9   33.58    4.00
   6   2   9   33.92    3.21
  -7  -2  -9   -0.07    2.34
   7   2   9    7.21    1.69
   7   2   9    7.45    2.34
   7   2   9    7.61    2.28
   8   2   9   62.43    5.04
   8   2   9   59.55    6.23
   8   2   9   70.02    6.97
  -5   3   9   15.68    5.53
  -4   3   9   18.63    5.33
  -3   3   9   -0.04    1.89
  -2   3   9  108.80    7.30
  -2   3   9   98.10    9.65
   1  -3  -9   87.77    7.86
  -1   3   9   98.76    6.81
  -1   3   9  116.86    9.10
   0  -3  -9    1.44    1.30
   0   3   9    2.97    1.33
   0   3   9    3.32    1.65
   0   3   9    4.46    1.17
   1   3   9  131.35   11.16
   1   3   9  147.08    9.23
   1   3   9  159.82    9.21
  -2  -3  -9   99.02    7.34
   2   3   9  105.46    6.84
   2   3   9  106.00    6.85
  -3  -3  -9    7.30    1.84
  -3  -3  -9    1.16    2.08
   3   3   9    5.07    1.43
   3   3   9    4.73    1.28
   4   3   9  164.19   11.04
   4   3   9  153.53    9.48
   4   3   9  144.21    9.76
   5   3   9   51.35    3.99
   5   3   9   46.44    4.45
   5   3   9   55.42    4.75
   6   3   9   27.28    3.29
   6   3   9   27.01    3.32
   6   3   9   23.32    2.64
   7   3   9   82.64    7.47
   7   3   9   87.33    6.07
   7   3   9   84.36    6.98
   8   3   9   25.78    2.94
   8   3   9   25.31    4.00
   8   3   9   29.70    3.95
  -9  -3  -9    1.96    3.50
   9   3   9   11.89    3.31
  -4   4   9    0.21    3.10
  -3   4   9   59.21    7.67
  -2   4   9   76.87    8.18
  -1   4   9    0.90    1.12
  -1   4   9   -0.16    1.34
   0   4   9  108.76    8.80
   0   4   9   93.20    6.80
   1   4   9  106.04    6.71
   1   4   9  101.62    8.84
   1   4   9  106.89    7.06
   2   4   9    0.28    0.89
   2   4   9    0.15    1.06
   2   4   9    0.44    0.87
   3   4   9  201.22   11.78
   3   4   9  192.24   11.79
   4   4   9   59.03    4.64
   4   4   9   60.81    4.94
   4   4   9   76.31    5.40
  -5  -4  -9    0.75    2.30
   5   4   9    6.33    1.47
   5   4   9    7.94    1.68
   5   4   9    6.50    1.77
   6   4   9  107.17    7.21
   6   4   9  113.76    8.51
   6   4   9  106.14    7.84
   7   4   9   34.77    4.19
   7   4   9   36.13    3.33
   7   4   9   38.27    4.18
  -8  -4  -9    2.01    2.96
   8   4   9   11.53    2.80
   8   4   9   10.21    2.02
   8   4   9   10.98    2.90
   9   4   9   70.51    5.49
   9   4   9   65.64    7.23
  -3   5   9   37.40    6.20
  -2   5   9   -0.77    1.80
  -1   5   9   75.23    7.51
   0   5   9   93.59    6.99
   0   5   9  115.49    9.27
   1   5   9    2.75    1.32
   1   5   9    2.40    1.59
   2   5   9   74.86    6.90
   2   5   9   72.56    5.22
   2   5   9   69.65    4.95
   3   5   9   49.03    3.90
   3   5   9   50.07    3.89
   4   5   9    6.75    1.44
   4   5   9    5.81    1.52
   5   5   9   87.81    6.18
   5   5   9   96.96    6.75
   6   5   9   22.96    3.07
   6   5   9   24.79    2.60
  -7  -5  -9    0.10    2.51
   7   5   9    5.60    1.92
   7   5   9    6.80    1.59
   8   5   9   70.24    5.45
   8   5   9   73.86    6.42
   9   5   9   21.75    2.92
  -2   6   9   36.56    5.51
  -1   6   9   54.88    6.31
   0   6   9    0.87    1.56
   1   6   9   78.00    7.57
   1   6   9   79.39    5.80
   2   6   9   55.14    5.95
   2   6   9   54.37    4.35
  -3  -6  -9    2.45    2.94
   3   6   9    8.73    1.71
   3   6   9    8.85    1.68
   4   6   9   85.86    6.09
   4   6   9   85.04    5.90
   5   6   9   39.54    3.49
   5   6   9   41.75    3.83
   6   6   9   11.57    2.39
   6   6   9   12.06    2.06
   7   6   9   64.06    5.66
   7   6   9   63.92    5.05
   8   6   9   23.48    2.96
   8   6   9   24.31    3.87
  -1   7   9    0.35    1.93
   0   7   9   55.17    6.20
   1   7   9   50.46    5.89
   2   7   9    3.10    1.97
   2   7   9    2.81    1.38
   3   7   9   81.20    5.84
   4   7   9   28.80    2.96
   4   7   9   28.05    3.01
  -5  -7  -9    2.46    3.04
   5   7   9    8.29    1.79
   5   7   9    7.67    1.98
   6   7   9   77.68    5.65
   6   7   9   68.38    5.95
   7   7   9   21.89    3.49
   7   7   9   20.47    2.79
   1   8   9    4.72    2.47
   2   8   9   40.08    5.48
   3   8   9   39.08    5.44
   3   8   9   40.79    3.78
  -4  -8  -9    2.13    3.76
   4   8   9    1.51    1.23
   6   8   9   27.80    3.63
   6   8   9   29.30    3.32
   7   8   9    5.30    2.24
  -2  -8  10    8.50    2.59
  -1  -8  10    2.10    1.89
  -5  -7  10    6.22    3.24
   4   7 -10   17.62    4.98
   3   7 -10    0.80    2.59
   3   7 -10    9.10    3.76
   2   7 -10   -0.40    1.64
  -2  -7  10    3.39    2.63
  -2  -7  10    2.19    1.70
  -1  -7  10   47.61    5.85
  -1  -7  10   41.52    4.43
   0  -7  10   22.53    3.38
   0  -7  10   26.43    4.81
  -1   7 -10    1.00    2.20
   1  -7  10    4.21    2.61
  -6  -6  10    1.27    2.46
   5   6 -10   13.14    4.42
   4   6 -10    9.72    4.08
  -4  -6  10   21.60    3.56
   3   6 -10    1.01    2.16
  -3  -6  10    4.00    1.85
  -3  -6  10    2.47    1.77
  -2  -6  10   49.84    4.75
  -2  -6  10   47.27    6.10
  -1  -6  10   26.10    4.59
  -1  -6  10   26.83    3.30
   0  -6  10    7.48    2.78
   0  -6  10   10.83    2.23
   1  -6  10   39.26    3.83
   1  -6  10   37.47    5.05
  -2   6 -10    0.84    2.23
   2  -6  10    9.56    3.14
  -3   6 -10    0.92    2.51
   3  -6  10   12.05    3.57
   6   5 -10   18.47    5.06
  -6  -5  10   26.51    4.66
  -6  -5  10   35.52    6.39
   5   5 -10   14.09    4.57
  -5  -5  10   27.34    5.02
  -5  -5  10   26.88    4.23
   4   5 -10    0.31    2.35
   4   5 -10   -0.86    1.13
  -4  -5  10    2.32    1.64
  -4  -5  10    3.90    2.14
  -3  -5  10   66.15    6.22
  -3  -5  10   50.74    6.69
  -3  -5  10   56.07    5.29
  -2  -5  10   25.61    4.79
  -2  -5  10   29.34    3.48
  -2  -5  10   34.11    3.90
  -1  -5  10    5.74    1.77
  -1  -5  10    8.77    2.85
   0  -5  10   96.87    7.05
   0  -5  10  108.43    8.82
   1  -5  10   17.97    2.44
   1  -5  10   18.19    3.74
   2  -5  10   47.80    5.42
   2  -5  10   35.05    3.45
  -3   5 -10    1.70    2.55
  -4   5 -10   -0.43    2.14
   4  -5  10   11.71    3.51
   6   4 -10   22.04    4.96
  -6  -4  10   27.12    4.59
  -6  -4  10   27.47    5.62
   5   4 -10    2.69    2.62
   5   4 -10   -0.25    2.73
  -5  -4  10    3.94    2.37
  -5  -4  10    2.65    1.86
   4   4 -10   26.22    5.66
  -3  -4  10   28.47    5.34
  -3  -4  10   40.41    4.17
  -3  -4  10   44.07    4.85
  -2  -4  10   13.38    2.51
  -2  -4  10   11.42    2.45
  -2  -4  10   13.96    3.61
  -1  -4  10  133.63    8.81
  -1  -4  10  128.51    9.73
  -1  -4  10  123.92   10.06
   0  -4  10   66.77    6.13
   0  -4  10   53.58    4.70
   0  -4  10   53.46    4.54
   1  -4  10   29.88    4.00
   1  -4  10   22.19    2.68
   2  -4  10  125.46    9.39
   2  -4  10  103.03    7.29
   3  -4  10   20.05    3.90
   3  -4  10   19.14    2.38
   4  -4  10   24.88    4.65
   5  -4  10   71.72    9.08
   5  -4  10   83.51    8.21
  -7  -3  10   17.00    4.49
   6   3 -10   -1.88    4.19
  -6  -3  10    2.18    2.60
  -6  -3  10    1.37    2.22
   5   3 -10   42.11    5.86
  -5  -3  10   51.78    5.42
  -5  -3  10   51.72    6.38
   4   3 -10   19.63    4.83
  -4  -3  10   30.16    4.32
  -4  -3  10   28.05    3.66
   3   3 -10   -0.02    2.08
  -3  -3  10    1.71    2.16
  -3  -3  10    4.76    1.96
  -3  -3  10    8.28    2.11
  -2  -3  10   76.29    7.76
  -2  -3  10   90.04    7.61
  -2  -3  10   90.57    6.62
  -1  -3  10   70.36    6.43
  -1  -3  10   64.33    5.77
  -1  -3  10   60.13    5.06
   0  -3  10   44.68    4.68
   0  -3  10   35.03    3.52
   0  -3  10   40.13    3.88
   1  -3  10  118.27    8.52
   1  -3  10  137.94    9.56
   1  -3  10  146.35   10.07
   2  -3  10   39.27    4.77
   2  -3  10   43.10    3.71
   3  -3  10   26.94    4.49
   3  -3  10   25.59    2.74
   4  -3  10   86.99    9.30
   4  -3  10   99.38    8.58
   4  -3  10   91.28    6.31
   5  -3  10   23.78    4.61
   5  -3  10   19.98    4.61
   6  -3  10   21.22    4.86
   6  -3  10   23.06    5.07
   6   2 -10   18.08    7.62
  -6  -2  10   33.98    5.32
  -6  -2  10   36.75    6.70
  -5  -2  10   39.17    5.73
  -5  -2  10   42.14    4.93
   4   2 -10    0.53    1.91
   4   2 -10    1.91    2.26
  -4  -2  10    3.98    2.18
  -4  -2  10    4.32    1.93
  -3  -2  10  136.89   11.85
  -3  -2  10  156.99   10.19
  -2  -2  10   67.00    6.31
  -2  -2  10   55.98    6.12
  -2  -2  10   63.06    5.25
  -1  -2  10   13.83    2.34
  -1  -2  10   15.95    3.10
  -1  -2  10   13.62    2.66
   0  -2  10  236.59   14.18
   0  -2  10  204.29   15.16
   0  -2  10  207.82   13.13
   1  -2  10   77.93    6.34
   1  -2  10   64.49    5.30
   1  -2  10   72.86    5.92
   2  -2  10   20.93    3.63
   2  -2  10   24.47    2.69
   2  -2  10   25.46    2.80
   3  -2  10   75.79    6.88
   3  -2  10   67.58    5.29
   3  -2  10   74.32    5.67
   4  -2  10   12.50    2.10
   4  -2  10   16.64    3.80
   4  -2  10    8.75    2.99
   5  -2  10   17.25    3.95
   5  -2  10   18.58    4.07
   6  -2  10   49.87    6.57
   6  -2  10   60.34    7.07
   7  -2  10    6.25    3.59
   6   1 -10   18.25    7.00
  -6  -1  10   29.93    6.26
   5   1 -10   -0.08    3.43
  -5  -1  10    0.18    1.98
  -5  -1  10    0.58    2.08
  -4  -1  10   65.32    5.83
  -4  -1  10   53.84    6.78
   3   1 -10   72.31    7.54
  -3  -1  10   93.18    8.52
  -3  -1  10   93.41    6.95
  -2  -1  10    2.15    1.61
  -2  -1  10    4.78    2.00
  -2  -1  10    3.41    1.53
  -1  -1  10  187.22   12.09
  -1  -1  10  195.01   14.44
  -1  -1  10  201.27   12.89
   0  -1  10  120.28    8.54
   0  -1  10  112.67    7.91
   0  -1  10  123.46    9.36
   1  -1  10   34.44    3.54
   1  -1  10   31.83    3.28
   1  -1  10   32.06    3.74
   2  -1  10  170.43   10.49
   2  -1  10  165.13   11.89
   2  -1  10  163.35   11.43
   3  -1  10   55.68    4.30
   3  -1  10   50.41    5.25
   3  -1  10   47.44    4.49
   4  -1  10   33.45    3.24
   4  -1  10   33.81    4.54
   4  -1  10   26.49    4.25
   5  -1  10  118.45   10.08
   5  -1  10  116.12    7.66
   5  -1  10   99.10    8.91
   6  -1  10    2.64    2.02
   6  -1  10    0.32    2.12
   7  -1  10   34.97    5.86
   7  -1  10   43.89    5.91
   6   0 -10   -1.02    3.31
   5   0 -10   35.28    8.07
  -5   0  10   40.79    7.25
   4   0 -10   34.61    8.00
  -4   0  10   36.70    5.67
  -4   0  10   44.60    4.96
   3   0 -10    1.32    2.68
  -3   0  10    3.36    2.02
  -3   0  10    3.72    1.74
  -2   0  10  188.05   10.75
  -2   0  10  135.60   10.14
  -2   0  10  157.99   12.81
  -1   0  10  101.25    7.10
  -1   0  10   96.21    8.57
  -1   0  10  108.96    7.62
   0   0  10   22.38    2.61
   0   0  10   22.47    3.07
   0   0  10   22.19    2.89
   1   0  10  186.88   11.98
   1   0  10  204.54   12.71
   1   0  10  199.82   14.10
   2   0  10   70.91    6.12
   2   0  10   76.23    5.45
   2   0  10   70.24    6.12
   3   0  10   39.97    4.33
   3   0  10   42.96    4.08
   3   0  10   38.77    3.67
   4   0  10  170.89   12.51
   4   0  10  152.08   10.86
   4   0  10  150.49    9.95
   5   0  10   54.30    4.78
   5   0  10   73.32    6.16
   5   0  10   63.62    6.42
   6   0  10   43.81    4.12
   6   0  10   48.15    5.49
   6   0  10   45.74    5.17
   7   0  10   91.15    8.65
   7   0  10   82.58    7.84
   5  -1 -10   42.99    7.64
  -5   1  10   29.55    6.74
   4  -1 -10   -0.95    2.39
  -4   1  10   -0.88    1.71
  -4   1  10   -0.07    1.77
   3  -1 -10   64.20    9.19
  -3   1  10   92.64    6.79
  -3   1  10   75.35    8.27
  -2   1  10   41.30    3.86
  -2   1  10   31.28    4.62
  -1   1  10   17.58    2.45
  -1   1  10   19.53    2.69
  -1   1  10   15.58    3.05
   0   1  10  174.43   11.54
   0   1  10  199.83   11.78
   0   1  10  193.66   13.94
   1   1  10   58.64    5.50
   1   1  10   65.01    5.13
   1   1  10   55.29    4.64
   2   1  10   25.84    3.23
   2   1  10   26.80    2.85
   2   1  10   21.44    3.08
   3   1  10  198.47   12.47
   3   1  10  189.50   11.84
   4   1  10   46.81    4.89
   4   1  10   47.40    4.48
   4   1  10   41.41    3.84
   5   1  10   29.96    3.81
   5   1  10   27.98    3.02
   5   1  10   27.74    3.66
   6   1  10  119.05   10.03
   6   1  10  123.83    8.24
   6   1  10  124.74    9.29
   7   1  10   12.60    2.35
   7   1  10   11.62    3.09
   7   1  10   15.66    3.39
   8   1  10   36.27    4.97
   8   1  10   34.04    4.96
  -4   2  10   17.33    5.06
   3  -2 -10   54.26    6.93
  -3   2  10   46.02    6.60
  -3   2  10   63.21    5.44
   2  -2 -10    9.11    3.41
  -2   2  10   15.23    2.53
  -2   2  10   12.31    3.17
  -1   2  10  206.28   13.99
  -1   2  10  182.19   11.08
  -1   2  10  152.03   10.27
   0   2  10   59.49    4.31
   0   2  10   51.37    5.32
   0   2  10   50.16    4.36
   1   2  10   40.12    3.60
   1   2  10   33.44    4.10
   1   2  10   38.98    3.65
   2   2  10  155.18   12.14
   2   2  10  162.69   10.20
   2   2  10  169.60   10.50
   4   2  10   47.33    4.39
   4   2  10   50.40    4.90
   4   2  10   49.35    4.08
   5   2  10  155.59   10.69
   5   2  10  165.21   11.93
   5   2  10  155.55    9.98
   6   2  10   12.43    2.16
   6   2  10   12.38    2.64
   6   2  10   12.87    2.76
   7   2  10   31.25    4.15
   7   2  10   28.29    3.97
   7   2  10   30.27    3.27
   8   2  10   55.13    5.91
   8   2  10   52.63    4.72
   8   2  10   58.37    6.37
  -4   3  10   21.77    5.87
  -3   3  10    3.55    2.66
  -2   3  10  123.94    8.07
  -2   3  10  105.69   10.34
  -1   3  10   56.73    4.66
  -1   3  10   60.04    6.11
   0   3  10    4.85    1.84
   0   3  10    4.20    1.48
   1   3  10  154.16   12.59
   1   3  10  173.76   10.42
   1   3  10  168.17   10.48
   2   3  10  131.30    8.41
   2   3  10  121.36    8.26
   2   3  10  132.18   10.31
   4   3  10  155.96   10.61
   4   3  10  138.70    8.98
   4   3  10  129.76    9.20
   5   3  10   41.21    4.16
   5   3  10   39.87    3.49
   5   3  10   36.72    3.93
   6   3  10   45.03    4.68
   6   3  10   47.58    4.10
   6   3  10   51.50    4.94
   7   3  10   84.32    7.06
   7   3  10   88.26    7.62
   7   3  10   81.35    6.14
  -8  -3 -10   -0.25    2.62
   8   3  10    4.90    2.16
   8   3  10    5.61    1.75
   8   3  10    5.73    2.39
  -9  -3 -10    4.83    4.30
   9   3  10   28.96    4.82
  -3   4  10   56.78    7.63
  -2   4  10   58.72    6.86
  -1   4  10    3.83    1.94
  -1   4  10    3.19    1.51
   0   4  10  119.11    9.40
   0   4  10   97.41    7.29
   1   4  10   53.10    5.54
   1   4  10   50.28    4.33
   2   4  10    4.26    1.44
   2   4  10    3.40    1.38
   2   4  10    4.03    1.72
   3   4  10  178.32   11.05
   3   4  10  181.44   11.10
   4   4  10   37.27    3.36
   4   4  10   37.14    3.57
   5   4  10   13.66    2.14
   5   4  10   12.11    2.35
   5   4  10   17.78    2.48
   6   4  10   99.41    6.75
   6   4  10   90.45    7.21
   6   4  10   99.56    7.78
   7   4  10   20.03    2.54
   7   4  10   22.86    3.29
   7   4  10   16.60    3.20
   8   4  10   21.87    2.91
   8   4  10   24.22    3.75
   8   4  10   21.61    3.76
   9   4  10   49.52    4.69
   9   4  10   56.79    6.34
  -3   5  10   36.11    6.75
  -2   5  10    0.94    2.08
  -1   5  10   83.51    8.06
   0   5  10   47.11    5.33
   0   5  10   42.16    4.10
   1   5  10    6.44    1.76
   1   5  10    4.90    2.07
   2   5  10   96.79    8.77
   2   5  10  102.44    6.91
   3   5  10   56.66    4.54
   3   5  10   59.79    4.56
   4   5  10   13.85    2.26
   4   5  10   13.42    2.07
   5   5  10  102.82    6.95
   5   5  10  100.86    7.28
   6   5  10   14.45    2.29
   6   5  10   16.21    2.74
   7   5  10   12.30    2.75
   7   5  10   14.68    2.37
   8   5  10   55.92    4.91
   8   5  10   62.84    5.95
  -2   6  10   35.63    5.64
  -1   6  10   37.35    5.06
   0   6  10    2.72    1.95
   1   6  10   86.15    7.98
   1   6  10   76.08    6.06
   2   6  10   42.23    3.78
   2   6  10   36.23    4.87
   3   6  10   27.01    2.92
   4   6  10   86.17    6.22
   4   6  10   87.72    6.19
   5   6  10   17.37    2.28
   5   6  10   17.75    2.73
  -6  -6 -10    2.55    3.28
   6   6  10   13.80    2.20
   6   6  10   10.82    2.41
   7   6  10   61.23    4.92
   7   6  10   54.49    5.41
   8   6  10    7.72    2.56
   0   7  10   58.60    6.50
   1   7  10   24.41    4.48
   2   7  10    5.16    1.83
   2   7  10    4.63    2.31
   3   7  10  105.00    9.39
   3   7  10   95.26    6.92
   5   7  10   13.52    2.32
   5   7  10   13.93    2.58
   6   7  10   64.60    5.83
   6   7  10   76.83    5.68
   7   7  10   12.00    2.80
   2   8  10   43.72    5.85
   3   8  10   28.23    4.70
   3   8  10   32.71    3.47
  -4  -8 -10   -1.45    3.35
   4   8  10    8.02    1.96
   6   8  10   13.25    2.81
   7   8  10    6.19    2.20
  -1  -8  11    2.56    2.17
  -3  -7  11   14.58    3.23
   2   7 -11    1.22    2.42
  -2  -7  11    6.18    2.36
  -2  -7  11    6.65    3.35
   0  -7  11    7.81    3.16
   0  -7  11    9.48    2.48
  -5  -6  11   37.79    6.08
  -4  -6  11   10.00    3.41
  -4  -6  11   13.73    3.26
   3   6 -11    0.26    2.46
  -3  -6  11   10.20    2.71
  -2  -6  11   46.75    4.71
  -2  -6  11   39.60    6.46
  -1  -6  11   13.87    2.75
  -1  -6  11    8.30    3.07
   0  -6  11   17.66    2.95
   1  -6  11   78.45    7.40
   1  -6  11   61.72    5.44
  -2   6 -11    1.25    2.64
   2  -6  11   12.04    3.55
   6   5 -11   14.46    4.70
   5   5 -11    7.18    3.74
   5   5 -11    1.01    3.07
  -5  -5  11   14.31    3.46
  -5  -5  11   17.69    4.41
   4   5 -11    1.31    2.79
   4   5 -11   -0.05    1.88
  -4  -5  11    7.72    2.80
  -4  -5  11    6.92    2.31
  -3  -5  11   64.05    5.72
  -3  -5  11   56.71    6.17
  -3  -5  11   44.78    7.29
  -2  -5  11   13.96    2.67
  -2  -5  11   14.15    2.93
  -2  -5  11    8.86    3.16
  -1  -5  11    8.22    2.89
  -1  -5  11    9.89    2.23
   0  -5  11   81.52    7.62
   0  -5  11   80.44    6.30
   1  -5  11   12.66    3.26
   1  -5  11    9.54    2.12
   2  -5  11   27.31    3.29
   2  -5  11   43.97    5.32
   4  -5  11    2.89    2.60
  -6  -4  11   14.91    3.92
   5   4 -11    2.28    2.75
   5   4 -11    1.29    3.14
  -5  -4  11    6.59    3.14
  -5  -4  11    6.54    2.50
   4   4 -11    8.60    3.78
  -4  -4  11   31.54    3.89
  -3  -4  11   18.38    3.60
  -3  -4  11   10.43    3.82
  -3  -4  11   13.74    2.80
  -2  -4  11   19.36    3.46
  -2  -4  11   13.27    3.74
  -2  -4  11   16.89    2.91
  -1  -4  11  100.55    8.41
  -1  -4  11   93.98    7.79
  -1  -4  11   89.64    7.00
   0  -4  11   24.32    2.93
   0  -4  11   24.49    4.18
   0  -4  11   21.53    2.94
   1  -4  11   32.39    4.33
   1  -4  11   28.82    3.25
   2  -4  11  120.29    8.32
   2  -4  11  132.51   10.07
   3  -4  11   11.57    2.17
   3  -4  11   15.27    3.59
   4  -4  11   37.92    5.79
   5  -4  11   63.94    7.26
  -6  -3  11    2.56    2.66
   5   3 -11   34.37    5.94
  -5  -3  11   52.29    5.74
  -5  -3  11   50.21    6.58
   4   3 -11    8.41    3.68
  -4  -3  11   18.99    3.50
  -4  -3  11   20.57    4.13
  -3  -3  11   10.18    3.35
  -3  -3  11   13.92    3.25
  -3  -3  11   12.90    2.69
  -2  -3  11   63.64    5.54
  -2  -3  11   59.77    6.62
  -2  -3  11   69.58    6.54
  -1  -3  11   40.97    4.54
  -1  -3  11   40.67    4.07
  -1  -3  11   49.12    5.29
   0  -3  11   37.13    3.83
   0  -3  11   39.15    4.09
   0  -3  11   44.45    4.85
   1  -3  11  130.90    9.46
   1  -3  11  120.02    9.04
   1  -3  11  115.54    8.22
   2  -3  11   20.24    3.63
   2  -3  11   17.08    2.60
   3  -3  11   48.14    5.49
   3  -3  11   41.69    3.86
   4  -3  11   72.35    5.50
   4  -3  11   77.30    7.58
   5  -3  11   12.82    4.04
   5  -3  11   14.85    4.05
   6  -3  11   18.94    4.48
   6   2 -11   16.88    7.97
  -6  -2  11   29.28    5.48
   5   2 -11    4.88    5.07
  -5  -2  11   15.58    3.61
  -5  -2  11   12.10    3.79
   4   2 -11    0.25    2.30
   4   2 -11    3.17    2.65
  -4  -2  11    4.55    2.54
  -4  -2  11    5.67    2.28
  -3  -2  11   43.96    4.72
  -3  -2  11   48.00    5.80
  -2  -2  11   12.93    2.99
  -2  -2  11   20.04    3.82
  -2  -2  11   13.12    2.55
  -1  -2  11   26.85    3.25
  -1  -2  11   24.88    3.63
  -1  -2  11   29.54    3.96
   0  -2  11  142.06   10.80
   0  -2  11  153.23   10.23
   0  -2  11  129.45    9.25
   1  -2  11   15.41    2.46
   1  -2  11   18.30    3.28
   1  -2  11   15.05    2.44
   2  -2  11   57.10    4.85
   2  -2  11   55.02    4.61
   2  -2  11   53.07    5.47
   3  -2  11  104.72    7.56
   3  -2  11   87.98    8.07
   3  -2  11  102.81    7.04
   4  -2  11    4.89    2.59
   4  -2  11    4.26    1.57
   4  -2  11    5.31    2.66
   5  -2  11   39.64    5.74
   5  -2  11   43.91    3.86
   5  -2  11   37.92    5.31
   6  -2  11   64.78    7.71
   6  -2  11   58.41    6.96
   6   1 -11   12.53    6.22
   5   1 -11    2.20    4.34
  -5  -1  11    5.41    2.80
  -5  -1  11    7.56    3.50
  -4  -1  11   53.45    6.69
  -4  -1  11   45.32    5.24
   3   1 -11   24.39    4.72
  -3  -1  11   32.39    3.95
  -3  -1  11   36.20    4.93
  -2  -1  11   20.51    3.55
  -2  -1  11   23.58    3.00
  -2  -1  11   22.05    3.68
  -1  -1  11  149.14   12.22
  -1  -1  11  156.01   10.36
  -1  -1  11  169.97   11.05
   0  -1  11   21.33    2.98
   0  -1  11   21.22    2.95
   0  -1  11   18.36    2.56
   1  -1  11  103.97    8.07
   1  -1  11   98.62    7.07
   1  -1  11  100.53    7.75
   2  -1  11  153.46   11.06
   2  -1  11  146.44   10.66
   2  -1  11  151.69    9.75
   3  -1  11   19.26    2.56
   3  -1  11   17.15    2.44
   3  -1  11   16.76    3.33
   4  -1  11   36.86    5.03
   4  -1  11   36.99    3.54
   4  -1  11   35.51    3.64
   4  -1  11   27.55    4.53
   5  -1  11   80.03    5.97
   5  -1  11   84.43    8.27
   5  -1  11   73.00    7.31
   6  -1  11    1.31    2.27
   6  -1  11    3.63    2.37
   7  -1  11   23.76    4.99
   7  -1  11   21.36    4.77
   6   0 -11    1.56    4.09
   5   0 -11   40.80    8.97
  -5   0  11   27.47    6.29
   4   0 -11   15.83    6.13
  -4   0  11   25.86    4.20
  -4   0  11   17.84    4.56
   3   0 -11    3.70    3.49
  -3   0  11   11.55    3.46
  -3   0  11   13.03    2.74
  -2   0  11   89.45    7.19
  -2   0  11  106.54    9.32
  -2   0  11  107.40    7.52
  -1   0  11   84.85    7.94
  -1   0  11   93.69    6.70
  -1   0  11   93.94    6.96
   0   0  11   35.36    4.07
   0   0  11   36.10    3.59
   0   0  11   38.04    3.79
   1   0  11  172.97   11.62
   1   0  11  173.19   11.08
   1   0  11  183.57   13.01
   2   0  11   34.52    4.15
   2   0  11   34.22    3.84
   2   0  11   37.40    3.48
   3   0  11   42.08    3.79
   3   0  11   42.12    4.70
   3   0  11   39.10    4.15
   4   0  11   91.93    7.52
   4   0  11   82.50    6.29
   4   0  11   90.62    8.31
   5   0  11   24.75    3.89
   5   0  11   22.76    2.92
   5   0  11   25.20    4.16
   6   0  11   42.70    5.27
   6   0  11   47.39    5.68
   6   0  11   44.33    4.18
   7   0  11   56.99    6.74
   7   0  11   56.16    6.48
   4  -1 -11    0.78    3.06
  -4   1  11    2.05    2.35
  -4   1  11    0.97    2.29
  -3   1  11   80.34    8.97
  -3   1  11   94.26    7.21
  -2   1  11   41.79    5.35
  -2   1  11   41.41    4.08
  -1   1  11   26.80    3.04
  -1   1  11   32.26    4.13
  -1   1  11   28.73    3.20
   0   1  11  202.90   11.81
   0   1  11  177.29   11.57
   0   1  11  180.31   13.79
   1   1  11   22.07    2.67
   1   1  11   22.26    3.10
   1   1  11   20.16    2.87
   2   1  11   37.07    4.08
   2   1  11   32.47    3.93
   2   1  11   40.65    3.69
   3   1  11  150.87   11.28
   3   1  11  150.97   10.35
   3   1  11  144.53    9.64
   4   1  11   32.61    3.97
   4   1  11   37.20    4.44
   4   1  11   30.62    3.36
   5   1  11   36.51    3.69
   5   1  11   38.23    4.37
   5   1  11   39.35    4.65
   6   1  11   77.88    7.16
   6   1  11   84.78    6.38
   6   1  11   88.66    8.01
  -7  -1 -11    0.20    2.62
   7   1  11    8.43    2.68
   7   1  11    6.45    2.01
   7   1  11    4.96    2.71
   8   1  11   34.02    5.14
  -4   2  11   41.83    6.88
  -3   2  11   30.79    3.94
  -3   2  11   25.47    5.29
  -2   2  11   26.09    3.19
  -2   2  11   21.53    4.19
  -1   2  11  131.99   10.31
  -1   2  11  110.98    8.02
   0   2  11   25.78    3.00
   0   2  11   24.22    3.45
   0   2  11   27.11    2.88
   1   2  11   39.09    3.77
   1   2  11   42.27    3.97
   1   2  11   44.37    4.69
   2   2  11   87.81    6.66
   2   2  11   82.89    7.50
   2   2  11   89.56    6.38
   3   2  11    7.63    1.86
   3   2  11   10.10    2.29
   3   2  11    8.42    2.12
   4   2  11   62.78    5.86
   4   2  11   53.38    4.62
   4   2  11   58.79    5.20
   5   2  11  134.41   10.65
   5   2  11  136.01    9.63
   5   2  11  136.10    8.99
  -6  -2 -11    0.40    2.20
   6   2  11    4.56    1.68
   6   2  11    7.16    2.36
   6   2  11    6.05    2.08
   7   2  11   43.65    4.17
   7   2  11   38.21    4.97
   7   2  11   46.13    5.10
   8   2  11   46.90    5.81
   8   2  11   50.40    4.66
   8   2  11   45.66    5.71
  -3   3  11    4.82    2.93
  -2   3  11   94.92    6.79
  -2   3  11   84.83    8.77
  -1   3  11   24.68    2.91
  -1   3  11   22.51    3.60
   0   3  11   39.89    3.85
   0   3  11   41.06    4.70
   1   3  11  135.68   11.13
   1   3  11  131.54    9.14
   1   3  11  150.32    9.20
   2   3  11    4.40    1.83
   2   3  11    5.16    1.65
   2   3  11    7.14    1.87
   3   3  11   87.03    6.36
   3   3  11   92.50    6.65
   5   3  11   13.73    2.26
   5   3  11   11.96    2.56
   5   3  11   10.87    2.38
   6   3  11   87.33    7.08
   6   3  11   83.42    6.37
   6   3  11   90.99    7.63
   7   3  11   76.38    5.93
   7   3  11   73.02    6.69
   7   3  11   78.35    7.18
  -8  -3 -11   -0.14    2.70
   8   3  11    3.28    1.66
   8   3  11    1.52    1.79
   8   3  11    0.20    1.82
  -9  -3 -11    5.42    4.34
  -3   4  11   63.16    8.13
  -2   4  11   35.11    5.20
  -1   4  11   13.39    2.37
  -1   4  11   13.62    3.18
   0   4  11   87.22    6.69
   0   4  11  100.60    8.52
   1   4  11   23.89    2.98
   1   4  11   21.84    3.54
   2   4  11   16.94    3.37
   2   4  11   18.47    2.48
   2   4  11   18.30    2.69
   3   4  11  155.03    9.98
   3   4  11  156.04    9.95
   4   4  11   21.79    2.69
   4   4  11   23.43    2.91
   5   4  11   50.84    4.58
   5   4  11   48.99    4.21
   6   4  11   91.85    7.41
   6   4  11  101.75    6.95
  -7  -4 -11   -0.23    2.64
   7   4  11    5.99    2.18
   7   4  11    3.97    1.59
   8   4  11   27.03    4.25
   8   4  11   26.61    3.31
  -2   5  11    7.81    3.04
  -1   5  11   67.75    7.18
   0   5  11   31.83    4.22
   0   5  11   26.25    3.35
   1   5  11   14.97    3.26
   1   5  11   14.06    2.54
   2   5  11   89.03    6.53
   2   5  11   88.20    8.27
   3   5  11   17.26    2.50
   3   5  11   14.35    2.42
   3   5  11   19.01    3.59
   4   5  11   17.76    2.49
   4   5  11   20.24    2.65
   5   5  11   83.27    6.06
   5   5  11   83.02    6.39
  -6  -5 -11   -0.27    2.48
   6   5  11    5.58    1.70
   6   5  11    8.22    2.18
   7   5  11   25.41    3.02
   7   5  11   26.57    3.63
  -1   6  11   18.21    4.02
   0   6  11   13.53    3.29
   1   6  11   68.56    5.76
   1   6  11   75.13    7.40
   2   6  11   16.85    2.73
   2   6  11   18.49    3.86
   3   6  11   29.16    3.21
   3   6  11   28.37    4.27
   4   6  11   62.32    4.99
   4   6  11   62.13    4.99
   5   6  11   10.37    2.02
   5   6  11    8.02    2.16
   6   6  11   29.80    3.22
   6   6  11   29.73    3.70
   7   6  11   47.21    4.34
   7   6  11   48.95    5.05
   1   7  11   27.25    4.80
   2   7  11    7.26    2.70
   2   7  11    7.37    2.11
   3   7  11   81.12    6.38
   3   7  11   92.67    8.77
  -4  -7 -11    1.03    3.31
   4   7  11    4.92    1.77
   6   7  11   52.43    5.15
   6   7  11   56.51    4.86
   7   7  11    1.62    1.83
   3   8  11    8.96    2.35
   4   8  11   15.06    2.69
  -2  -7  12   11.93    3.11
  -1  -7  12   28.91    4.05
   0  -7  12    0.28    1.70
  -5  -6  12   28.88    6.12
  -4  -6  12    4.48    2.71
   3   6 -12    0.90    2.66
  -3  -6  12   13.20    3.13
  -2  -6  12   32.78    4.23
  -2  -6  12   41.38    6.61
   1   6 -12   -0.17    1.93
  -1  -6  12    4.50    2.70
  -1  -6  12    5.45    2.15
   0  -6  12   26.03    3.56
   0  -6  12   23.41    4.76
   1  -6  12   40.93    4.39
   1  -6  12   46.57    5.89
   5   5 -12    2.07    3.23
  -5  -5  12    6.77    3.49
   4   5 -12    1.35    3.07
  -4  -5  12   25.62    4.82
  -4  -5  12   19.03    3.79
  -3  -5  12   69.89    6.48
  -3  -5  12   76.05    7.48
  -3  -5  12   57.15    7.76
   2   5 -12    0.34    2.02
  -2  -5  12    4.07    2.05
  -2  -5  12    4.90    2.13
  -2  -5  12    2.81    2.53
  -1  -5  12   30.22    5.11
  -1  -5  12   31.27    3.90
   0  -5  12   68.37    6.90
   0  -5  12   67.61    5.88
  -1   5 -12   -0.35    1.64
   1  -5  12    5.65    2.64
   1  -5  12    4.04    1.79
   2  -5  12   53.62    5.92
   2  -5  12   41.00    4.24
   5   4 -12    2.27    3.08
   5   4 -12    0.11    2.48
  -5  -4  12    6.97    3.10
  -5  -4  12   11.18    3.97
   4   4 -12   18.18    5.06
  -3  -4  12   22.56    3.77
  -3  -4  12   22.53    4.26
  -3  -4  12   16.45    4.56
  -2  -4  12   23.19    4.62
  -2  -4  12   24.18    3.72
  -2  -4  12   19.68    3.46
  -1  -4  12  106.68    8.63
  -1  -4  12   85.33    7.18
  -1  -4  12   94.28    8.05
   0  -4  12   12.96    3.16
   0  -4  12   12.85    2.56
   1  -4  12   44.53    5.16
   1  -4  12   36.65    3.96
   2  -4  12   96.33    8.12
   2  -4  12   80.18    6.39
  -3   4 -12   -0.16    2.22
   3  -4  12    0.87    1.34
   3  -4  12   -0.19    1.97
  -5  -3  12   34.51    5.44
  -5  -3  12   30.06    6.07
   4   3 -12    4.37    3.03
   4   3 -12    0.28    2.33
  -4  -3  12   10.65    3.44
  -4  -3  12    8.78    2.80
  -3  -3  12   11.14    3.20
  -3  -3  12   11.54    3.57
  -3  -3  12   11.73    2.78
  -2  -3  12   45.49    4.77
  -2  -3  12   48.15    5.78
  -2  -3  12   45.14    5.32
  -1  -3  12   19.64    3.17
  -1  -3  12   24.64    4.07
  -1  -3  12   22.07    3.45
   0  -3  12   21.49    2.95
   0  -3  12   19.83    3.10
   0  -3  12   31.78    4.11
   1  -3  12   84.97    7.12
   1  -3  12   84.64    6.56
   1  -3  12   97.08    7.72
  -2   3 -12    0.15    1.77
   2  -3  12    1.11    1.71
   2  -3  12    3.18    1.52
   3  -3  12   67.41    5.53
   3  -3  12   79.68    7.29
   4  -3  12   89.22    8.21
   4  -3  12   78.82    6.08
   5  -3  12    4.42    2.89
  -6  -2  12   21.40    5.41
   5   2 -12    1.38    4.39
  -5  -2  12    9.66    3.99
  -5  -2  12    5.42    2.95
  -4  -2  12   10.59    3.04
  -4  -2  12    9.45    3.42
  -3  -2  12   62.24    5.91
  -3  -2  12   59.09    6.84
   2   2 -12   -0.33    1.74
  -2  -2  12    3.15    2.28
  -2  -2  12    4.79    1.84
  -2  -2  12    3.05    2.01
  -1  -2  12   54.06    4.87
  -1  -2  12   52.54    5.61
  -1  -2  12   53.53    5.46
   0  -2  12  110.14    8.31
   0  -2  12  111.49    8.94
   0  -2  12  102.20    7.66
   1  -2  12   11.16    2.61
   1  -2  12   11.41    2.32
   1  -2  12   10.19    2.25
   2  -2  12   65.95    5.36
   2  -2  12   66.96    6.35
   2  -2  12   68.12    5.72
   3  -2  12   97.39    6.95
   3  -2  12   96.27    8.23
  -4   2 -12   -0.58    1.88
   4  -2  12   -0.77    1.18
   4  -2  12   -0.71    1.89
   5  -2  12   44.23    5.77
   5  -2  12   47.14    6.46
   5  -2  12   44.34    4.11
   6  -2  12   57.17    7.40
   6  -2  12   47.97    6.63
   5   1 -12    3.80    5.29
  -5  -1  12   10.86    3.71
   4   1 -12   21.77    7.53
  -4  -1  12   40.64    5.01
  -4  -1  12   40.09    6.01
  -3  -1  12   10.65    3.24
  -3  -1  12   11.17    2.73
  -2  -1  12   29.16    4.01
  -2  -1  12   32.11    3.77
  -2  -1  12   31.23    4.47
  -1  -1  12  116.41    8.56
  -1  -1  12  127.79    9.14
  -1  -1  12  129.03   10.40
   0  -1  12   13.69    2.78
   0  -1  12   15.89    2.87
   0  -1  12   14.13    2.51
   1  -1  12   92.22    7.65
   1  -1  12   95.82    7.38
   1  -1  12   93.02    6.78
   2  -1  12  132.49    9.81
   2  -1  12  131.16    8.84
   2  -1  12  135.52   10.06
  -3   1 -12    0.89    1.82
   3  -1  12    2.13    1.88
   3  -1  12    0.19    1.18
   3  -1  12    1.10    1.05
   4  -1  12   69.47    5.24
   4  -1  12   58.68    5.52
   4  -1  12   65.79    6.52
   5  -1  12   73.81    7.48
   5  -1  12   81.72    6.06
   5  -1  12   80.87    8.44
   6  -1  12   -0.36    1.69
   6  -1  12    0.29    2.17
   5   0 -12   17.01    6.48
   4   0 -12    4.93    4.58
  -4   0  12    9.51    3.74
  -4   0  12    7.80    3.01
   3   0 -12    5.58    4.16
  -3   0  12   15.44    3.92
  -3   0  12   14.21    2.92
  -2   0  12  101.73    7.71
  -2   0  12  113.79    9.87
  -2   0  12  104.73    7.83
  -1   0  12   48.56    5.42
  -1   0  12   47.52    4.66
  -1   0  12   48.77    4.37
   0   0  12   64.02    6.12
   0   0  12   62.76    5.12
   0   0  12   66.96    5.43
   1   0  12  166.00   10.81
   1   0  12  158.92   11.87
   1   0  12  150.25   10.14
   2   0  12   18.11    2.74
   2   0  12   17.52    2.48
   2   0  12   21.21    3.50
   3   0  12   59.52    5.72
   3   0  12   63.26    6.09
   3   0  12   66.86    5.16
   4   0  12   63.98    5.79
   4   0  12   67.41    5.30
   4   0  12   58.28    6.05
  -5   0 -12   -0.57    2.04
   5   0  12    3.09    1.98
   5   0  12    1.70    1.40
   5   0  12    3.01    2.16
   6   0  12   51.51    6.26
   6   0  12   51.75    4.71
   6   0  12   50.01    5.92
   7   0  12   55.49    6.52
   7   0  12   52.01    6.69
  -4   1  12   12.45    4.21
  -3   1  12   85.41    6.92
  -3   1  12   73.23    8.45
   2  -1 -12   11.11    4.66
  -2   1  12   23.98    3.10
  -2   1  12   25.79    4.07
  -1   1  12   21.44    3.52
  -1   1  12   26.48    3.03
  -1   1  12   23.95    2.96
   0   1  12  101.71    8.55
   0   1  12  110.17    7.30
   0   1  12   93.04    7.03
   1   1  12   22.48    3.13
   1   1  12   18.91    2.58
   1   1  12   21.64    2.99
   2   1  12   23.89    3.01
   2   1  12   25.60    3.41
   2   1  12   31.10    3.78
   3   1  12   90.00    6.82
   3   1  12   93.87    7.98
   3   1  12   99.40    7.69
   4   1  12    7.63    2.47
   4   1  12    5.57    1.75
   5   1  12   43.02    5.13
   5   1  12   37.59    3.95
   5   1  12   37.15    4.56
   6   1  12   53.16    5.94
   6   1  12   52.73    5.63
   6   1  12   46.29    4.58
   7   1  12    2.17    1.73
   7   1  12    0.72    2.10
   7   1  12    1.31    1.95
  -3   2  12    8.63    2.54
  -3   2  12    7.43    3.17
  -2   2  12   20.67    4.20
  -2   2  12   25.25    3.16
  -1   2  12  135.19    8.91
  -1   2  12  129.48   10.95
   0   2  12   19.31    3.12
   0   2  12   21.79    2.62
   0   2  12   17.90    2.73
   1   2  12   88.06    6.29
   1   2  12   74.78    7.09
   1   2  12   75.88    6.00
   2   2  12   69.08    6.71
   2   2  12   78.34    6.21
   2   2  12   70.60    5.63
  -3  -2 -12    0.15    1.25
   3   2  12    3.14    1.55
   3   2  12    4.83    1.91
   3   2  12    4.29    1.77
   5   2  12   92.49    6.98
   5   2  12  100.70    7.84
   5   2  12   96.99    8.52
  -6  -2 -12    0.88    2.61
   6   2  12    2.05    1.88
   6   2  12    0.68    1.47
   6   2  12    0.90    1.30
   7   2  12   46.62    4.64
   7   2  12   47.89    5.52
   7   2  12   50.68    5.86
   8   2  12   49.97    6.09
   8   2  12   44.15    4.69
  -3   3  12   14.27    4.10
  -2   3  12   88.10    6.73
  -2   3  12   91.11    8.94
  -1   3  12   14.92    2.54
  -1   3  12   16.49    3.46
   0   3  12   59.97    6.01
   0   3  12   55.99    4.87
   1   3  12  102.51    9.09
   1   3  12   98.99    7.51
   1   3  12  118.75    7.57
   2   3  12   11.20    2.30
   2   3  12   15.30    2.78
   2   3  12   11.26    2.72
   3   3  12   63.25    5.39
   3   3  12   65.00    6.34
   3   3  12   59.45    5.11
  -5  -3 -12    0.62    2.57
   5   3  12    7.15    2.36
   5   3  12    7.67    1.94
   5   3  12    7.91    2.20
   6   3  12   61.81    5.31
   6   3  12   71.89    6.55
   6   3  12   60.13    5.91
   7   3  12   57.67    5.29
   7   3  12   63.45    6.49
   7   3  12   66.78    6.35
  -8  -3 -12    1.02    3.09
   8   3  12    0.79    1.60
   8   3  12    0.61    1.73
  -2   4  12   12.25    3.60
  -1   4  12   18.81    2.84
  -1   4  12   18.02    3.69
   0   4  12   88.63    8.13
   0   4  12   87.86    6.62
   1   4  12    4.24    1.81
   1   4  12    6.80    2.39
   2   4  12   31.50    3.40
   2   4  12   23.19    3.82
   3   4  12   82.10    7.77
   3   4  12   80.45    6.22
   3   4  12   84.12    6.33
  -4  -4 -12    1.04    2.64
   4   4  12    2.14    1.33
   4   4  12    1.84    1.50
   5   4  12   53.06    4.60
   5   4  12   54.22    4.96
   6   4  12   54.16    4.94
   6   4  12   65.64    5.74
  -7  -4 -12    0.55    2.95
   7   4  12   -0.09    1.59
   7   4  12    0.17    1.35
  -1   5  12   60.86    6.81
   0   5  12    6.70    2.07
   0   5  12    6.61    2.39
   1   5  12   42.96    5.09
   1   5  12   33.77    3.93
   2   5  12   49.88    6.03
   2   5  12   63.00    5.06
   3   5  12    4.27    1.70
   3   5  12    3.95    2.01
   4   5  12   25.69    3.10
   4   5  12   21.10    2.89
   5   5  12   62.01    5.05
   5   5  12   60.51    5.33
  -6  -5 -12    0.27    2.43
   6   5  12    0.50    1.42
   6   5  12   -0.50    1.33
   7   5  12   40.74    4.81
   7   5  12   45.35    4.35
   0   6  12   18.23    3.79
   1   6  12   53.16    5.25
   1   6  12   66.65    6.84
   2   6  12    7.63    2.17
   2   6  12    6.08    2.48
   3   6  12   29.03    3.47
   3   6  12   32.94    4.66
   4   6  12   53.20    4.70
  -5  -6 -12    2.07    3.33
   5   6  12    2.00    1.39
   5   6  12    0.70    1.53
   6   6  12   41.31    4.07
   6   6  12   38.10    4.32
   7   6  12   34.80    4.36
   2   7  12   20.70    3.38
   3   7  12   54.01    6.55
   3   7  12   55.93    5.01
   4   7  12    4.06    1.83
   4   7  12    3.95    2.45
   5   7  12   22.68    3.11
   6   7  12   47.53    4.87
   7   7  12    0.24    1.75
  -2  -6  13   23.18    4.19
  -2  -6  13   24.99    5.21
   1   6 -13    0.78    2.32
  -1  -6  13   -1.58    1.92
  -1  -6  13   -1.21    1.58
   0  -6  13   30.08    4.11
   1  -6  13   26.81    3.73
   4   5 -13    4.69    3.70
  -4  -5  13   16.83    4.52
  -3  -5  13   51.94    7.00
  -3  -5  13   54.14    6.46
  -3  -5  13   42.25    5.33
   2   5 -13   -0.13    2.00
  -2  -5  13   -1.49    1.55
  -2  -5  13    2.22    2.35
  -1  -5  13   31.55    4.33
  -1  -5  13   41.89    5.57
   0  -5  13   40.89    4.73
   0  -5  13   54.57    5.95
  -1   5 -13    0.98    2.52
   1  -5  13   -0.07    1.45
   1  -5  13    1.79    2.15
   2  -5  13   36.83    5.09
   2  -5  13   31.93    3.99
  -4  -4  13   37.80    5.75
  -4  -4  13   27.11    4.75
   3   4 -13    0.51    2.83
  -3  -4  13    0.54    1.65
  -3  -4  13    0.31    2.50
  -3  -4  13    0.93    1.95
  -2  -4  13   32.10    4.81
  -2  -4  13   43.83    5.72
  -2  -4  13   40.00    4.71
  -1  -4  13   65.63    6.39
  -1  -4  13   56.04    5.73
  -1  -4  13   71.38    6.93
   0   4 -13   -0.08    1.43
   0  -4  13    0.27    1.61
   0  -4  13   -1.41    1.20
   1  -4  13   48.79    4.88
   1  -4  13   56.23    5.82
   2  -4  13   75.99    7.09
   2  -4  13   62.07    5.57
  -3   4 -13   -0.35    2.28
   3  -4  13    0.87    2.03
   3  -4  13    0.98    1.37
   4   3 -13    0.57    2.49
   4   3 -13    2.21    3.00
  -4  -3  13    1.70    2.19
  -4  -3  13    1.83    2.57
  -3  -3  13   42.47    4.96
  -3  -3  13   44.42    5.95
  -3  -3  13   39.90    5.65
  -2  -3  13   61.31    6.69
  -2  -3  13   71.39    6.95
  -2  -3  13   55.63    5.70
   1   3 -13    0.34    1.67
  -1  -3  13    1.90    1.76
  -1  -3  13    1.55    1.70
  -1  -3  13    3.85    2.12
   0  -3  13   65.72    6.07
   0  -3  13   54.96    5.72
   0  -3  13   60.10    5.43
   1  -3  13   79.44    6.49
   1  -3  13   86.93    7.42
  -2   3 -13    1.27    2.53
   2  -3  13    0.37    1.64
   2  -3  13   -0.05    1.25
   3  -3  13   62.75    6.44
   3  -3  13   62.22    5.24
   4  -3  13   40.41    5.27
   4  -3  13   35.76    3.75
   5   2 -13    0.25    4.97
  -5  -2  13    2.90    3.04
  -4  -2  13   18.25    4.02
  -4  -2  13   18.40    4.70
  -3  -2  13   48.99    6.40
  -3  -2  13   48.10    5.32
   2   2 -13    0.31    1.88
  -2  -2  13   -0.41    1.23
  -2  -2  13    0.05    1.45
  -2  -2  13   -0.28    1.67
  -1  -2  13   49.53    5.68
  -1  -2  13   55.80    5.51
  -1  -2  13   49.77    4.82
   0  -2  13   92.28    7.39
   0  -2  13   88.82    6.94
   0  -2  13   89.21    7.91
  -1   2 -13    0.10    1.59
   1  -2  13    2.91    1.60
   1  -2  13    3.42    1.52
   1  -2  13    3.72    2.01
   2  -2  13   71.31    5.93
   2  -2  13   63.64    5.37
   2  -2  13   65.98    6.39
   3  -2  13   73.95    6.90
   3  -2  13   68.79    5.60
  -4   2 -13    0.18    2.13
   4  -2  13    5.39    2.66
   4  -2  13    2.02    1.49
   5  -2  13   50.18    6.31
   5  -2  13   60.64    4.92
   5   1 -13    7.07    5.57
  -5  -1  13   10.85    3.94
   4   1 -13   18.87    7.23
  -4  -1  13   35.54    5.82
  -4  -1  13   35.58    5.28
   3   1 -13    0.08    1.68
  -3  -1  13    5.39    2.81
  -3  -1  13    5.22    2.26
  -2  -1  13   44.62    5.05
  -2  -1  13   51.62    6.04
  -2  -1  13   44.53    4.61
  -1  -1  13   97.51    7.73
  -1  -1  13  101.08    8.94
  -1  -1  13   98.84    7.44
   0   1 -13    0.34    1.79
   0  -1  13    0.55    1.36
   0  -1  13    1.84    1.29
   0  -1  13    2.39    1.60
   1  -1  13   88.54    7.11
   1  -1  13   88.74    7.43
   1  -1  13   84.10    6.48
   2  -1  13   98.34    7.09
   2  -1  13   94.03    7.90
   2  -1  13   99.44    7.90
  -3   1 -13    0.47    1.82
   3  -1  13   -0.03    1.62
   3  -1  13    0.38    1.15
   3  -1  13    0.96    1.04
   4  -1  13   66.04    6.83
   4  -1  13   69.45    5.52
   5  -1  13   66.32    5.31
   5  -1  13   57.75    6.78
   6  -1  13    0.00    1.99
   6  -1  13    0.94    2.57
   4   0 -13    4.21    4.54
  -4   0  13    7.57    3.03
  -3   0  13   34.28    5.47
  -3   0  13   30.73    4.10
  -2   0  13   57.67    5.30
  -2   0  13   58.94    6.69
   1   0 -13    0.32    1.88
  -1   0  13    1.70    1.63
  -1   0  13    1.56    1.58
  -1   0  13    0.89    1.39
   0   0  13   69.24    5.71
   0   0  13   71.44    6.58
   0   0  13   67.36    5.47
   1   0  13   97.95    7.42
   1   0  13  101.49    8.15
   1   0  13   91.82    6.96
  -2   0 -13    0.60    1.60
   2   0  13    0.97    1.12
   2   0  13   -0.37    1.38
   2   0  13   -0.06    1.03
   3   0  13   89.43    7.92
   3   0  13  100.42    7.07
   3   0  13  101.81    8.22
   4   0  13   45.94    4.29
   4   0  13   49.15    5.42
   4   0  13   40.05    4.55
   5   0  13    0.12    1.34
   5   0  13    1.18    1.30
   5   0  13    0.73    2.06
   5   0  13    2.20    2.00
   6   0  13   51.10    4.87
   6   0  13   51.68    6.28
   6   0  13   60.02    6.97
   7   0  13   40.61    5.99
  -3   1  13   46.74    4.95
  -3   1  13   44.88    6.32
  -2   1  13    6.70    2.60
  -2   1  13    7.00    2.08
  -1   1  13   46.83    4.47
  -1   1  13   56.22    5.86
   0   1  13  108.28    7.66
   0   1  13  109.77    9.23
   0   1  13  110.18    7.66
  -1  -1 -13    0.35    1.50
   1   1  13   -0.36    1.04
   1   1  13    0.29    1.13
   1   1  13   -0.49    1.29
   2   1  13  120.78    9.69
   2   1  13  124.78    8.97
   2   1  13  112.14    8.15
   3   1  13   83.05    7.79
   3   1  13  102.52    7.03
   3   1  13   89.77    7.63
  -4  -1 -13    0.54    1.64
   4   1  13   -0.44    1.19
   4   1  13    0.32    1.26
   4   1  13    0.55    1.80
   5   1  13   67.30    7.09
   5   1  13   66.50    6.49
   5   1  13   64.18    5.56
   6   1  13   34.39    3.96
   6   1  13   38.27    5.24
   6   1  13   32.87    5.11
   7   1  13    2.75    2.27
   7   1  13    1.69    2.37
   7   1  13    0.50    1.75
  -3   2  13    4.14    2.82
  -2   2  13   39.17    5.36
  -2   2  13   39.01    4.05
  -1   2  13   88.80    8.26
  -1   2  13   85.35    6.49
   0   2  13    7.64    1.99
   0   2  13   10.39    2.63
   1   2  13   61.21    5.37
   1   2  13   70.54    6.56
   1   2  13   70.07    5.54
   2   2  13   96.51    8.51
   2   2  13   93.49    7.06
   2   2  13  101.16    7.64
  -3  -2 -13   -0.26    1.39
   3   2  13    2.54    1.57
   3   2  13    1.85    1.40
   3   2  13    5.13    2.15
   4   2  13   47.99    4.55
   4   2  13   45.84    5.16
   4   2  13   57.74    5.44
   5   2  13   74.04    6.71
   5   2  13   70.85    5.97
  -6  -2 -13    0.37    2.54
   6   2  13    0.74    1.55
   6   2  13   -0.34    1.61
   6   2  13    0.17    1.62
   7   2  13   49.30    4.86
   7   2  13   45.97    5.67
   7   2  13   50.54    6.05
   8   2  13   27.50    3.84
   8   2  13   27.97    5.23
  -2   3  13   64.27    5.46
  -2   3  13   65.44    7.38
  -1   3  13    5.95    1.88
  -1   3  13    6.87    2.56
   0   3  13   55.14    4.86
   0   3  13   56.51    5.93
   1   3  13   84.24    7.69
   1   3  13   78.97    6.34
   2   3  13    4.73    1.95
   2   3  13    5.04    2.06
   2   3  13    5.78    1.92
   3   3  13   92.01    7.17
   3   3  13   83.03    8.03
   3   3  13   89.31    6.77
   4   3  13   56.28    5.28
   4   3  13   51.58    4.78
   4   3  13   55.18    5.86
  -5  -3 -13   -0.60    2.29
   5   3  13   -0.68    1.37
   5   3  13    0.36    1.26
   6   3  13   44.42    4.45
   6   3  13   40.51    4.80
   7   3  13   44.83    5.29
   7   3  13   43.00    4.53
  -8  -3 -13   -0.23    3.15
   8   3  13    0.95    1.76
  -1   4  13   35.52    3.83
  -1   4  13   34.21    4.81
   0   4  13   82.20    7.86
   0   4  13   83.79    6.48
   1   4  13   -0.37    1.33
   1   4  13   -0.28    1.37
   2   4  13   45.94    5.59
   2   4  13   48.83    4.63
   3   4  13   64.30    5.55
   3   4  13   54.04    6.22
   3   4  13   63.09    5.25
   4   4  13    0.74    1.38
   4   4  13    0.86    1.53
   4   4  13    0.30    1.43
   5   4  13   64.38    5.39
   5   4  13   60.08    5.64
   6   4  13   51.52    4.68
   6   4  13   45.26    4.95
  -7  -4 -13   -0.88    2.65
   7   4  13   -0.77    1.44
   7   4  13    1.74    1.93
   0   5  13    3.09    2.00
   0   5  13    1.95    1.72
   1   5  13   30.27    3.77
   1   5  13   33.27    4.68
   2   5  13   49.32    6.08
   2   5  13   55.68    5.05
   3   5  13   -1.30    1.25
   3   5  13   -0.33    1.41
   4   5  13   56.88    5.31
   4   5  13   66.10    5.47
   4   5  13   66.96    6.86
   5   5  13   48.13    4.79
   5   5  13   49.25    4.62
  -6  -5 -13    0.08    3.30
   6   5  13    1.30    1.52
   6   5  13    0.90    1.74
   1   6  13   28.48    3.89
   2   6  13    0.75    1.61
   2   6  13    0.06    1.66
   3   6  13   35.71    5.17
   3   6  13   41.12    4.23
   4   6  13   45.68    5.72
   4   6  13   46.23    4.43
  -5  -6 -13    1.55    3.48
   5   6  13    0.24    1.46
   6   6  13   40.81    4.56
   7   6  13   33.26    4.45
   2   7  13   16.50    3.23
   3   7  13   38.13    4.29
   0  -6  14   32.87    4.55
   1  -6  14   14.31    3.24
  -4  -5  14   12.08    4.11
  -3  -5  14   20.84    5.02
   2   5 -14    0.03    2.34
  -2  -5  14   -0.81    1.77
  -2  -5  14   -1.23    2.17
  -1  -5  14   28.05    4.44
  -1  -5  14   36.67    5.56
   0  -5  14   19.80    3.69
   0  -5  14   21.92    4.32
  -1   5 -14    1.92    2.83
   1  -5  14    1.40    1.81
   2  -5  14   33.15    4.20
   4   4 -14   12.08    4.45
  -4  -4  14   27.46    5.70
   3   4 -14   -0.51    2.63
  -3  -4  14    1.03    1.97
  -3  -4  14    1.08    2.09
  -3  -4  14   -0.46    2.44
  -2  -4  14   28.78    4.65
  -2  -4  14   31.16    5.25
  -2  -4  14   25.58    4.38
  -1  -4  14   48.97    5.65
  -1  -4  14   34.02    4.60
   0   4 -14    1.58    2.39
   0  -4  14    1.05    1.76
   0  -4  14    0.30    1.76
   1  -4  14   42.90    4.72
   1  -4  14   46.74    5.42
   2  -4  14   35.67    4.77
   2  -4  14   30.13    3.80
  -3   4 -14    0.65    2.67
   3  -4  14    0.66    1.49
   4   3 -14    0.64    2.65
  -4  -3  14   -0.57    2.20
  -3  -3  14   36.24    5.57
  -3  -3  14   36.44    4.90
  -2  -3  14   31.19    4.41
  -2  -3  14   41.90    5.34
  -2  -3  14   38.33    5.33
   1   3 -14    1.06    2.22
  -1  -3  14   -0.10    1.57
  -1  -3  14    0.48    1.66
  -1  -3  14   -0.89    1.46
   0  -3  14   50.10    5.41
   0  -3  14   46.01    5.20
   0  -3  14   48.60    4.89
   1  -3  14   42.17    4.83
   1  -3  14   33.51    3.93
  -2   3 -14    0.17    2.34
   2  -3  14    3.68    2.06
   2  -3  14    2.14    1.58
   3  -3  14   55.34    5.15
   3  -3  14   68.96    6.62
   4  -3  14   24.07    4.54
   4  -3  14   28.55    3.42
   4   2 -14    3.82    3.89
  -4  -2  14   20.76    4.24
  -3  -2  14   44.74    5.26
  -3  -2  14   42.18    6.19
   2   2 -14    0.55    2.41
  -2  -2  14    1.69    1.69
  -2  -2  14   -0.72    1.52
  -2  -2  14   -0.73    1.85
  -1  -2  14   59.72    5.90
  -1  -2  14   67.69    5.83
  -1  -2  14   61.92    6.59
   0  -2  14   57.90    5.98
   0  -2  14   65.38    5.87
   0  -2  14   54.50    5.22
  -1   2 -14   -0.37    1.77
   1  -2  14    1.78    1.71
   1  -2  14    0.50    1.39
   1  -2  14    0.33    1.27
   2  -2  14   67.40    5.63
   2  -2  14   69.87    6.57
   3  -2  14   58.58    6.24
   3  -2  14   59.76    5.14
  -4   2 -14   -0.46    2.40
   4  -2  14    3.69    1.66
   4  -2  14    1.82    2.38
  -5   2 -14    0.94    2.86
   4   1 -14   18.49    7.43
  -4  -1  14   35.98    5.45
   3   1 -14   -1.33    1.97
  -3  -1  14    0.55    1.85
  -3  -1  14   -0.50    1.89
  -2  -1  14   40.20    4.56
  -2  -1  14   42.14    5.65
  -2  -1  14   44.29    4.99
  -1  -1  14   42.55    4.38
  -1  -1  14   45.86    5.42
  -1  -1  14   42.78    4.67
   0   1 -14   -0.25    1.32
   0  -1  14   -0.03    1.22
   0  -1  14   -0.65    1.21
   0  -1  14   -0.74    1.24
   1  -1  14   49.30    5.14
   1  -1  14   50.69    5.10
   1  -1  14   52.58    4.70
   2  -1  14   47.10    4.75
   2  -1  14   47.65    4.42
   2  -1  14   48.44    5.24
  -3   1 -14   -0.26    1.94
   3  -1  14    4.92    1.67
   3  -1  14    4.76    1.71
   3  -1  14    7.70    2.56
   4  -1  14   60.76    5.29
   4  -1  14   67.85    6.87
   5  -1  14   42.85    4.14
   5  -1  14   34.32    5.63
   6  -1  14    5.50    3.15
  -4   0  14   -0.63    2.27
   3   0 -14   19.45    6.84
  -3   0  14   39.86    4.56
  -3   0  14   32.52    5.34
  -2   0  14   36.42    5.26
  -2   0  14   39.73    4.34
   1   0 -14    0.59    1.43
  -1   0  14    0.23    1.31
  -1   0  14   -0.56    1.35
  -1   0  14    0.24    1.36
   0   0  14   71.57    5.93
   0   0  14   72.53    5.80
   0   0  14   70.79    6.79
   1   0  14   68.39    6.15
   1   0  14   58.74    5.17
   1   0  14   63.34    5.64
  -2   0 -14    0.30    1.56
   2   0  14    2.83    1.80
   2   0  14    2.24    1.41
   2   0  14    1.88    1.42
   3   0  14   83.46    7.39
   3   0  14   87.95    7.65
   3   0  14   87.22    6.58
   4   0  14   30.11    3.53
   4   0  14   28.53    4.60
   4   0  14   26.40    3.61
  -5   0 -14    0.24    2.35
   5   0  14    5.82    1.99
   5   0  14    4.01    2.53
   6   0  14   45.41    6.40
   6   0  14   46.87    4.65
   6   0  14   51.34    6.43
  -3   1  14   43.14    4.87
  -2   1  14   -0.02    1.64
  -2   1  14    1.17    1.55
  -1   1  14   52.41    4.77
  -1   1  14   57.33    6.13
   0   1  14   46.24    4.40
   0   1  14   52.02    4.62
   0   1  14   51.52    5.51
  -1  -1 -14    1.02    1.69
   1   1  14    1.41    1.40
   1   1  14    2.08    1.58
   1   1  14    3.13    1.57
   2   1  14   65.28    5.98
   2   1  14   67.28    6.29
   2   1  14   62.22    5.32
   3   1  14   40.81    4.68
   3   1  14   44.20    5.05
   3   1  14   40.11    4.08
  -4  -1 -14    1.24    2.24
   4   1  14    6.86    1.98
   4   1  14    7.03    2.26
   4   1  14    6.07    2.39
   5   1  14   80.02    7.41
   5   1  14   67.08    5.91
   5   1  14   66.95    6.62
   6   1  14   23.05    4.62
   6   1  14   25.03    5.00
   6   1  14   19.33    3.33
   7   1  14    5.26    2.27
   7   1  14    7.14    3.03
  -2   2  14   43.91    4.45
  -2   2  14   46.75    6.01
  -1   2  14   41.29    4.09
  -1   2  14   39.80    5.19
   0   2  14    1.41    1.37
   0   2  14    1.46    1.56
   1   2  14   83.27    7.64
   1   2  14   88.87    6.55
   1   2  14   78.25    6.39
   2   2  14   58.19    6.10
   2   2  14   56.36    5.06
   2   2  14   60.95    5.59
   3   2  14   10.20    2.44
   3   2  14   11.85    2.92
   3   2  14    8.83    2.59
   4   2  14   72.31    7.01
   4   2  14   68.46    5.96
   4   2  14   74.93    6.82
   5   2  14   30.00    3.83
   5   2  14   33.77    4.35
   5   2  14   33.40    4.52
   6   2  14   12.31    2.78
   6   2  14   12.68    3.50
   6   2  14   11.70    3.28
   7   2  14   60.13    7.02
   7   2  14   56.70    5.57
  -1   3  14    2.28    1.54
  -1   3  14    1.09    1.72
   0   3  14   52.06    4.82
   0   3  14   55.87    5.97
   1   3  14   46.43    4.48
   1   3  14   49.23    5.49
   2   3  14    0.32    1.24
   2   3  14   -0.57    1.38
   3   3  14   63.28    5.53
   3   3  14   65.23    6.04
   3   3  14   65.11    6.77
   4   3  14   31.15    4.38
   4   3  14   36.72    4.01
   4   3  14   34.04    4.31
   5   3  14    1.92    1.68
   5   3  14    0.82    1.70
   6   3  14   44.20    5.23
   6   3  14   49.45    4.82
   7   3  14   22.43    3.57
   0   4  14   49.01    4.69
   0   4  14   49.80    5.75
   1   4  14   -1.01    1.20
   1   4  14   -0.38    1.40
   2   4  14   44.59    4.56
   2   4  14   49.98    5.76
   3   4  14   39.06    5.09
   3   4  14   34.98    3.97
   4   4  14    2.81    1.65
   4   4  14    2.91    1.93
   4   4  14    2.10    1.80
   5   4  14   54.79    5.43
   5   4  14   50.92    5.00
   6   4  14   23.88    3.95
   6   4  14   24.86    3.40
  -7  -4 -14    0.29    3.28
   1   5  14   58.99    5.44
   2   5  14   43.50    4.66
   2   5  14   47.29    5.76
   3   5  14    4.02    2.41
   3   5  14    3.70    1.89
   4   5  14   34.93    5.15
   4   5  14   51.65    4.70
   5   5  14   26.11    3.35
   5   5  14   20.76    3.59
   6   5  14    1.78    1.78
   2   6  14    0.00    1.72
   3   6  14   51.84    5.17
   6   6  14   57.38    5.74
   1  -5  15    3.48    2.26
   2  -5  15   29.62    4.17
  -3  -4  15    0.73    2.51
  -2  -4  15   16.51    4.09
  -2  -4  15   22.17    4.57
  -1  -4  15   15.37    3.54
  -1  -4  15   17.51    3.97
   0   4 -15   -0.17    2.42
   0  -4  15    4.62    2.41
   0  -4  15    5.43    2.26
  -2   4 -15   -0.80    2.55
   2  -4  15   12.76    2.86
   3  -4  15    8.37    2.49
  -3  -3  15   31.84    5.87
  -2  -3  15   28.73    4.48
  -2  -3  15   31.97    5.09
  -2  -3  15   29.27    5.27
   1   3 -15   -0.36    2.40
  -1  -3  15    3.75    2.21
  -1  -3  15    4.61    2.41
  -1  -3  15    2.19    2.07
   0  -3  15   58.34    5.86
   0  -3  15   46.42    5.06
   1  -3  15   21.97    3.99
   1  -3  15   25.79    3.79
  -2   3 -15   -0.40    2.21
   2  -3  15    5.56    2.53
   2  -3  15    5.91    2.07
   3  -3  15   51.92    5.92
   3  -3  15   46.97    4.74
   4  -3  15    9.81    2.46
  -3  -2  15   32.30    5.96
   2   2 -15    1.23    1.89
  -2  -2  15    0.91    1.87
  -2  -2  15    0.02    1.76
  -2  -2  15    2.68    2.24
  -1  -2  15   75.35    6.74
  -1  -2  15   64.32    7.20
  -1  -2  15   80.22    6.57
   0  -2  15   32.81    4.44
   0  -2  15   34.78    4.05
   0  -2  15   32.70    4.27
   1  -2  15    7.31    2.31
   1  -2  15    7.34    2.11
   1  -2  15    7.75    2.43
   2  -2  15   63.26    5.58
   2  -2  15   70.19    6.56
   3  -2  15   38.21    4.03
   3  -2  15   35.73    4.93
  -4   2 -15   -0.20    2.60
   4  -2  15    7.97    2.14
   4  -2  15    5.72    2.85
   3   1 -15    0.24    2.32
  -3  -1  15    2.58    2.05
  -2  -1  15   46.89    4.94
  -2  -1  15   41.99    5.87
  -1  -1  15   56.42    5.34
  -1  -1  15   59.93    5.66
  -1  -1  15   54.64    6.23
   0   1 -15   -0.32    1.99
   0  -1  15    0.05    1.46
   0  -1  15    1.28    1.38
   0  -1  15    0.50    1.44
   1  -1  15   70.43    6.65
   1  -1  15   73.73    6.40
   1  -1  15   69.92    5.83
   2  -1  15   57.33    5.37
   2  -1  15   51.40    5.38
   2  -1  15   48.06    4.62
  -3   1 -15   -1.24    2.00
   3  -1  15    4.55    2.30
   3  -1  15    7.40    2.07
   4  -1  15   62.40    6.69
   4  -1  15   60.60    5.31
  -3   0  15   38.52    4.75
  -2   0  15   30.10    4.74
  -2   0  15   29.08    3.82
   1   0 -15   -0.17    1.58
  -1   0  15    3.50    2.01
  -1   0  15    5.46    1.95
   0   0  15   54.47    5.16
   0   0  15   51.40    4.83
   0   0  15   60.80    6.08
   1   0  15   27.53    3.67
   1   0  15   24.26    3.11
   1   0  15   29.49    3.83
  -2   0 -15    0.97    2.14
   2   0  15    0.10    1.19
   2   0  15    0.18    1.15
   2   0  15    2.53    1.86
   3   0  15   42.86    4.77
   3   0  15   45.96    5.21
   3   0  15   45.29    4.33
   4   0  15   17.80    4.01
   4   0  15   18.52    3.29
   4   0  15   18.52    3.02
   5   0  15   11.58    2.59
   5   0  15    8.07    3.22
  -3   1  15   30.64    4.46
  -2   1  15    2.09    1.75
  -1   1  15   57.37    5.24
  -1   1  15   61.58    6.60
   0   1  15   35.20    3.80
   0   1  15   40.05    4.88
   1   1  15    8.18    2.23
   1   1  15    8.20    2.11
   1   1  15    9.59    2.57
   2   1  15   61.57    5.90
   2   1  15   59.98    5.28
   2   1  15   66.48    6.29
   3   1  15   29.28    3.52
   3   1  15   24.07    4.09
   3   1  15   24.44    3.67
   4   1  15   14.96    2.85
   4   1  15   13.11    3.06
   4   1  15   12.93    3.40
   5   1  15   58.80    6.20
   5   1  15   61.68    6.82
   5   1  15   62.51    5.58
  -6  -1 -15   -0.02    2.35
   6   1  15    9.64    2.62
   7   1  15   11.79    3.98
   7   1  15   12.24    2.97
  -2   2  15   35.48    4.18
  -1   2  15   28.83    4.41
  -1   2  15   28.08    3.46
   0   2  15    2.35    1.65
   0   2  15    3.33    1.99
   1   2  15   76.91    7.14
   1   2  15   67.96    5.90
   2   2  15   39.79    4.89
   2   2  15   44.99    4.79
   2   2  15   41.44    4.34
   3   2  15    8.53    2.72
   3   2  15    6.54    2.46
   3   2  15    8.73    2.28
   4   2  15   51.47    5.77
   4   2  15   54.94    5.83
   4   2  15   51.29    5.07
   5   2  15   23.48    3.69
   5   2  15   23.29    3.78
   5   2  15   22.07    4.27
   6   2  15   12.62    3.58
   6   2  15   14.82    3.33
   6   2  15   14.24    2.99
  -1   3  15    1.19    1.66
   0   3  15   41.28    5.17
   0   3  15   37.84    4.11
   1   3  15   26.70    3.90
   1   3  15   18.77    3.21
   2   3  15    0.93    1.70
   2   3  15    0.66    1.60
   3   3  15   62.53    6.81
   3   3  15   65.89    5.84
   3   3  15   68.19    6.40
   4   3  15   24.96    3.42
   4   3  15   24.54    4.17
   4   3  15   22.64    4.20
   5   3  15    8.95    2.56
   5   3  15    7.68    2.69
   5   3  15    7.33    2.78
   6   3  15   44.72    5.51
   6   3  15   40.96    4.75
  -7  -3 -15    0.63    3.59
   0   4  15   25.94    3.49
   1   4  15    3.70    1.92
   2   4  15   54.15    6.34
   2   4  15   57.98    5.43
   3   4  15   13.65    2.92
   3   4  15   14.68    3.51
   4   4  15    4.18    2.01
   4   4  15    3.26    2.20
   4   4  15    3.71    2.20
   5   4  15   30.21    3.96
   5   4  15   28.43    4.44
   5   4  15   34.13    4.48
  -6  -4 -15    0.89    3.29
   6   4  15    8.03    2.88
   1   5  15   46.23    4.84
   2   5  15   23.45    3.77
   3   5  15    5.15    2.19
   6   5  15    7.82    2.83
  -2  -3  16    9.52    3.42
  -2  -3  16    9.85    3.30
  -1  -3  16   12.40    3.29
  -1  -3  16   13.30    3.50
  -1   3 -16    0.58    2.66
   1  -3  16    5.74    2.44
   1  -3  16    7.67    2.40
  -2   3 -16   -0.43    2.82
   2  -3  16   15.08    2.95
   3  -3  16   43.28    4.59
   2   2 -16   -0.48    1.61
  -2  -2  16    1.93    2.34
  -1  -2  16   52.46    5.54
  -1  -2  16   51.27    6.20
   0  -2  16   20.13    3.87
   0  -2  16   20.20    3.39
   0  -2  16   18.57    3.55
   1  -2  16   21.94    3.45
   1  -2  16   19.36    3.61
   2  -2  16   61.53    6.21
   2  -2  16   59.41    5.43
   3  -2  16    9.35    3.06
   3  -2  16   10.00    2.42
  -4   2 -16    0.41    3.15
   4  -2  16   11.73    2.50
   2   1 -16   -0.50    2.28
  -1  -1  16   18.08    3.85
  -1  -1  16   18.46    3.33
   0  -1  16    9.96    2.43
   0  -1  16   13.11    3.17
   0  -1  16    9.39    2.61
   1  -1  16   48.23    5.28
   1  -1  16   49.77    4.80
   1  -1  16   50.76    5.22
   2  -1  16   12.07    2.57
   2  -1  16   12.11    2.93
   2  -1  16   13.82    2.86
   3  -1  16   19.39    3.82
   3  -1  16   16.88    2.88
   4  -1  16   44.22    5.59
   4  -1  16   41.94    4.36
  -5   1 -16    0.58    3.25
   5  -1  16   10.21    2.46
  -1   0  16    8.09    2.77
  -1   0  16   10.07    2.49
   0   0  16   61.70    6.37
   0   0  16   55.55    5.22
   1   0  16   17.00    3.16
   1   0  16   17.91    3.34
   1   0  16   16.33    2.82
   2   0  16   15.13    2.74
   2   0  16   14.94    3.25
   2   0  16   15.30    3.06
   3   0  16   80.76    7.26
   3   0  16   79.08    7.39
   3   0  16   82.06    6.52
   4   0  16   15.48    3.02
   4   0  16   16.06    3.77
   5   0  16   16.78    3.07
  -1   1  16   52.89    5.02
   0   1  16   19.34    3.12
   0   1  16   25.31    3.93
   1   1  16   14.34    2.81
   1   1  16   18.98    3.63
   2   1  16   55.48    5.20
   2   1  16   57.40    5.71
   2   1  16   62.30    6.13
   3   1  16   16.09    3.59
   3   1  16   16.93    3.38
   3   1  16   13.26    2.75
   4   1  16    9.73    3.22
   4   1  16    9.56    2.71
   4   1  16   12.90    2.82
   5   1  16   48.50    5.71
   5   1  16   62.58    5.54
   5   1  16   51.40    6.48
  -1   2  16   16.80    2.98
   0   2  16    8.06    2.14
   1   2  16   44.84    4.69
   1   2  16   54.12    5.78
   2   2  16   24.79    3.36
   2   2  16   28.18    4.04
   3   2  16   16.51    3.47
   3   2  16   16.61    3.10
   3   2  16   14.85    3.42
   4   2  16   43.57    5.48
   4   2  16   53.02    5.05
   4   2  16   50.78    5.88
   5   2  16    9.09    2.79
   5   2  16    7.51    3.15
   5   2  16    9.72    2.68
   6   2  16   21.15    4.13
   0   3  16   46.15    4.63
   1   3  16   13.45    2.75
   2   3  16    8.00    2.68
   2   3  16    7.20    2.38
   3   3  16   49.32    5.93
   3   3  16   55.44    5.32
   4   3  16   10.01    2.63
   4   3  16    6.84    2.56
   4   3  16    7.14    2.88
   5   3  16   17.65    3.87
   5   3  16   19.87    4.05
   6   3  16   33.46    4.88
   5   4  16   39.20    5.20
  -1  -2  17   31.14    4.87
  -1  -2  17   32.09    4.75
   0   2 -17    0.14    2.61
   0  -2  17    2.02    1.93
   0  -2  17    0.80    1.72
   1  -2  17   22.04    3.89
  -2   2 -17    1.04    2.87
   0  -1  17   10.86    2.97
   0  -1  17   14.06    3.07
   1  -1  17   43.05    4.92
   1  -1  17   43.75    5.13
  -2   1 -17    0.64    2.65
   2  -1  17    3.74    2.22
   3  -1  17   29.94    4.84
  -4   1 -17    2.15    3.22
   0   0  17   46.81    5.59
   1   0  17    4.59    2.24
   1   0  17    4.98    2.22
   2   0  17   16.82    3.25
   2   0  17   17.59    3.52
   3   0  17   34.77    4.89
   3   0  17   38.70    4.54
  -4   0 -17    0.52    2.74
  -5   0 -17    0.82    2.94
   1   1  17   19.79    3.71
   2   1  17   43.98    4.99
   2   1  17   44.20    5.14
   3   1  17    2.99    2.38
   3   1  17    4.21    2.09
   4   1  17   16.90    3.94
   4   1  17   22.59    4.03
   2   2  17    8.48    2.64
   3   2  17   24.95    3.97
   3   2  17   27.44    4.47
   4   2  17   26.01    4.20
   4   2  17   27.21    4.77
   5   2  17    1.63    2.05
   1  -1  18   27.68    4.29
   1  -1  18   26.51    4.14
  -2   1 -18    0.28    3.07
  -3   1 -18   -0.23    2.92
   2   0  18   21.39    3.92
   2   0  18   22.40    3.67
   3   1  18   -0.43    1.93
   3   1  18    0.04    1.53
   4   1  18   16.81    3.55
   0   0   0    0.00    0.00
;
_shelx_hkl_checksum              6137
_shelx_res_file
;
TITL scan_0m in P-1
CELL 0.71073   7.3724   7.6349  13.4069  88.839  78.330  66.035
ZERR    2.00   0.0008   0.0008   0.0015   0.003   0.003   0.003
LATT  1
SFAC C H N O PB
UNIT 22  26  6  8  2
SHEL 999 0.78
L.S. 10
ACTA
BOND $H
FMAP 2
PLAN 20
SIZE 0.050 0.200 0.300
BIND N1   Pb1
DFIX 0.88 N1 H1A N1 H1B N2 H2A N2 H2B
DANG 1.40 H1A H1B H2A H2B
RIGU C8 C9 O1 O2
RIGU C10 C11 O3 O4
RIGU C1 C2 C3 C4 C5 C6 N1 N2
MPLA 6 C1 C2 C3 C4 C5 C6 N1 N2 C7 N3 H1A H1B H2A H2B
CONF
HTAB
EQIV $1 -x+1,-y+1,-z+1
EQIV $2 -x+2,-y+1,-z+1
EQIV $3 -x+1,-y+2,-z+2
HTAB N1 O4_$1
HTAB N1 O3_$2
HTAB N2 O3_$2
HTAB N2 N3_$3
TEMP -73.000
OMIT 0 0 1  'reflection behind beamstop'
OMIT 1 -7 1 'near edge of detector frame'
OMIT 1 -8 4 'near edge of detector frame'
OMIT -1 6 0 'near edge of detector frame'
OMIT 0 -5 6 'near edge of detector frame'
WGHT    0.096500
EXTI    0.002888
FVAR       0.16091
PB1   5    0.673796    0.664775    0.530225    11.00000    0.01632    0.02033 =
         0.02138   -0.00232   -0.00553   -0.00385
N1    3    0.722683    0.400705    0.691995    11.00000    0.02812    0.01510 =
         0.02988   -0.00443   -0.00187   -0.00102
H1A   2    0.670187    0.319826    0.681709    11.00000   -1.50000
H1B   2    0.844741    0.333330    0.702083    11.00000   -1.50000
N2    3    0.892056    0.591884    0.800480    11.00000    0.04040    0.07286 =
         0.05747   -0.03414    0.00534   -0.02362
H2A   2    0.972551    0.537899    0.741722    11.00000   -1.50000
H2B   2    0.941088    0.666887    0.823105    11.00000   -1.50000
C1    1    0.611358    0.508062    0.784583    11.00000    0.02962    0.02090 =
         0.02177    0.00087   -0.00364   -0.00307
C2    1    0.693601    0.609438    0.837424    11.00000    0.03159    0.02012 =
         0.02678    0.00410   -0.01248   -0.00231
C3    1    0.572872    0.718755    0.925187    11.00000    0.03557    0.03273 =
         0.03287   -0.00437   -0.00873   -0.00555
AFIX  43
H3    2    0.628402    0.780231    0.963489    11.00000   -1.20000
AFIX   0
C4    1    0.373902    0.743007    0.960077    11.00000    0.03370    0.02913 =
         0.02820    0.00134   -0.00556   -0.00058
C5    1    0.291082    0.647503    0.908273    11.00000    0.03261    0.04092 =
         0.02885   -0.00305   -0.00081   -0.00608
AFIX  43
H5    2    0.156025    0.659579    0.932877    11.00000   -1.20000
AFIX   0
C6    1    0.407766    0.536749    0.821807    11.00000    0.03278    0.02312 =
         0.03161   -0.00328   -0.00079   -0.00668
AFIX  43
H6    2    0.349558    0.475980    0.784818    11.00000   -1.20000
AFIX   0
C7    1    0.250507    0.870402    1.049516    11.00000    0.04374    0.05144 =
         0.02865   -0.01059   -0.00174   -0.01345
N3    3    0.156986    0.974334    1.119719    11.00000    0.06187    0.05047 =
         0.04728   -0.01614   -0.00197   -0.01403
O1    4    0.674487    0.393291    0.428067    11.00000    0.01696    0.01330 =
         0.04205    0.00194   -0.01271    0.00045
O2    4    0.963165    0.353121    0.465781    11.00000    0.01741    0.03351 =
         0.03596   -0.01099   -0.00575   -0.00574
C8    1    0.858044    0.289002    0.425754    11.00000    0.02096    0.02019 =
         0.02233    0.00464   -0.00710   -0.00614
C9    1    0.954586    0.087621    0.376809    11.00000    0.02689    0.02814 =
         0.06283   -0.01913   -0.01402   -0.00212
AFIX 137
H9A   2    1.100925    0.049583    0.352899    11.00000   -1.50000
H9B   2    0.894201    0.082591    0.318769    11.00000   -1.50000
H9C   2    0.931508   -0.000468    0.426882    11.00000   -1.50000
AFIX   0
O3    4    0.805061    0.725738    0.357842    11.00000    0.02292    0.02800 =
         0.03075    0.00239   -0.00670   -0.00766
O4    4    0.471973    0.872675    0.394322    11.00000    0.02282    0.04788 =
         0.04315    0.01127   -0.01231   -0.00104
C10   1    0.636908    0.834996    0.334550    11.00000    0.02925    0.03599 =
         0.03319   -0.00380   -0.01207   -0.01407
C11   1    0.641682    0.915823    0.231586    11.00000    0.06030    0.04205 =
         0.04311    0.01137   -0.02168   -0.02100
AFIX 137
H11A  2    0.657726    1.036656    0.235278    11.00000   -1.50000
H11B  2    0.514394    0.939822    0.210441    11.00000   -1.50000
H11C  2    0.756042    0.823786    0.181785    11.00000   -1.50000
AFIX   0
HKLF 4 1 1 0 0 0 1 0 0 0 1
REM  scan_0m in P-1
REM R1 =  0.0413 for    2498 Fo > 4sig(Fo)  and  0.0477 for all    2819 data
REM    187 parameters refined using     96 restraints
END
WGHT      0.0965      0.0000
REM Instructions for potential hydrogen bonds
HTAB N1 O4_$1
HTAB N1 O3_$2
HTAB N2 O3_$2
HTAB N2 N3_$3
REM Highest difference peak  3.410,  deepest hole -2.684,  1-sigma level  0.385
Q1    1   0.7921  0.6782  0.5320  11.00000  0.05    3.41
Q2    1   0.5564  0.6450  0.5262  11.00000  0.05    3.04
Q3    1   0.6009  0.6200  0.4448  11.00000  0.05    2.55
Q4    1   0.7459  0.7031  0.6171  11.00000  0.05    2.52
Q5    1   0.6872  0.7581  0.5693  11.00000  0.05    2.33
Q6    1   0.6659  0.5691  0.4945  11.00000  0.05    2.22
Q7    1   0.6253  0.6023  0.3605  11.00000  0.05    1.98
Q8    1   0.7093  0.7064  0.4639  11.00000  0.05    1.84
Q9    1   0.5066  0.6121  0.4182  11.00000  0.05    1.79
Q10   1   0.6312  0.6201  0.5990  11.00000  0.05    1.64
Q11   1   1.1687  0.3055  0.3572  11.00000  0.05    1.58
Q12   1   0.7789  0.5117  0.4992  11.00000  0.05    1.58
Q13   1   0.5542  0.8164  0.5630  11.00000  0.05    1.58
Q14   1   0.5884  0.5979  0.6014  11.00000  0.05    1.51
Q15   1   0.7083  0.5362  0.4082  11.00000  0.05    1.50
Q16   1   0.6455  0.7899  0.6544  11.00000  0.05    1.43
Q17   1   0.9836  0.4113  0.4840  11.00000  0.05    1.29
Q18   1   0.9200  0.6511  0.6830  11.00000  0.05    1.28
Q19   1   1.0404  0.3732  0.4189  11.00000  0.05    1.24
Q20   1   1.0734  0.3579  0.5244  11.00000  0.05    1.23
;
_shelx_res_checksum              59582
#END Tags that were not found in dictionaries
loop_
_space_group_symop_operation_xyz
'x, y, z'
'-x, -y, -z'
loop_
_atom_site_type_symbol
_atom_site_label
_atom_site_fract_x
_atom_site_fract_y
_atom_site_fract_z
_atom_site_U_iso_or_equiv
_atom_site_adp_type
_atom_site_calc_flag
_atom_site_occupancy
Pb Pb1 0.67380(5) 0.66477(5) 0.53022(2) 0.0203(2) Uani d 1
N N1 0.7227(14) 0.4007(13) 0.6920(7) 0.0275(19) Uani d 1
H H1A 0.670(16) 0.320(12) 0.682(11) 0.041 Uiso d 1
H H1B 0.845(8) 0.333(14) 0.702(10) 0.041 Uiso d 1
N N2 0.8921(17) 0.592(2) 0.8005(10) 0.059(4) Uani d 1
H H2A 0.97(2) 0.54(2) 0.742(7) 0.088 Uiso d 1
H H2B 0.94(2) 0.67(2) 0.823(12) 0.088 Uiso d 1
C C1 0.6114(17) 0.5081(16) 0.7846(8) 0.027(2) Uani d 1
C C2 0.6936(17) 0.6094(15) 0.8374(8) 0.028(2) Uani d 1
C C3 0.5729(17) 0.7188(17) 0.9252(9) 0.036(3) Uani d 1
H H3 0.6284 0.7802 0.9635 0.043 Uiso calc 1
C C4 0.3739(18) 0.7430(18) 0.9601(9) 0.035(2) Uani d 1
C C5 0.2911(18) 0.6475(18) 0.9083(9) 0.038(3) Uani d 1
H H5 0.156 0.6596 0.9329 0.046 Uiso calc 1
C C6 0.4078(17) 0.5367(16) 0.8218(9) 0.032(2) Uani d 1
H H6 0.3496 0.476 0.7848 0.038 Uiso calc 1
C C7 0.251(2) 0.870(2) 1.0495(9) 0.044(3) Uani d 1
N N3 0.1570(19) 0.9743(18) 1.1197(10) 0.057(3) Uani d 1
O O1 0.6745(10) 0.3933(10) 0.4281(6) 0.0253(15) Uani d 1
O O2 0.9632(11) 0.3531(12) 0.4658(6) 0.0303(17) Uani d 1
C C8 0.8580(15) 0.2890(15) 0.4258(8) 0.0216(19) Uani d 1
C C9 0.9546(18) 0.0876(19) 0.3768(11) 0.041(3) Uani d 1
H H9A 1.1009 0.0496 0.3529 0.062 Uiso calc 1
H H9B 0.8942 0.0826 0.3188 0.062 Uiso calc 1
H H9C 0.9315 -0.0005 0.4269 0.062 Uiso calc 1
O O3 0.8051(11) 0.7257(11) 0.3578(6) 0.0280(16) Uani d 1
O O4 0.4720(12) 0.8727(14) 0.3943(7) 0.042(2) Uani d 1
C C10 0.6369(18) 0.8350(18) 0.3345(9) 0.032(2) Uani d 1
C C11 0.642(2) 0.916(2) 0.2316(10) 0.047(3) Uani d 1
H H11A 0.6577 1.0367 0.2353 0.07 Uiso calc 1
H H11B 0.5144 0.9398 0.2104 0.07 Uiso calc 1
H H11C 0.756 0.8238 0.1818 0.07 Uiso calc 1
loop_
_atom_site_aniso_label
_atom_site_aniso_U_11
_atom_site_aniso_U_22
_atom_site_aniso_U_33
_atom_site_aniso_U_12
_atom_site_aniso_U_13
_atom_site_aniso_U_23
Pb1 0.0163(3) 0.0203(3) 0.0214(3) -0.00385(19) -0.00553(16) -0.00232(16)
N1 0.028(4) 0.015(4) 0.030(4) -0.001(4) -0.002(3) -0.004(3)
N2 0.040(5) 0.073(9) 0.057(7) -0.024(5) 0.005(5) -0.034(6)
C1 0.030(4) 0.021(5) 0.022(4) -0.003(4) -0.004(3) 0.001(3)
C2 0.032(4) 0.020(5) 0.027(4) -0.002(4) -0.012(3) 0.004(3)
C3 0.036(5) 0.033(6) 0.033(5) -0.006(4) -0.009(4) -0.004(4)
C4 0.034(5) 0.029(6) 0.028(5) -0.001(4) -0.006(4) 0.001(4)
C5 0.033(5) 0.041(6) 0.029(5) -0.006(5) -0.001(4) -0.003(4)
C6 0.033(4) 0.023(5) 0.032(5) -0.007(4) -0.001(3) -0.003(4)
C7 0.044(7) 0.051(9) 0.029(6) -0.013(7) -0.002(5) -0.011(6)
N3 0.062(8) 0.050(8) 0.047(7) -0.014(7) -0.002(6) -0.016(6)
O1 0.017(3) 0.013(3) 0.042(4) 0.000(3) -0.013(3) 0.002(3)
O2 0.017(3) 0.034(5) 0.036(4) -0.006(3) -0.006(3) -0.011(3)
C8 0.021(4) 0.020(4) 0.022(4) -0.006(3) -0.007(3) 0.005(3)
C9 0.027(5) 0.028(5) 0.063(8) -0.002(4) -0.014(5) -0.019(5)
O3 0.023(3) 0.028(4) 0.031(4) -0.008(3) -0.007(3) 0.002(3)
O4 0.023(3) 0.048(6) 0.043(4) -0.001(4) -0.012(3) 0.011(4)
C10 0.029(4) 0.036(6) 0.033(5) -0.014(4) -0.012(3) -0.004(4)
C11 0.060(8) 0.042(8) 0.043(5) -0.021(6) -0.022(5) 0.011(5)
loop_
_atom_type_symbol
_atom_type_description
_atom_type_scat_dispersion_real
_atom_type_scat_dispersion_imag
_atom_type_scat_source
C C 0.0033 0.0016 'International Tables Vol C Tables 4.2.6.8 and 6.1.1.4'
H H 0.0000 0.0000 'International Tables Vol C Tables 4.2.6.8 and 6.1.1.4'
N N 0.0061 0.0033 'International Tables Vol C Tables 4.2.6.8 and 6.1.1.4'
O O 0.0106 0.0060 'International Tables Vol C Tables 4.2.6.8 and 6.1.1.4'
Pb Pb -3.3944 10.1111 'International Tables Vol C Tables 4.2.6.8 and 6.1.1.4'
loop_
_geom_angle_atom_site_label_1
_geom_angle_atom_site_label_2
_geom_angle_atom_site_label_3
_geom_angle_site_symmetry_1
_geom_angle_site_symmetry_3
_geom_angle
O3 Pb1 O2 . . 77.0(3)
O3 Pb1 O1 . . 78.6(3)
O2 Pb1 O1 . . 52.0(2)
O3 Pb1 O2 . 2_766 75.3(2)
O2 Pb1 O2 . 2_766 64.3(3)
O1 Pb1 O2 . 2_766 114.8(2)
O3 Pb1 O4 . . 50.8(2)
O2 Pb1 O4 . . 117.2(3)
O1 Pb1 O4 . . 82.3(3)
O2 Pb1 O4 2_766 . 119.7(3)
O3 Pb1 O1 . 2_666 119.9(2)
O2 Pb1 O1 . 2_666 108.4(2)
O1 Pb1 O1 . 2_666 63.9(3)
O2 Pb1 O1 2_766 2_666 162.4(3)
O4 Pb1 O1 . 2_666 77.9(3)
O3 Pb1 N1 . . 147.4(2)
O2 Pb1 N1 . . 70.6(3)
O1 Pb1 N1 . . 83.9(3)
O2 Pb1 N1 2_766 . 87.6(3)
O4 Pb1 N1 . . 152.5(3)
O1 Pb1 N1 2_666 . 74.7(2)
C1 N1 Pb1 . . 107.9(6)
C1 N1 H1A . . 108.(9)
Pb1 N1 H1A . . 109.(9)
C1 N1 H1B . . 106.(9)
Pb1 N1 H1B . . 119.(9)
H1A N1 H1B . . 107.(5)
C2 N2 H2A . . 128.(10)
C2 N2 H2B . . 123.(10)
H2A N2 H2B . . 106.(5)
N1 C1 C6 . . 120.8(10)
N1 C1 C2 . . 120.7(10)
C6 C1 C2 . . 118.1(10)
C3 C2 N2 . . 122.3(11)
C3 C2 C1 . . 117.7(10)
N2 C2 C1 . . 120.0(10)
C2 C3 C4 . . 122.7(11)
C2 C3 H3 . . 118.7
C4 C3 H3 . . 118.7
C3 C4 C5 . . 120.0(11)
C3 C4 C7 . . 119.9(12)
C5 C4 C7 . . 120.0(11)
C6 C5 C4 . . 118.5(11)
C6 C5 H5 . . 120.7
C4 C5 H5 . . 120.7
C5 C6 C1 . . 122.9(11)
C5 C6 H6 . . 118.6
C1 C6 H6 . . 118.6
N3 C7 C4 . . 177.7(16)
C8 O1 Pb1 . . 93.8(6)
C8 O1 Pb1 . 2_666 134.3(6)
Pb1 O1 Pb1 . 2_666 116.1(3)
C8 O2 Pb1 . . 94.3(6)
C8 O2 Pb1 . 2_766 147.4(7)
Pb1 O2 Pb1 . 2_766 115.7(3)
O1 C8 O2 . . 119.8(9)
O1 C8 C9 . . 120.6(9)
O2 C8 C9 . . 119.6(9)
C8 C9 H9A . . 109.5
C8 C9 H9B . . 109.5
H9A C9 H9B . . 109.5
C8 C9 H9C . . 109.5
H9A C9 H9C . . 109.5
H9B C9 H9C . . 109.5
C10 O3 Pb1 . . 98.9(7)
C10 O4 Pb1 . . 88.8(7)
O4 C10 O3 . . 121.5(11)
O4 C10 C11 . . 119.8(11)
O3 C10 C11 . . 118.6(11)
C10 C11 H11A . . 109.5
C10 C11 H11B . . 109.5
H11A C11 H11B . . 109.5
C10 C11 H11C . . 109.5
H11A C11 H11C . . 109.5
H11B C11 H11C . . 109.5
loop_
_geom_bond_atom_site_label_1
_geom_bond_atom_site_label_2
_geom_bond_site_symmetry_2
_geom_bond_distance
_geom_bond_publ_flag
Pb1 O3 . 2.431(7) y
Pb1 O2 . 2.485(8) y
Pb1 O1 . 2.505(7) y
Pb1 O2 2_766 2.635(7) y
Pb1 O4 . 2.667(8) y
Pb1 O1 2_666 2.727(7) y
Pb1 N1 . 2.906(10) y
N1 C1 . 1.403(13) ?
N1 H1A . 0.88(2) ?
N1 H1B . 0.87(2) ?
N2 C2 . 1.398(15) ?
N2 H2A . 0.88(2) ?
N2 H2B . 0.88(2) ?
C1 C6 . 1.409(15) ?
C1 C2 . 1.430(15) ?
C2 C3 . 1.373(15) ?
C3 C4 . 1.382(17) ?
C3 H3 . 0.95 ?
C4 C5 . 1.393(17) ?
C4 C7 . 1.449(17) ?
C5 C6 . 1.358(15) ?
C5 H5 . 0.95 ?
C6 H6 . 0.95 ?
C7 N3 . 1.146(16) ?
O1 C8 . 1.255(12) ?
O1 Pb1 2_666 2.727(7) ?
O2 C8 . 1.271(12) ?
O2 Pb1 2_766 2.635(7) ?
C8 C9 . 1.505(15) ?
C9 H9A . 0.98 ?
C9 H9B . 0.98 ?
C9 H9C . 0.98 ?
O3 C10 . 1.279(13) ?
O4 C10 . 1.239(14) ?
C10 C11 . 1.500(18) ?
C11 H11A . 0.98 ?
C11 H11B . 0.98 ?
C11 H11C . 0.98 ?
loop_
_geom_hbond_atom_site_label_D
_geom_hbond_atom_site_label_H
_geom_hbond_atom_site_label_A
_geom_hbond_site_symmetry_A
_geom_hbond_distance_DH
_geom_hbond_distance_HA
_geom_hbond_distance_DA
_geom_hbond_angle_DHA
_geom_hbond_publ_flag
N1 H1A O4 2_666 0.88(2) 2.46(4) 3.310(14) 164.(12) y
N1 H1B O3 2_766 0.87(2) 2.40(8) 3.139(12) 143.(11) y
N2 H2A O3 2_766 0.88(2) 2.25(9) 3.044(14) 150.(16) y
N2 H2B N3 2_677 0.88(2) 2.62(11) 3.355(18) 142.(14) y
loop_
_geom_torsion_atom_site_label_1
_geom_torsion_atom_site_label_2
_geom_torsion_atom_site_label_3
_geom_torsion_atom_site_label_4
_geom_torsion_site_symmetry_1
_geom_torsion
Pb1 N1 C1 C6 . 91.4(11)
Pb1 N1 C1 C2 . -81.2(10)
N1 C1 C2 C3 . 177.1(10)
C6 C1 C2 C3 . 4.2(16)
N1 C1 C2 N2 . -4.3(17)
C6 C1 C2 N2 . -177.1(12)
N2 C2 C3 C4 . 177.4(13)
C1 C2 C3 C4 . -4.0(18)
C2 C3 C4 C5 . 3.0(19)
C2 C3 C4 C7 . -175.9(12)
C3 C4 C5 C6 . -2.2(19)
C7 C4 C5 C6 . 176.7(12)
C4 C5 C6 C1 . 2.7(19)
N1 C1 C6 C5 . -176.6(11)
C2 C1 C6 C5 . -3.7(18)
Pb1 O1 C8 O2 . -3.0(10)
Pb1 O1 C8 O2 2_666 -135.8(8)
Pb1 O1 C8 C9 . 176.5(10)
Pb1 O1 C8 C9 2_666 43.6(15)
Pb1 O2 C8 O1 . 3.0(10)
Pb1 O2 C8 O1 2_766 -154.9(9)
Pb1 O2 C8 C9 . -176.4(10)
Pb1 O2 C8 C9 2_766 26.(2)
Pb1 O4 C10 O3 . 2.1(11)
Pb1 O4 C10 C11 . -178.9(11)
Pb1 O3 C10 O4 . -2.3(13)
Pb1 O3 C10 C11 . 178.7(10)
