#------------------------------------------------------------------------------
#$Date: 2016-02-21 11:56:54 +0200 (Sun, 21 Feb 2016) $
#$Revision: 176809 $
#$URL: svn://www.crystallography.net/cod/cif/2/24/02/2240201.cif $
#------------------------------------------------------------------------------
#
# This file is available in the Crystallography Open Database (COD),
# http://www.crystallography.net/. The original data for this entry
# were provided by IUCr Journals, http://journals.iucr.org/.
#
# The file may be used within the scientific community so long as
# proper attribution is given to the journal article from which the
# data were obtained.
#
data_2240201
loop_
_publ_author_name
'Hennings, Erik'
'Schmidt, Horst'
'Voigt, Wolfgang'
_publ_section_title
;
 Crystal structures of Ca(ClO~4~)~2~&#x00B7;4H~2~O and
 Ca(ClO~4~)~2~&#x00B7;6H~2~O
;
_journal_coeditor_code           WM5079
_journal_issue                   12
_journal_name_full               'Acta Crystallographica Section E'
_journal_page_first              489
_journal_page_last               493
_journal_paper_doi               10.1107/S1600536814024532
_journal_volume                  70
_journal_year                    2014
_chemical_formula_iupac          'Ca (Cl O4)2, 4H2 O'
_chemical_formula_moiety         'Ca 2+, 2(Cl O4 -), 4(H2 O)'
_chemical_formula_sum            'Ca Cl2 H8 O12'
_chemical_formula_weight         311.04
_chemical_name_common            'calcium perchlorate tetrahydrate'
_chemical_name_systematic
;
Calcium perchlorate tetrahydrate
;
_space_group_crystal_system      triclinic
_space_group_IT_number           2
_space_group_name_Hall           '-P 1'
_space_group_name_H-M_alt        'P -1'
_symmetry_space_group_name_Hall  '-P 1'
_symmetry_space_group_name_H-M   'P -1'
_atom_sites_solution_hydrogens   difmap
_audit_creation_method           SHELXL-2012
_cell_angle_alpha                99.663(16)
_cell_angle_beta                 90.366(16)
_cell_angle_gamma                90.244(16)
_cell_formula_units_Z            2
_cell_length_a                   5.4886(11)
_cell_length_b                   7.8518(15)
_cell_length_c                   11.574(2)
_cell_measurement_reflns_used    26892
_cell_measurement_temperature    200
_cell_measurement_theta_max      29.64
_cell_measurement_theta_min      1.77
_cell_volume                     491.69(16)
_computing_cell_refinement
;
X-AREA(Stoe & Cie, 2009)
;
_computing_data_collection
;
X-AREA (Stoe & Cie, 2009)
;
_computing_data_reduction
;
X-RED (Stoe & Cie, 2009)
;
_computing_molecular_graphics
;
DIAMOND (Brandenburg, 2006)
;
_computing_publication_material
;
publCIF (Westrip, 2010)
;
_computing_structure_refinement
;
SHELXL-2012 (Sheldrick, 2008)
;
_computing_structure_solution
;
SHELXS-97 (Sheldrick, 2008)
;
_diffrn_ambient_temperature      200
_diffrn_detector_area_resol_mean 6.67
_diffrn_measured_fraction_theta_full 0.993
_diffrn_measured_fraction_theta_max 0.991
_diffrn_measurement_device_type  'Stoe IPDS-2'
_diffrn_measurement_method       'rotation method'
_diffrn_radiation_monochromator  graphite
_diffrn_radiation_source         'fine-focus sealed tube'
_diffrn_radiation_type           MoK\a
_diffrn_radiation_wavelength     0.71073
_diffrn_reflns_av_R_equivalents  0.0742
_diffrn_reflns_limit_h_max       7
_diffrn_reflns_limit_h_min       -6
_diffrn_reflns_limit_k_max       10
_diffrn_reflns_limit_k_min       -10
_diffrn_reflns_limit_l_max       15
_diffrn_reflns_limit_l_min       -15
_diffrn_reflns_number            2659
_diffrn_reflns_theta_full        25.242
_diffrn_reflns_theta_max         29.184
_diffrn_reflns_theta_min         1.785
_exptl_absorpt_coefficient_mu    1.237
_exptl_absorpt_correction_T_max  0.7886
_exptl_absorpt_correction_T_min  0.6444
_exptl_absorpt_correction_type   integration
_exptl_absorpt_process_details
;
Coppens (1970)
;
_exptl_crystal_colour            colourless
_exptl_crystal_density_diffrn    2.101
_exptl_crystal_density_method    'not measured'
_exptl_crystal_description       plate
_exptl_crystal_F_000             316
_exptl_crystal_size_max          0.04
_exptl_crystal_size_mid          0.033
_exptl_crystal_size_min          0.02
_refine_diff_density_max         0.359
_refine_diff_density_min         -0.749
_refine_ls_extinction_method     none
_refine_ls_goodness_of_fit_ref   1.199
_refine_ls_hydrogen_treatment    refall
_refine_ls_matrix_type           full
_refine_ls_number_parameters     168
_refine_ls_number_reflns         2636
_refine_ls_number_restraints     12
_refine_ls_restrained_S_all      1.197
_refine_ls_R_factor_all          0.0323
_refine_ls_R_factor_gt           0.0312
_refine_ls_shift/su_max          0.001
_refine_ls_shift/su_mean         0.000
_refine_ls_structure_factor_coef Fsqd
_refine_ls_weighting_details
;
 w=1/[\s^2^(Fo^2^)+(0.0427P)^2^+0.6952P]
 where P=(Fo^2^+2Fc^2^)/3
;
_refine_ls_weighting_scheme      calc
_refine_ls_wR_factor_gt          0.0881
_refine_ls_wR_factor_ref         0.0889
_reflns_number_gt                2529
_reflns_number_total             2636
_reflns_threshold_expression     I>2\s(I)
_cod_data_source_file            wm5079sup1.cif
_cod_data_source_block           CaClO4_4H2O_200K
_cod_original_cell_volume        491.71(17)
_cod_database_code               2240201
_cod_database_fobs_code          2240201
#BEGIN Tags that were not found in dictionaries:
_shelx_space_group_comment
;
The symmetry employed for this shelxl refinement is uniquely defined
by the following loop, which should always be used as a source of
symmetry information in preference to the above space-group names.
They are only intended as comments.
;
_shelx_hkl_file
;
   1   0   0 3792.20   11.84   0
   2   0   0 7219.08   12.41   0
   3   0   0   64.22    1.94   0
   4   0   0 6353.30    8.49   0
   5   0   0  419.72    2.91   0
   6   0   0    9.18    1.91   0
   7   0   0   65.30    1.74   0
  -7   1   0   55.66    1.69   0
  -6   1   0   69.39    2.08   0
  -5   1   0   24.81    1.86   0
  -4   1   0  305.43    2.66   0
  -3   1   0   23.07    1.89   0
  -2   1   0    3.41    1.51   0
  -1   1   0 4358.20   14.02   0
   0   1   0  112.04    2.93   0
   2   1   0 1087.52    5.17   0
   3   1   0 1268.44    5.01   0
   4   1   0 1748.89    5.14   0
   5   1   0  314.43    2.58   0
   6   1   0 1098.40    4.13   0
   7   1   0    9.95    1.54   0
  -7   2   0  562.89    2.90   0
  -6   2   0  293.27    2.89   0
  -5   2   0  119.82    2.11   0
  -4   2   0  183.84    2.44   0
  -3   2   0 1944.65    5.82   0
  -2   2   0 5144.14   11.24   0
  -1   2   0 2022.54    9.50   0
   1   2   0 2321.11    8.43   0
   2   2   0 3504.47    8.45   0
   3   2   0    1.18    1.36   0
   4   2   0  851.90    3.76   0
   5   2   0 2018.88    5.15   0
   6   2   0  292.43    2.39   0
   7   2   0  348.54    2.75   0
  -7   3   0  264.96    2.32   0
  -6   3   0    9.38    1.63   0
  -5   3   0   62.64    1.90   0
  -4   3   0  380.23    2.90   0
  -3   3   0  632.58    3.64   0
  -2   3   0   79.02    3.03   0
  -1   3   0  736.19    5.76   0
   0   3   0  210.85    2.70   0
   1   3   0 3279.83    8.37   0
   2   3   0   91.76    2.55   0
   3   3   0 1130.92    4.18   0
   4   3   0  697.95    3.31   0
   5   3   0  588.84    3.07   0
   6   3   0  463.04    2.71   0
   7   3   0   87.87    1.93   0
  -6   4   0  757.80    3.76   0
  -5   4   0  128.49    2.25   0
  -4   4   0  152.21    2.26   0
  -3   4   0 1456.62    5.60   0
  -2   4   0 5831.98   10.98   0
  -1   4   0  892.09    4.07   0
   0   4   0 4502.24    8.22   0
   1   4   0 1543.86    5.60   0
   2   4   0  674.53    3.41   0
   3   4   0    1.02    1.61   0
   4   4   0 1360.96    4.38   0
   5   4   0 1614.37    4.57   0
   6   4   0   70.55    1.83   0
  -6   5   0   92.53    2.00   0
  -5   5   0   39.79    1.86   0
  -4   5   0 2515.98    6.57   0
  -3   5   0 2077.95    6.32   0
  -2   5   0  377.70    3.40   0
  -1   5   0  761.59    3.38   0
   0   5   0    1.04    1.34   0
   1   5   0   62.39    1.91   0
   2   5   0  525.12    3.17   0
   3   5   0    1.10    1.46   0
   4   5   0  128.28    1.90   0
   5   5   0    4.38    1.49   0
   6   5   0  189.05    2.16   0
  -6   6   0  242.84    2.68   0
  -5   6   0   52.11    2.00   0
  -4   6   0   66.92    2.07   0
  -3   6   0  489.30    3.67   0
  -2   6   0 5755.60    8.15   0
  -1   6   0 1292.11    4.06   0
   0   6   0  222.01    2.20   0
   1   6   0  253.78    2.75   0
   2   6   0 4873.76    8.33   0
   3   6   0 2346.19    5.59   0
   4   6   0   19.63    1.52   0
   5   6   0   13.45    1.59   0
   6   6   0  238.93    2.39   0
  -5   7   0  125.97    2.42   0
  -4   7   0   -0.13    1.81   0
  -3   7   0  362.04    2.49   0
  -2   7   0  521.77    2.81   0
  -1   7   0  479.49    2.67   0
   0   7   0  391.64    2.54   0
   1   7   0 1447.74    5.49   0
   2   7   0 2036.59    5.58   0
   3   7   0  729.18    3.37   0
   4   7   0  283.48    2.41   0
   5   7   0  307.41    2.59   0
  -4   8   0  405.71    2.79   0
  -3   8   0   91.17    1.78   0
  -2   8   0  114.59    1.86   0
  -1   8   0  248.79    2.13   0
   0   8   0  623.79    2.85   0
   1   8   0   29.40    1.60   0
   2   8   0  430.29    3.02   0
   3   8   0  731.15    3.47   0
   4   8   0  288.50    2.49   0
  -4   9   0   48.34    1.84   0
  -3   9   0    7.13    1.57   0
  -2   9   0   34.31    1.61   0
  -1   9   0   12.03    1.48   0
   0   9   0   28.85    1.49   0
   1   9   0  221.25    1.99   0
   2   9   0  556.91    2.73   0
   3   9   0   21.95    1.71   0
  -2  10   0   47.81    1.77   0
  -1  10   0   53.23    1.70   0
   0  10   0  322.45    2.37   0
   1  10   0    7.62    1.55   0
   2  10   0  450.99    2.61   0
  -2 -10   1  627.35    2.84   0
  -1 -10   1  517.49    2.74   0
   0 -10   1    1.79    1.45   0
   1 -10   1   11.34    1.68   0
   2 -10   1  186.91    1.94   0
  -4  -9   1  155.54    2.25   0
  -3  -9   1   88.74    1.89   0
  -2  -9   1  102.83    1.75   0
  -1  -9   1   10.30    1.47   0
   0  -9   1   33.48    1.55   0
   1  -9   1  135.87    1.82   0
   2  -9   1  963.62    3.55   0
   3  -9   1   67.29    1.70   0
   4  -9   1   76.97    1.93   0
  -4  -8   1  276.14    2.50   0
  -3  -8   1  351.06    2.69   0
  -2  -8   1   17.19    1.75   0
  -1  -8   1 1053.46    3.50   0
   0  -8   1  183.38    1.94   0
   1  -8   1  103.87    1.84   0
   2  -8   1  152.42    1.91   0
   3  -8   1 1679.23    4.54   0
   4  -8   1   64.90    1.80   0
   5  -8   1   46.13    2.25   0
  -5  -7   1 1070.59    4.06   0
  -4  -7   1  784.83    3.47   0
  -3  -7   1   49.87    1.83   0
  -2  -7   1   24.90    1.79   0
  -1  -7   1  341.34    3.17   0
   0  -7   1   66.82    1.71   0
   1  -7   1  100.13    1.86   0
   2  -7   1 1016.43    3.59   0
   3  -7   1  351.61    3.73   0
   4  -7   1    8.91    1.84   0
   5  -7   1   10.66    1.79   0
  -6  -6   1  684.33    3.44   0
  -5  -6   1  145.60    2.08   0
  -4  -6   1 1038.62    3.83   0
  -3  -6   1  864.01    3.64   0
  -2  -6   1  178.91    2.37   0
  -1  -6   1   65.52    2.09   0
   0  -6   1  217.43    2.52   0
   1  -6   1  460.79    2.75   0
   2  -6   1  333.51    2.62   0
   3  -6   1  856.74    4.48   0
   4  -6   1   83.47    2.33   0
   5  -6   1    3.83    1.69   0
   6  -6   1  147.57    2.33   0
  -6  -5   1  128.73    2.04   0
  -5  -5   1 1306.64    4.17   0
  -4  -5   1 1328.77    4.34   0
  -3  -5   1  743.71    3.43   0
  -2  -5   1 1497.79    4.92   0
  -1  -5   1 3005.47    7.26   0
   0  -5   1 4809.64    7.62   0
   1  -5   1   22.17    1.47   0
   2  -5   1  104.84    2.50   0
   3  -5   1  219.96    2.71   0
   4  -5   1  626.09    3.49   0
   5  -5   1  242.02    2.52   0
   6  -5   1  362.08    2.88   0
  -6  -4   1   13.05    1.72   0
  -5  -4   1   27.62    1.64   0
  -4  -4   1  220.66    2.30   0
  -3  -4   1 2997.48    6.64   0
  -2  -4   1 1758.81    5.37   0
  -1  -4   1 1498.87    5.63   0
   0  -4   1 4359.68    8.96   0
   1  -4   1 8859.03   11.69   0
   2  -4   1  306.71    3.10   0
   3  -4   1 1128.91    4.63   0
   4  -4   1   38.14    1.83   0
   5  -4   1 1288.85    4.30   0
   6  -4   1    5.54    1.59   0
  -7  -3   1  551.96    2.86   0
  -6  -3   1  313.07    2.39   0
  -5  -3   1  296.45    2.35   0
  -4  -3   1  263.93    2.42   0
  -3  -3   1  103.79    1.88   0
  -2  -3   1    1.67    1.85   0
  -1  -3   1 3286.68    8.77   0
   0  -3   1  266.02    3.77   0
   1  -3   1  307.68    3.70   0
   2  -3   1  148.48    2.56   0
   3  -3   1  195.86    2.28   0
   4  -3   1 2386.27    5.91   0
   5  -3   1 1827.57    4.94   0
   6  -3   1   28.00    1.67   0
   7  -3   1   72.69    2.15   0
  -7  -2   1    3.18    1.63   0
  -6  -2   1   47.04    1.82   0
  -5  -2   1    8.82    1.58   0
  -4  -2   1   23.66    1.91   0
  -3  -2   1 1547.59    5.37   0
  -2  -2   1 1285.21    5.55   0
  -1  -2   1  940.26    5.79   0
   0  -2   1  191.17    3.62   0
   1  -2   1 6959.73   13.42   0
   2  -2   1  826.66    4.68   0
   3  -2   1 1044.42    4.25   0
   4  -2   1  938.61    4.01   0
   5  -2   1 2082.65    5.15   0
   6  -2   1  809.08    3.56   0
   7  -2   1    3.64    1.85   0
  -7  -1   1 1259.65    3.82   0
  -6  -1   1  895.06    3.26   0
  -5  -1   1   47.57    1.72   0
  -4  -1   1   96.19    2.17   0
  -3  -1   1  281.84    2.95   0
  -2  -1   1  116.10    2.51   0
  -1  -1   1 1878.46    9.18   0
   0  -1   1 3248.82   13.97   0
   1  -1   1 2099.28    8.95   0
   2  -1   1 2011.01    6.27   0
   3  -1   1  152.62    2.01   0
   4  -1   1 8061.74   10.07   0
   5  -1   1 3480.60    6.53   0
   6  -1   1   84.66    1.83   0
   7  -1   1    2.50    1.89   0
  -7   0   1   17.96    1.51   0
  -6   0   1  763.48    3.04   0
  -5   0   1  136.95    1.92   0
  -4   0   1 3380.69    6.38   0
  -3   0   1  446.19    3.53   0
  -2   0   1   70.75    2.26   0
  -1   0   1 4207.48   12.29   0
   0   0   1   13.83    1.74   0
   1   0   1   81.49    2.33   0
   2   0   1    5.76    1.83   0
   3   0   1    4.67    1.64   0
   4   0   1  387.18    2.99   0
   5   0   1 1141.88    4.11   0
   6   0   1  979.68    3.69   0
   7   0   1   45.48    2.03   0
  -7   1   1  757.06    3.36   0
  -6   1   1  189.27    2.03   0
  -5   1   1  305.72    2.35   0
  -4   1   1   29.04    2.22   0
  -3   1   1 2671.97    7.04   0
  -2   1   1  451.19    3.77   0
  -1   1   1   94.42    3.12   0
   0   1   1 1676.67    9.08   0
   1   1   1  926.67    5.48   0
   2   1   1 4119.69    9.05   0
   3   1   1 3113.52    7.00   0
   4   1   1 1382.17    4.51   0
   5   1   1 1289.54    4.22   0
   6   1   1  102.60    1.88   0
   7   1   1   17.72    1.82   0
  -7   2   1  215.53    2.13   0
  -6   2   1  279.82    2.27   0
  -5   2   1  245.00    2.82   0
  -4   2   1  114.54    2.19   0
  -3   2   1 2565.74    6.81   0
  -2   2   1 2398.79    8.09   0
   0   2   1   62.20    2.33   0
   2   2   1  446.74    3.65   0
   3   2   1 3766.92    7.49   0
   4   2   1   63.95    1.68   0
   5   2   1    4.70    1.54   0
   6   2   1   41.31    1.69   0
   7   2   1   92.61    1.94   0
  -7   3   1    7.34    1.55   0
  -6   3   1  113.81    2.37   0
  -5   3   1  243.77    2.63   0
  -4   3   1   32.15    2.01   0
  -3   3   1   69.72    2.04   0
  -2   3   1 1773.02    6.51   0
  -1   3   1 2195.96    7.96   0
   0   3   1 3427.68    7.61   0
   1   3   1  432.54    3.31   0
   2   3   1 5928.40    9.45   0
   3   3   1 3141.32    6.41   0
   4   3   1   73.15    1.82   0
   5   3   1  345.40    2.52   0
   6   3   1  546.29    2.91   0
   7   3   1  386.76    2.72   0
  -6   4   1  503.17    3.27   0
  -5   4   1  184.27    2.30   0
  -4   4   1  408.53    3.14   0
  -3   4   1  270.36    3.12   0
  -2   4   1  301.64    3.09   0
  -1   4   1  516.26    3.98   0
   0   4   1  236.86    3.55   0
   1   4   1 1535.39    5.35   0
   2   4   1  788.76    3.53   0
   3   4   1  312.74    2.70   0
   4   4   1  997.83    3.69   0
   5   4   1  182.66    2.05   0
   6   4   1  567.06    2.90   0
  -6   5   1   23.83    1.90   0
  -5   5   1  916.36    4.26   0
  -4   5   1  240.15    2.62   0
  -3   5   1   17.55    1.76   0
  -2   5   1  132.12    2.59   0
  -1   5   1 1118.10    3.87   0
   0   5   1 1001.75    3.67   0
   1   5   1  141.27    2.07   0
   2   5   1 5195.83    8.58   0
   3   5   1 4431.22    7.38   0
   4   5   1   69.44    1.81   0
   5   5   1  159.30    2.05   0
   6   5   1  540.90    3.03   0
  -6   6   1  909.06    4.54   0
  -5   6   1  920.83    4.27   0
  -4   6   1  110.08    2.16   0
  -3   6   1  572.94    3.77   0
  -2   6   1 2339.41    5.43   0
  -1   6   1 2262.36    5.24   0
   0   6   1    6.89    1.50   0
   1   6   1   -8.26    2.11   0
   2   6   1  390.84    2.79   0
   3   6   1  160.74    2.05   0
   4   6   1  558.80    2.92   0
   5   6   1   33.65    1.62   0
   6   6   1  718.46    3.34   0
  -5   7   1  763.87    4.31   0
  -4   7   1  660.30    4.07   0
  -3   7   1  315.71    2.38   0
  -2   7   1  657.94    3.10   0
  -1   7   1 1318.98    3.91   0
   0   7   1 1323.82    3.82   0
   1   7   1  453.50    3.43   0
   2   7   1    3.75    1.75   0
   3   7   1  443.89    2.80   0
   4   7   1  572.85    3.00   0
   5   7   1  161.95    2.15   0
  -4   8   1   95.56    1.91   0
  -3   8   1    6.98    1.49   0
  -2   8   1  513.82    2.74   0
  -1   8   1  875.68    3.18   0
   0   8   1  402.02    2.41   0
   1   8   1   11.19    1.41   0
   2   8   1   59.95    1.89   0
   3   8   1   33.29    1.76   0
   4   8   1   75.69    1.83   0
  -3   9   1   73.28    1.79   0
  -2   9   1  260.77    2.23   0
  -1   9   1    6.54    1.52   0
   0   9   1 1180.54    3.58   0
   1   9   1 1299.02    3.85   0
   2   9   1  103.37    1.73   0
   3   9   1    2.02    1.59   0
  -2  10   1  532.33    2.87   0
  -1  10   1  668.15    2.95   0
   0  10   1  125.97    1.87   0
   1  10   1  147.74    1.89   0
   2  10   1   61.53    1.65   0
  -2 -10   2   12.88    1.42   0
  -1 -10   2  259.83    2.21   0
   0 -10   2  269.84    2.16   0
   1 -10   2  287.23    2.29   0
   2 -10   2   -1.52    1.45   0
  -4  -9   2  458.56    3.06   0
  -3  -9   2  146.29    2.14   0
  -2  -9   2  324.04    2.33   0
  -1  -9   2   38.14    1.57   0
   0  -9   2  884.94    3.17   0
   1  -9   2  903.20    3.18   0
   2  -9   2   49.43    1.62   0
   3  -9   2   74.81    1.72   0
   4  -9   2  448.39    2.76   0
  -5  -8   2  989.65    4.12   0
  -4  -8   2  260.76    2.36   0
  -3  -8   2   31.86    1.64   0
  -2  -8   2   10.15    1.70   0
  -1  -8   2 2092.07    4.78   0
   0  -8   2  973.40    3.38   0
   1  -8   2   10.51    1.57   0
   2  -8   2  355.30    2.33   0
   3  -8   2  354.95    2.45   0
   4  -8   2  140.02    2.77   0
   5  -8   2   40.56    2.11   0
  -5  -7   2    0.56    1.59   0
  -4  -7   2  200.33    2.20   0
  -3  -7   2   24.52    1.67   0
  -2  -7   2  120.38    2.07   0
  -1  -7   2  119.75    2.39   0
   0  -7   2  368.62    2.41   0
   1  -7   2 2561.53    5.37   0
   2  -7   2  795.11    3.27   0
   3  -7   2  203.90    3.06   0
   4  -7   2   27.68    1.90   0
   5  -7   2  548.84    3.73   0
  -6  -6   2  203.64    2.28   0
  -5  -6   2   32.95    1.68   0
  -4  -6   2   93.91    2.01   0
  -3  -6   2 1141.94    4.01   0
  -2  -6   2  481.36    3.01   0
  -1  -6   2 1246.95    4.76   0
   0  -6   2 2155.69    5.25   0
   1  -6   2  267.88    2.40   0
   2  -6   2 2561.72    8.85   0
   3  -6   2   17.30    1.97   0
   4  -6   2 1588.02    5.43   0
   5  -6   2  409.51    2.95   0
   6  -6   2  135.84    2.19   0
  -6  -5   2  540.07    2.95   0
  -5  -5   2  287.63    2.42   0
  -4  -5   2  396.04    2.70   0
  -3  -5   2 1762.81    4.99   0
  -2  -5   2  212.37    2.43   0
  -1  -5   2 1773.54    5.63   0
   0  -5   2  942.69    5.16   0
   1  -5   2  350.27    3.29   0
   2  -5   2    6.38    1.73   0
   3  -5   2  241.02    2.63   0
   4  -5   2  658.72    3.45   0
   5  -5   2 1115.60    4.22   0
   6  -5   2  430.71    2.86   0
  -6  -4   2   35.59    1.76   0
  -5  -4   2  109.43    1.95   0
  -4  -4   2  670.33    3.34   0
  -3  -4   2 2932.80    6.66   0
  -2  -4   2 1482.39    5.00   0
  -1  -4   2 1820.03    6.20   0
   0  -4   2  171.49    3.16   0
   1  -4   2   15.94    2.22   0
   2  -4   2  176.74    2.36   0
   3  -4   2 1056.12    4.35   0
   4  -4   2  553.24    3.12   0
   5  -4   2  113.32    2.07   0
   6  -4   2   78.61    1.87   0
  -7  -3   2    3.66    1.49   0
  -6  -3   2  140.69    1.84   0
  -5  -3   2   56.68    1.91   0
  -4  -3   2  305.14    2.56   0
  -3  -3   2  251.50    2.46   0
  -2  -3   2  902.40    4.42   0
  -1  -3   2   12.81    1.92   0
   0  -3   2    1.22    1.87   0
   1  -3   2  913.60    5.20   0
   2  -3   2  909.14    4.34   0
   3  -3   2  220.55    2.26   0
   4  -3   2  242.03    2.34   0
   5  -3   2  584.06    3.18   0
   6  -3   2  739.59    3.30   0
   7  -3   2   23.26    1.69   0
  -7  -2   2  360.64    2.37   0
  -6  -2   2  877.19    3.23   0
  -5  -2   2  372.00    2.73   0
  -4  -2   2  263.25    2.46   0
  -3  -2   2 6587.38    9.87   0
  -1  -2   2   41.93    2.66   0
   1  -2   2 5335.74   12.26   0
   2  -2   2 4189.97    8.79   0
   3  -2   2    0.16    1.50   0
   4  -2   2  373.06    2.50   0
   5  -2   2  522.42    2.84   0
   6  -2   2  243.65    2.32   0
   7  -2   2   27.28    1.80   0
  -7  -1   2   72.90    1.75   0
  -6  -1   2   32.47    1.62   0
  -5  -1   2   29.84    1.56   0
  -4  -1   2  308.52    2.58   0
  -3  -1   2 2125.18    5.48   0
  -2  -1   2 2979.88    8.03   0
  -1  -1   2 5634.09   12.45   0
   0  -1   2   80.83    2.74   0
   1  -1   2 6714.70   13.02   0
   2  -1   2  185.95    2.48   0
   3  -1   2 1451.91    4.52   0
   4  -1   2 2736.12    5.95   0
   5  -1   2  175.04    1.98   0
   6  -1   2   17.32    1.53   0
   7  -1   2   91.72    2.15   0
  -7   0   2   23.31    1.71   0
  -6   0   2  369.03    2.34   0
  -5   0   2 2558.58    5.23   0
  -4   0   2 1119.91    4.10   0
  -3   0   2 2853.66    6.41   0
  -2   0   2 3083.27    7.71   0
  -1   0   2  360.52    4.06   0
   0   0   2  120.18    2.71   0
   1   0   2  423.83    3.50   0
   2   0   2 1137.10    4.52   0
   3   0   2 4796.38    8.40   0
   4   0   2  313.14    2.43   0
   5   0   2 1024.13    3.66   0
   6   0   2  372.55    2.52   0
   7   0   2 1461.24    4.69   0
  -7   1   2   53.05    1.78   0
  -6   1   2  634.59    2.84   0
  -5   1   2  395.01    2.50   0
  -4   1   2  623.64    3.17   0
  -3   1   2   54.01    2.32   0
  -2   1   2    8.54    2.13   0
  -1   1   2   56.65    2.61   0
   0   1   2   20.39    2.16   0
   1   1   2 4051.18    9.68   0
   2   1   2   34.76    1.89   0
   3   1   2 2174.85    5.58   0
   4   1   2 1232.13    4.07   0
   5   1   2 1825.50    4.60   0
   6   1   2  176.34    2.10   0
   7   1   2  406.68    2.83   0
  -7   2   2   20.76    1.62   0
  -6   2   2  141.93    1.91   0
  -5   2   2 2920.21    5.79   0
  -4   2   2 1319.19    5.15   0
  -3   2   2  467.83    3.66   0
  -2   2   2 1175.27    5.70   0
  -1   2   2 2264.65    8.24   0
   0   2   2  220.40    2.66   0
   1   2   2  293.15    3.02   0
   2   2   2  462.59    3.21   0
   3   2   2 1236.84    4.11   0
   4   2   2  210.84    2.18   0
   5   2   2   64.77    1.63   0
   6   2   2 1025.34    3.65   0
   7   2   2 1122.02    4.02   0
  -7   3   2  153.05    2.21   0
  -6   3   2  916.43    3.57   0
  -5   3   2   41.65    1.90   0
  -4   3   2 1343.10    5.00   0
  -3   3   2  669.56    3.86   0
  -2   3   2  698.84    4.23   0
  -1   3   2   90.42    2.69   0
   0   3   2  170.47    3.14   0
   1   3   2 1938.50    5.99   0
   2   3   2  451.68    2.86   0
   3   3   2    5.06    1.36   0
   4   3   2  978.34    3.58   0
   5   3   2  279.70    2.29   0
   6   3   2  390.67    2.53   0
   7   3   2    4.74    1.71   0
  -6   4   2   92.24    2.34   0
  -5   4   2 1491.32    5.20   0
  -4   4   2 1845.70    5.72   0
  -3   4   2  120.30    2.39   0
  -2   4   2  250.77    2.76   0
  -1   4   2  697.76    4.33   0
   0   4   2 5117.62    8.16   0
   1   4   2  800.60    3.73   0
   2   4   2  531.80    2.87   0
   3   4   2  372.32    2.55   0
   4   4   2  365.53    2.47   0
   5   4   2    1.56    1.50   0
   6   4   2  264.97    2.32   0
  -6   5   2    9.70    1.88   0
  -5   5   2  148.40    2.33   0
  -4   5   2    5.53    1.89   0
  -3   5   2  134.53    2.32   0
  -2   5   2   46.20    2.20   0
  -1   5   2 6472.01    8.84   0
   0   5   2  494.72    3.36   0
   1   5   2 3295.14    6.90   0
   2   5   2  269.81    2.49   0
   3   5   2 3988.54    6.89   0
   4   5   2  277.01    2.28   0
   5   5   2   90.92    1.76   0
   6   5   2   81.73    1.88   0
  -6   6   2  339.22    3.13   0
  -5   6   2   32.33    1.92   0
  -4   6   2    4.13    1.72   0
  -3   6   2  304.64    2.97   0
  -2   6   2  693.65    3.19   0
  -1   6   2  620.75    2.94   0
   0   6   2  910.74    3.38   0
   1   6   2  231.62    2.50   0
   2   6   2   72.61    1.80   0
   3   6   2    9.37    1.55   0
   4   6   2  383.16    2.55   0
   5   6   2 1088.83    3.87   0
  -5   7   2    9.24    1.75   0
  -4   7   2  308.38    3.19   0
  -3   7   2  512.07    2.87   0
  -2   7   2    4.64    1.54   0
  -1   7   2  202.31    2.02   0
   0   7   2  174.18    1.87   0
   1   7   2   44.40    1.94   0
   2   7   2   11.53    1.61   0
   3   7   2  835.05    3.49   0
   4   7   2  293.50    2.40   0
   5   7   2    8.82    1.55   0
  -4   8   2   22.10    1.53   0
  -3   8   2  490.21    2.88   0
  -2   8   2  753.69    3.12   0
  -1   8   2    2.41    1.49   0
   0   8   2  172.68    1.91   0
   1   8   2  549.99    2.58   0
   2   8   2    6.46    1.69   0
   3   8   2   32.77    1.65   0
   4   8   2  665.58    3.31   0
  -3   9   2 1303.40    4.13   0
  -2   9   2   24.61    1.53   0
  -1   9   2   74.00    1.68   0
   0   9   2  264.73    2.19   0
   1   9   2  543.21    2.66   0
   2   9   2   19.27    1.40   0
   3   9   2  175.70    1.93   0
  -1  10   2    6.22    1.58   0
   0  10   2  128.59    1.86   0
   1  10   2    9.23    1.56   0
  -2 -10   3  231.01    2.13   0
  -1 -10   3   19.17    1.63   0
   0 -10   3  412.96    2.41   0
   1 -10   3  296.56    2.33   0
   2 -10   3   13.02    1.56   0
  -4  -9   3   10.29    1.69   0
  -3  -9   3  424.77    3.02   0
  -2  -9   3  553.06    3.46   0
  -1  -9   3  123.79    1.78   0
   0  -9   3   97.62    1.74   0
   1  -9   3    5.64    1.37   0
   2  -9   3  171.20    1.98   0
   3  -9   3  207.14    2.15   0
   4  -9   3  254.20    2.34   0
  -5  -8   3    1.71    1.87   0
  -4  -8   3    7.01    1.57   0
  -3  -8   3   63.21    1.77   0
  -2  -8   3  367.95    2.74   0
  -1  -8   3   22.18    1.98   0
   0  -8   3  344.05    2.35   0
   1  -8   3   97.11    1.88   0
   2  -8   3    8.14    1.54   0
   3  -8   3    0.11    1.54   0
   4  -8   3   69.68    2.38   0
   5  -8   3  577.99    3.82   0
  -5  -7   3  206.98    2.37   0
  -4  -7   3   13.27    1.54   0
  -3  -7   3 1695.14    4.83   0
  -2  -7   3 2280.17    5.75   0
  -1  -7   3    3.08    1.78   0
   0  -7   3   -2.85    2.06   0
   1  -7   3  248.19    2.31   0
   2  -7   3 1142.30    6.87   0
   3  -7   3  238.80    3.18   0
   4  -7   3  438.32    3.32   0
   5  -7   3  187.46    2.47   0
  -6  -6   3  171.46    2.30   0
  -5  -6   3  304.04    2.59   0
  -4  -6   3  197.02    2.12   0
  -3  -6   3  581.11    3.12   0
  -2  -6   3 2440.23    5.92   0
  -1  -6   3 2959.73    7.04   0
   0  -6   3   62.04    2.27   0
   1  -6   3 2541.61    8.38   0
   2  -6   3  123.61    2.57   0
   3  -6   3 1900.54    6.12   0
   4  -6   3  274.77    2.58   0
   5  -6   3   44.63    1.84   0
   6  -6   3  325.66    2.83   0
  -6  -5   3  158.31    2.01   0
  -5  -5   3   95.51    1.94   0
  -4  -5   3  699.59    3.41   0
  -3  -5   3  879.98    3.70   0
  -2  -5   3  438.35    3.11   0
  -1  -5   3   71.86    1.86   0
   0  -5   3 1268.92    5.30   0
   1  -5   3  554.47    3.93   0
   2  -5   3 4920.85    9.40   0
   3  -5   3 1505.88    4.98   0
   4  -5   3   22.12    1.57   0
   5  -5   3   77.92    1.76   0
   6  -5   3  107.42    2.03   0
  -6  -4   3   93.59    1.76   0
  -5  -4   3    4.20    1.53   0
  -4  -4   3  220.93    2.35   0
  -3  -4   3  123.68    2.40   0
  -2  -4   3  347.40    2.83   0
  -1  -4   3   10.35    1.98   0
   0  -4   3   65.11    2.45   0
   1  -4   3  526.09    3.83   0
   2  -4   3  169.19    2.24   0
   3  -4   3 2880.94    6.82   0
   4  -4   3  573.63    3.13   0
   5  -4   3  126.66    1.88   0
   6  -4   3    2.93    1.50   0
  -7  -3   3   24.61    1.66   0
  -6  -3   3   53.12    1.63   0
  -5  -3   3  284.44    2.22   0
  -4  -3   3 1108.17    4.33   0
  -3  -3   3  556.42    3.18   0
  -2  -3   3 1605.88    5.48   0
  -1  -3   3  730.15    4.26   0
   0  -3   3 1302.08    5.89   0
   1  -3   3 2326.99    7.08   0
   3  -3   3  320.72    2.47   0
   4  -3   3  476.52    2.78   0
   5  -3   3   67.13    1.67   0
   6  -3   3 1082.29    3.90   0
   7  -3   3   75.30    1.95   0
  -7  -2   3   84.68    1.74   0
  -6  -2   3  485.10    2.53   0
  -5  -2   3    3.94    1.48   0
  -4  -2   3  422.30    2.58   0
  -3  -2   3   16.63    1.82   0
  -2  -2   3  187.10    2.76   0
  -1  -2   3  214.83    3.33   0
   0  -2   3   29.51    1.47   0
   1  -2   3 1761.46    6.47   0
   2  -2   3  124.05    2.25   0
   3  -2   3 4653.52    7.42   0
   4  -2   3  863.51    3.38   0
   5  -2   3  220.48    2.01   0
   6  -2   3  132.04    1.92   0
   7  -2   3  252.89    2.45   0
  -7  -1   3  168.31    2.06   0
  -6  -1   3  553.69    2.75   0
  -5  -1   3 1403.04    3.95   0
  -4  -1   3  637.74    3.10   0
  -3  -1   3  102.18    1.84   0
  -2  -1   3 1656.38    5.98   0
  -1  -1   3 3493.13    8.78   0
   0  -1   3 5606.62   12.30   0
   1  -1   3 3327.35    8.26   0
   2  -1   3 9999.99   12.10   0
   3  -1   3  796.41    3.31   0
   4  -1   3    8.97    1.50   0
   5  -1   3   25.65    1.50   0
   6  -1   3  866.29    3.40   0
   7  -1   3  810.57    3.64   0
  -7   0   3   -3.49    1.65   0
  -6   0   3    1.44    1.60   0
  -5   0   3  398.41    2.55   0
  -4   0   3   12.11    1.65   0
  -3   0   3 2604.56    6.10   0
  -2   0   3  144.71    3.12   0
   0   0   3  891.21    4.78   0
   2   0   3  347.16    2.85   0
   3   0   3  223.08    2.34   0
   4   0   3    3.12    1.54   0
   5   0   3   72.30    1.69   0
   6   0   3    3.92    1.47   0
   7   0   3  145.58    2.09   0
  -7   1   3  479.83    2.69   0
  -6   1   3  288.21    2.28   0
  -5   1   3   48.13    1.71   0
  -4   1   3  527.77    2.96   0
  -3   1   3  587.66    3.18   0
  -2   1   3 1466.35    6.41   0
  -1   1   3 3899.54    9.97   0
   1   1   3  821.60    4.00   0
   2   1   3 1369.89    5.04   0
   3   1   3  200.68    1.97   0
   4   1   3 2183.36    5.06   0
   5   1   3  666.15    2.99   0
   6   1   3  101.07    1.81   0
   7   1   3   29.08    1.66   0
  -7   2   3   79.84    1.81   0
  -6   2   3   34.22    1.57   0
  -5   2   3    8.38    1.53   0
  -4   2   3  183.62    2.41   0
  -3   2   3  433.23    3.21   0
  -2   2   3  287.29    3.14   0
  -1   2   3  504.89    3.88   0
   0   2   3 1667.50    6.11   0
   1   2   3  427.90    3.25   0
   2   2   3   -2.34    1.76   0
   3   2   3  549.88    2.76   0
   4   2   3  183.05    2.09   0
   5   2   3   28.63    1.70   0
   6   2   3  336.45    2.38   0
   7   2   3   34.61    1.70   0
  -7   3   3  291.56    2.30   0
  -6   3   3  168.55    2.05   0
  -5   3   3   33.07    1.99   0
  -4   3   3  551.57    3.38   0
  -3   3   3  537.79    3.59   0
  -2   3   3  249.68    2.77   0
  -1   3   3 2080.39    6.67   0
   1   3   3 1443.10    4.89   0
   2   3   3   21.85    1.34   0
   3   3   3    0.58    1.46   0
   4   3   3 3989.57    6.56   0
   5   3   3 1318.51    3.97   0
   6   3   3   20.79    1.54   0
  -6   4   3  148.08    2.10   0
  -5   4   3   23.04    1.84   0
  -4   4   3 1471.36    5.17   0
  -3   4   3  623.61    3.66   0
  -2   4   3  122.98    2.25   0
  -1   4   3   12.31    1.54   0
   0   4   3  121.70    2.48   0
   1   4   3 1089.29    3.99   0
   2   4   3  573.99    2.99   0
   3   4   3  774.51    3.24   0
   4   4   3 1364.88    4.06   0
   5   4   3  742.96    3.15   0
   6   4   3  821.64    3.37   0
  -6   5   3  132.51    2.32   0
  -5   5   3 1149.41    4.56   0
  -4   5   3   11.67    1.82   0
  -3   5   3 3774.73    8.07   0
  -2   5   3 3426.01    7.82   0
  -1   5   3    7.01    2.00   0
   0   5   3  213.73    2.35   0
   1   5   3  809.09    3.63   0
   2   5   3 2214.51    5.27   0
   3   5   3   95.49    1.80   0
   4   5   3  537.99    2.79   0
   5   5   3 1006.30    3.52   0
   6   5   3  191.03    2.12   0
  -5   6   3   61.10    1.95   0
  -4   6   3 1183.97    4.77   0
  -3   6   3  493.88    3.30   0
  -2   6   3  228.31    2.69   0
  -1   6   3  763.17    3.13   0
   0   6   3    8.92    1.79   0
   1   6   3  942.49    3.75   0
   2   6   3  164.22    2.01   0
   3   6   3  311.08    2.32   0
   4   6   3    2.40    1.44   0
   5   6   3    6.61    1.53   0
  -5   7   3  100.51    2.30   0
  -4   7   3  104.71    2.31   0
  -3   7   3  195.60    2.75   0
  -2   7   3 1513.67    4.31   0
  -1   7   3  467.20    2.62   0
   0   7   3   77.63    1.51   0
   1   7   3   71.00    2.13   0
   2   7   3 3667.28    7.13   0
   3   7   3  470.51    2.75   0
   4   7   3    5.77    1.60   0
   5   7   3   62.16    1.83   0
  -4   8   3  358.44    2.70   0
  -3   8   3   35.46    1.72   0
  -2   8   3   26.73    1.49   0
  -1   8   3   71.04    1.64   0
   0   8   3  129.81    1.74   0
   1   8   3  467.05    2.46   0
   2   8   3   32.61    1.69   0
   3   8   3  194.35    2.25   0
   4   8   3   18.48    1.71   0
  -3   9   3  256.76    2.40   0
  -2   9   3  342.03    2.49   0
  -1   9   3    7.54    1.50   0
   0   9   3    8.57    1.39   0
   1   9   3  148.00    1.81   0
   2   9   3 1359.29    3.92   0
   3   9   3  375.06    2.42   0
   0  10   3    5.81    1.55   0
  -2 -10   4  168.80    2.03   0
  -1 -10   4  291.59    2.30   0
   0 -10   4  138.51    1.89   0
   1 -10   4  384.52    2.51   0
   2 -10   4  428.77    2.58   0
  -4  -9   4    5.06    1.65   0
  -3  -9   4  142.42    2.14   0
  -2  -9   4  325.52    2.71   0
  -1  -9   4  920.42    3.73   0
   0  -9   4   26.45    1.43   0
   1  -9   4    5.96    1.41   0
   2  -9   4  230.64    2.16   0
   3  -9   4  884.83    3.38   0
   4  -9   4  152.90    2.02   0
  -4  -8   4   66.06    1.86   0
  -3  -8   4    5.81    1.45   0
  -2  -8   4  586.97    3.45   0
  -1  -8   4   16.45    1.82   0
   0  -8   4  633.70    3.52   0
   1  -8   4  123.42    1.89   0
   2  -8   4 1708.27    4.28   0
   3  -8   4   72.49    2.66   0
   4  -8   4  203.92    2.93   0
  -5  -7   4   23.73    1.66   0
  -4  -7   4  571.66    3.07   0
  -3  -7   4 1084.84    3.99   0
  -2  -7   4   14.74    1.70   0
  -1  -7   4  337.60    2.84   0
   0  -7   4   10.88    2.05   0
   1  -7   4   34.65    2.40   0
   2  -7   4  459.44    3.75   0
   3  -7   4 1218.73    5.10   0
   4  -7   4  172.65    2.42   0
   5  -7   4   11.65    1.69   0
  -6  -6   4  472.35    2.79   0
  -5  -6   4 1267.94    4.40   0
  -4  -6   4  481.29    2.87   0
  -3  -6   4   82.15    1.83   0
  -2  -6   4   54.70    1.93   0
  -1  -6   4   -3.83    2.09   0
   0  -6   4  454.54    3.53   0
   1  -6   4 1400.55    5.80   0
   2  -6   4  203.75    2.61   0
   3  -6   4   15.21    1.64   0
   4  -6   4    3.36    1.48   0
   5  -6   4   18.70    1.55   0
   6  -6   4  581.83    3.34   0
  -6  -5   4  137.58    2.02   0
  -5  -5   4   32.90    1.69   0
  -4  -5   4  478.05    2.98   0
  -3  -5   4  714.29    3.45   0
  -2  -5   4  167.38    2.41   0
  -1  -5   4  120.59    2.07   0
   0  -5   4   15.13    2.01   0
   1  -5   4 1087.77    4.70   0
   2  -5   4 1126.01    4.70   0
   3  -5   4  570.19    3.16   0
   4  -5   4   15.16    1.69   0
   5  -5   4   45.73    1.62   0
   6  -5   4    0.75    1.58   0
  -6  -4   4   18.19    1.57   0
  -5  -4   4  368.34    2.61   0
  -4  -4   4 1622.91    4.85   0
  -3  -4   4   63.50    1.96   0
  -2  -4   4  750.05    3.68   0
  -1  -4   4 1144.51    4.62   0
   0  -4   4 2521.88    6.97   0
   1  -4   4   31.58    1.57   0
   2  -4   4  309.38    2.57   0
   3  -4   4  645.59    3.21   0
   4  -4   4 1034.45    3.81   0
   5  -4   4  119.83    1.79   0
   6  -4   4  361.05    2.62   0
  -7  -3   4   38.76    1.75   0
  -6  -3   4    2.79    1.58   0
  -5  -3   4    1.09    1.51   0
  -4  -3   4   80.53    1.92   0
  -3  -3   4  503.94    3.14   0
  -2  -3   4  394.98    2.96   0
  -1  -3   4  444.46    3.81   0
   0  -3   4   22.50    2.01   0
   1  -3   4 1271.39    5.00   0
   2  -3   4  621.13    3.32   0
   3  -3   4    0.87    1.45   0
   4  -3   4    9.59    1.40   0
   5  -3   4  540.23    2.78   0
   6  -3   4   57.15    1.71   0
   7  -3   4  189.43    2.22   0
  -7  -2   4 1151.79    3.69   0
  -6  -2   4  172.45    1.86   0
  -5  -2   4   63.91    1.61   0
  -4  -2   4  332.09    2.44   0
  -3  -2   4   28.09    1.56   0
  -2  -2   4   18.88    2.05   0
  -1  -2   4  116.74    2.61   0
   0  -2   4  485.45    3.67   0
   1  -2   4 4255.46    8.38   0
   2  -2   4   54.92    1.81   0
   3  -2   4  250.85    2.08   0
   4  -2   4 2219.59    4.84   0
   5  -2   4 2589.13    5.22   0
   6  -2   4  224.47    2.02   0
   7  -2   4    6.78    1.58   0
  -7  -1   4    1.65    1.57   0
  -6  -1   4  429.25    2.45   0
  -5  -1   4  179.18    2.03   0
  -4  -1   4  871.13    3.48   0
  -3  -1   4   77.28    1.67   0
  -2  -1   4   29.96    2.69   0
  -1  -1   4  374.71    3.40   0
   0  -1   4  141.64    2.04   0
   1  -1   4 6178.15    9.96   0
   2  -1   4  334.69    2.76   0
   3  -1   4 2190.90    4.99   0
   4  -1   4  181.45    2.10   0
   5  -1   4 2640.63    5.23   0
   6  -1   4  569.40    2.81   0
   7  -1   4   24.16    1.62   0
  -7   0   4 1371.30    3.93   0
  -6   0   4  336.45    2.27   0
  -5   0   4  218.70    2.16   0
  -4   0   4   30.98    1.90   0
  -3   0   4 1556.18    4.63   0
  -2   0   4 3049.08    8.04   0
  -1   0   4   72.72    1.96   0
   0   0   4 1104.15    4.58   0
   1   0   4  500.64    3.15   0
   2   0   4  169.99    2.21   0
   3   0   4 1570.15    4.30   0
   4   0   4 3270.40    6.05   0
   5   0   4 1371.30    3.96   0
   6   0   4    5.45    1.43   0
   7   0   4    1.55    1.45   0
  -7   1   4   56.33    1.78   0
  -6   1   4  192.17    1.98   0
  -5   1   4  255.09    2.24   0
  -4   1   4 1651.87    4.59   0
  -3   1   4  217.62    2.23   0
  -2   1   4   88.30    2.77   0
  -1   1   4   66.14    2.15   0
   0   1   4 1021.24    4.42   0
   1   1   4  204.73    2.48   0
   2   1   4   53.91    1.92   0
   3   1   4    6.03    1.22   0
   4   1   4   10.39    1.43   0
   5   1   4  983.08    3.43   0
   6   1   4  424.14    2.50   0
   7   1   4   31.52    1.70   0
  -7   2   4  139.15    2.05   0
  -6   2   4  148.18    1.95   0
  -5   2   4  122.51    1.89   0
  -4   2   4   34.28    2.02   0
  -3   2   4  451.28    3.26   0
  -2   2   4  820.28    4.19   0
  -1   2   4   12.95    1.80   0
   0   2   4  242.38    2.77   0
   1   2   4 3223.93    6.92   0
   2   2   4 1026.56    3.70   0
   3   2   4  410.74    2.49   0
   4   2   4 1055.22    3.56   0
   5   2   4 1503.62    4.10   0
   6   2   4   95.81    1.81   0
   7   2   4    3.98    1.48   0
  -6   3   4  173.60    2.12   0
  -5   3   4   10.32    1.56   0
  -4   3   4  348.85    2.97   0
  -3   3   4  998.45    4.66   0
  -2   3   4  141.81    2.16   0
  -1   3   4 2948.15    7.14   0
   0   3   4 1017.73    4.18   0
   1   3   4 2531.10    5.99   0
   2   3   4   37.36    1.30   0
   3   3   4 1361.07    4.15   0
   4   3   4    2.32    1.45   0
   5   3   4    3.84    1.39   0
   6   3   4  149.82    1.91   0
  -6   4   4    5.37    1.63   0
  -5   4   4  186.87    2.43   0
  -4   4   4  570.20    3.40   0
  -3   4   4 1053.79    4.37   0
  -2   4   4  120.59    2.17   0
  -1   4   4  170.87    2.15   0
   0   4   4  127.25    1.94   0
   1   4   4 2146.50    5.27   0
   2   4   4 1303.22    4.07   0
   3   4   4 1619.25    4.29   0
   4   4   4  279.86    2.19   0
   5   4   4   39.50    1.55   0
   6   4   4  194.47    2.13   0
  -6   5   4  819.35    4.01   0
  -5   5   4  368.50    3.09   0
  -4   5   4    3.43    1.61   0
  -3   5   4   13.86    1.69   0
  -2   5   4  160.57    2.26   0
  -1   5   4   28.34    1.85   0
   0   5   4 1388.68    4.75   0
   1   5   4  588.29    3.08   0
   2   5   4    7.35    1.33   0
   3   5   4  861.37    3.27   0
   4   5   4  504.87    2.61   0
   5   5   4   32.53    1.70   0
   6   5   4  339.00    2.52   0
  -5   6   4  869.01    4.28   0
  -4   6   4  780.90    4.09   0
  -3   6   4   52.56    1.90   0
  -2   6   4  199.29    2.44   0
  -1   6   4  432.50    3.32   0
   0   6   4  301.58    2.62   0
   1   6   4  762.64    3.35   0
   2   6   4  873.98    3.46   0
   3   6   4  842.96    3.35   0
   4   6   4   65.10    1.66   0
   5   6   4   14.37    1.56   0
  -5   7   4  442.63    3.53   0
  -4   7   4   49.66    1.90   0
  -3   7   4   75.10    2.10   0
  -2   7   4 1058.81    3.66   0
  -1   7   4  969.53    3.41   0
   0   7   4  165.08    1.84   0
   1   7   4   52.18    1.85   0
   2   7   4    8.64    1.52   0
   3   7   4    2.15    1.47   0
   4   7   4   31.88    1.57   0
  -4   8   4  191.36    2.24   0
  -3   8   4   60.90    1.67   0
  -2   8   4   33.97    1.66   0
  -1   8   4  410.93    2.42   0
   0   8   4  387.99    2.31   0
   1   8   4  441.49    3.32   0
   2   8   4   63.44    1.90   0
   3   8   4  273.31    2.44   0
   4   8   4  102.40    2.00   0
  -2   9   4  358.60    2.46   0
  -1   9   4 1584.87    4.17   0
   0   9   4  416.72    2.43   0
   1   9   4  464.95    2.60   0
   2   9   4   59.80    1.63   0
  -2 -10   5   -0.04    1.54   0
  -1 -10   5    4.07    1.54   0
   0 -10   5   68.42    1.78   0
   1 -10   5  265.96    2.21   0
   2 -10   5  358.22    2.47   0
  -3  -9   5    9.93    1.65   0
  -2  -9   5    1.74    1.60   0
  -1  -9   5  956.30    4.14   0
   0  -9   5  435.37    2.48   0
   1  -9   5   11.48    1.60   0
   2  -9   5    5.29    1.52   0
   3  -9   5   70.79    1.86   0
  -4  -8   5  740.35    3.50   0
  -3  -8   5  598.42    3.15   0
  -2  -8   5  349.04    2.70   0
  -1  -8   5  652.61    3.48   0
   0  -8   5 1043.40    5.24   0
   1  -8   5 2190.71    7.65   0
   2  -8   5   27.47    2.20   0
   3  -8   5    0.26    1.91   0
   4  -8   5  397.90    3.41   0
  -5  -7   5  525.90    3.09   0
  -4  -7   5  271.44    2.36   0
  -3  -7   5  188.12    2.15   0
  -2  -7   5    0.93    1.67   0
  -1  -7   5  842.17    3.93   0
   0  -7   5 2113.38    6.56   0
   1  -7   5  446.11    3.56   0
   2  -7   5  847.16    4.35   0
   3  -7   5   60.97    1.93   0
   4  -7   5  147.07    2.26   0
   5  -7   5  330.40    2.79   0
  -5  -6   5   -0.05    1.63   0
  -4  -6   5  143.41    2.06   0
  -3  -6   5    4.49    1.63   0
  -2  -6   5  272.05    2.48   0
  -1  -6   5   78.39    2.03   0
   0  -6   5  140.07    2.33   0
   1  -6   5 2917.68    7.21   0
   2  -6   5  658.02    3.52   0
   3  -6   5  334.36    2.62   0
   4  -6   5   10.54    1.58   0
   5  -6   5  625.51    3.40   0
   6  -6   5  977.74    4.05   0
  -6  -5   5  225.03    2.15   0
  -5  -5   5    7.27    1.50   0
  -4  -5   5   33.37    1.69   0
  -3  -5   5 3038.56    6.39   0
  -2  -5   5 1481.87    4.78   0
  -1  -5   5  690.51    3.56   0
   0  -5   5  495.59    3.19   0
   1  -5   5   21.20    1.71   0
   2  -5   5  509.29    3.20   0
   3  -5   5  581.79    3.17   0
   4  -5   5  576.87    3.02   0
   5  -5   5   93.31    1.79   0
   6  -5   5  139.20    2.03   0
  -6  -4   5  354.31    2.34   0
  -5  -4   5   19.75    1.74   0
  -4  -4   5  287.52    2.57   0
  -3  -4   5    2.25    1.70   0
  -2  -4   5  721.43    3.48   0
  -1  -4   5   24.96    1.54   0
   0  -4   5  399.36    3.32   0
   1  -4   5  463.42    2.88   0
   2  -4   5   46.68    1.79   0
   3  -4   5    2.10    1.42   0
   4  -4   5  279.21    2.23   0
   5  -4   5  559.10    2.83   0
   6  -4   5  654.48    3.14   0
  -6  -3   5   29.40    1.50   0
  -5  -3   5   21.45    1.41   0
  -4  -3   5  849.73    3.77   0
  -3  -3   5 5302.83    8.72   0
  -2  -3   5  485.77    3.04   0
  -1  -3   5  524.57    3.47   0
   0  -3   5 1907.76    5.80   0
   1  -3   5  797.88    3.94   0
   2  -3   5  523.83    2.87   0
   3  -3   5   60.28    1.69   0
   4  -3   5  486.00    2.54   0
   5  -3   5  777.28    3.08   0
   6  -3   5  124.89    1.85   0
  -7  -2   5  139.35    1.92   0
  -6  -2   5   48.66    1.63   0
  -5  -2   5  422.05    2.54   0
  -4  -2   5  355.68    2.60   0
  -3  -2   5 3283.53    7.15   0
  -2  -2   5 1961.13    5.47   0
  -1  -2   5 5755.46    9.35   0
   0  -2   5   -0.25    1.79   0
   1  -2   5 2255.00    5.79   0
   2  -2   5  326.45    2.37   0
   3  -2   5  849.43    3.22   0
   4  -2   5  108.51    1.78   0
   5  -2   5   49.57    1.50   0
   6  -2   5  798.29    3.24   0
   7  -2   5    3.29    1.52   0
  -7  -1   5   17.59    1.73   0
  -6  -1   5  353.74    2.38   0
  -5  -1   5 1033.29    3.49   0
  -4  -1   5  253.56    2.25   0
  -3  -1   5 4385.33    7.11   0
  -2  -1   5 4507.77    7.86   0
  -1  -1   5  721.40    4.25   0
   0  -1   5  750.14    3.71   0
   1  -1   5  264.44    2.83   0
   2  -1   5 2740.61    5.82   0
   3  -1   5 2017.10    4.76   0
   4  -1   5  428.38    2.42   0
   5  -1   5    1.67    1.35   0
   6  -1   5   95.10    1.73   0
   7  -1   5   43.53    1.65   0
  -7   0   5   48.64    1.82   0
  -6   0   5  584.50    2.82   0
  -5   0   5  314.81    2.30   0
  -4   0   5  247.19    2.23   0
  -3   0   5  789.73    3.65   0
  -2   0   5  451.07    3.21   0
  -1   0   5 2935.37    7.22   0
   0   0   5   49.70    2.02   0
   1   0   5 1088.36    4.41   0
   2   0   5  131.89    1.80   0
   3   0   5   10.12    1.38   0
   4   0   5 1536.27    4.03   0
   5   0   5    2.43    1.38   0
   6   0   5   43.44    1.48   0
   7   0   5    6.26    1.60   0
  -7   1   5   10.18    1.69   0
  -6   1   5  179.93    2.08   0
  -5   1   5 2762.95    5.63   0
  -4   1   5 1582.12    4.38   0
  -3   1   5  819.21    3.88   0
  -2   1   5  111.81    2.10   0
  -1   1   5 1282.38    5.00   0
   0   1   5 1408.77    5.47   0
   1   1   5 1284.96    4.45   0
   2   1   5  794.70    3.27   0
   3   1   5  258.41    2.13   0
   4   1   5  665.98    2.92   0
   5   1   5   73.38    1.79   0
   6   1   5  739.30    3.12   0
   7   1   5  259.68    2.24   0
  -6   2   5  466.60    2.82   0
  -5   2   5  330.42    2.40   0
  -4   2   5  452.11    2.77   0
  -3   2   5  161.02    2.34   0
  -2   2   5    4.49    1.40   0
  -1   2   5  630.06    3.60   0
   0   2   5  106.13    1.89   0
   1   2   5  399.13    2.69   0
   2   2   5    8.00    1.18   0
   3   2   5  584.32    2.80   0
   4   2   5  194.98    1.95   0
   5   2   5  928.29    3.29   0
   6   2   5    2.87    1.49   0
  -6   3   5  208.52    2.18   0
  -5   3   5 3474.53    6.71   0
  -4   3   5  952.21    3.97   0
  -3   3   5    3.46    1.66   0
  -2   3   5   70.96    1.83   0
  -1   3   5 2219.67    5.84   0
   0   3   5 1390.60    4.44   0
   1   3   5  134.74    1.74   0
   2   3   5  169.75    1.84   0
   3   3   5  958.62    3.33   0
   4   3   5    3.48    1.41   0
   5   3   5   26.47    1.52   0
   6   3   5  234.48    2.10   0
  -6   4   5  414.13    3.01   0
  -5   4   5  191.70    2.41   0
  -4   4   5  845.11    4.13   0
  -3   4   5  455.10    3.06   0
  -2   4   5  362.91    3.00   0
  -1   4   5 3483.26    7.30   0
   0   4   5   11.93    1.41   0
   1   4   5  610.94    3.12   0
   2   4   5    4.32    1.68   0
   3   4   5  319.42    2.35   0
   4   4   5    6.38    1.59   0
   5   4   5  111.27    1.72   0
   6   4   5   20.43    1.56   0
  -5   5   5  208.56    2.66   0
  -4   5   5  882.24    4.03   0
  -3   5   5  361.77    2.83   0
  -2   5   5  517.65    3.21   0
  -1   5   5  610.28    3.30   0
   0   5   5 7292.28    9.74   0
   1   5   5  669.61    3.06   0
   2   5   5 1512.43    4.24   0
   3   5   5    2.50    1.35   0
   4   5   5  982.55    3.42   0
   5   5   5  559.07    2.79   0
  -5   6   5   24.69    1.83   0
  -4   6   5    0.99    1.58   0
  -3   6   5  288.40    2.63   0
  -2   6   5  221.95    2.56   0
  -1   6   5  426.56    3.15   0
   0   6   5  201.51    2.21   0
   1   6   5   73.21    1.68   0
   2   6   5  149.43    1.90   0
   3   6   5  759.50    3.16   0
   4   6   5   80.35    1.72   0
   5   6   5    1.04    1.54   0
  -4   7   5   23.42    1.85   0
  -3   7   5   90.27    2.06   0
  -2   7   5  290.44    2.77   0
  -1   7   5 1064.97    3.48   0
   0   7   5  567.56    3.38   0
   1   7   5    6.25    1.59   0
   2   7   5    1.11    1.41   0
   3   7   5  245.37    2.26   0
   4   7   5  380.99    2.63   0
  -3   8   5  156.68    2.03   0
  -2   8   5   10.82    1.46   0
  -1   8   5  452.79    2.57   0
   0   8   5   32.03    1.45   0
   1   8   5  137.07    1.80   0
   2   8   5    2.01    1.59   0
   3   8   5 1451.89    4.57   0
  -2   9   5  859.40    3.40   0
  -1   9   5   82.69    1.73   0
   0   9   5   18.81    1.55   0
   1   9   5   90.16    1.74   0
   2   9   5   26.98    1.53   0
  -2 -10   6    4.77    1.60   0
  -1 -10   6  250.05    2.09   0
   0 -10   6  664.29    2.91   0
   1 -10   6   24.15    1.58   0
   2 -10   6  179.51    2.16   0
  -3  -9   6  126.18    2.04   0
  -2  -9   6  292.65    2.61   0
  -1  -9   6   11.14    1.79   0
   0  -9   6  288.23    2.59   0
   1  -9   6  263.77    2.31   0
   2  -9   6   57.01    1.52   0
   3  -9   6   55.51    2.53   0
  -4  -8   6  218.38    2.31   0
  -3  -8   6  419.14    2.82   0
  -2  -8   6  125.91    2.05   0
  -1  -8   6   83.15    2.01   0
   0  -8   6  303.06    2.99   0
   1  -8   6  115.18    2.42   0
   2  -8   6   48.76    2.03   0
   3  -8   6   10.49    1.80   0
   4  -8   6  681.07    3.91   0
  -5  -7   6   24.15    1.65   0
  -4  -7   6  180.98    2.24   0
  -3  -7   6    2.82    1.62   0
  -2  -7   6 1252.93    4.42   0
  -1  -7   6  524.79    3.23   0
   0  -7   6   87.78    2.05   0
   1  -7   6   16.33    1.77   0
   2  -7   6  137.73    2.36   0
   3  -7   6   -7.26    1.70   0
   4  -7   6   85.71    1.93   0
   5  -7   6  917.97    4.04   0
  -5  -6   6   96.71    1.90   0
  -4  -6   6   14.92    1.59   0
  -3  -6   6 1551.48    4.61   0
  -2  -6   6 2692.21    6.09   0
  -1  -6   6  149.90    2.08   0
   0  -6   6  552.57    3.19   0
   1  -6   6 1239.61    4.56   0
   2  -6   6 3775.50    7.39   0
   3  -6   6  102.22    1.84   0
   4  -6   6   97.42    1.89   0
   5  -6   6   82.11    1.80   0
  -6  -5   6   27.42    1.67   0
  -5  -5   6    5.37    1.57   0
  -4  -5   6   11.02    1.57   0
  -3  -5   6  119.37    2.12   0
  -2  -5   6  891.13    3.68   0
  -1  -5   6  208.03    2.37   0
   0  -5   6   15.20    1.84   0
   1  -5   6  427.40    2.95   0
   2  -5   6  405.09    2.70   0
   3  -5   6 1282.65    4.12   0
   4  -5   6  406.05    2.49   0
   5  -5   6   62.98    1.65   0
   6  -5   6   76.63    1.85   0
  -6  -4   6  340.86    2.46   0
  -5  -4   6  286.11    2.39   0
  -4  -4   6  242.25    2.39   0
  -3  -4   6   14.56    1.63   0
  -2  -4   6  691.30    3.39   0
  -1  -4   6 1070.46    4.01   0
   0  -4   6  721.88    3.35   0
   1  -4   6  348.56    2.52   0
   2  -4   6 4178.56    7.31   0
   3  -4   6  848.98    3.29   0
   4  -4   6   28.34    1.50   0
   5  -4   6   19.97    1.39   0
   6  -4   6  144.65    1.95   0
  -6  -3   6  263.78    2.16   0
  -5  -3   6    6.12    1.52   0
  -4  -3   6  845.82    3.73   0
  -3  -3   6    1.13    1.78   0
  -2  -3   6   62.12    1.58   0
  -1  -3   6  948.86    4.01   0
   0  -3   6 1233.24    4.28   0
   1  -3   6 1857.62    5.04   0
   2  -3   6  205.52    1.91   0
   3  -3   6 3467.24    6.18   0
   4  -3   6  507.46    2.64   0
   5  -3   6   84.01    1.59   0
   6  -3   6    4.63    1.32   0
  -6  -2   6  149.54    1.92   0
  -5  -2   6 1664.52    4.33   0
  -4  -2   6 1275.93    3.87   0
  -3  -2   6  458.96    3.00   0
  -2  -2   6   82.72    1.71   0
  -1  -2   6 2847.89    6.22   0
   0  -2   6 2960.63    6.30   0
   1  -2   6  773.71    3.40   0
   2  -2   6 4680.11    7.20   0
   3  -2   6  840.79    3.23   0
   4  -2   6   81.15    1.60   0
   5  -2   6   49.63    1.47   0
   6  -2   6  350.58    2.33   0
  -6  -1   6 1071.59    3.64   0
  -5  -1   6    4.39    1.67   0
  -4  -1   6 2486.11    5.29   0
  -3  -1   6  307.07    2.85   0
  -2  -1   6 1415.62    4.37   0
  -1  -1   6  731.19    3.44   0
   0  -1   6 1049.83    3.98   0
   1  -1   6  793.21    3.39   0
   2  -1   6  802.08    3.17   0
   3  -1   6  246.64    2.07   0
   4  -1   6  294.25    2.16   0
   5  -1   6   11.02    1.39   0
   6  -1   6   96.56    1.65   0
  -6   0   6   55.33    1.77   0
  -5   0   6  464.20    2.60   0
  -4   0   6 1651.71    4.43   0
  -3   0   6  336.79    2.85   0
  -2   0   6  151.41    2.30   0
  -1   0   6 4573.65    7.95   0
   1   0   6  706.98    3.17   0
   2   0   6  231.47    2.16   0
   3   0   6  152.14    1.80   0
   4   0   6 1276.21    3.73   0
   5   0   6  133.31    1.76   0
   6   0   6  371.92    2.35   0
  -6   1   6   12.36    1.61   0
  -5   1   6  230.18    2.13   0
  -4   1   6    4.98    1.52   0
  -3   1   6  471.88    3.27   0
  -2   1   6  406.86    2.79   0
  -1   1   6 1607.92    4.98   0
   0   1   6 1770.29    4.88   0
   1   1   6 3692.31    6.64   0
   2   1   6   98.22    1.47   0
   3   1   6  675.23    2.90   0
   4   1   6   25.47    1.38   0
   5   1   6  698.28    2.90   0
   6   1   6   18.93    1.47   0
  -6   2   6  204.36    2.13   0
  -5   2   6   61.59    1.73   0
  -4   2   6  176.35    2.12   0
  -3   2   6   22.23    1.88   0
  -2   2   6 1752.90    5.19   0
  -1   2   6 3284.43    6.87   0
   0   2   6 1845.42    4.93   0
   1   2   6  284.57    2.31   0
   2   2   6 1781.69    4.46   0
   3   2   6  183.52    1.92   0
   4   2   6 1341.67    3.77   0
   5   2   6  384.78    2.34   0
   6   2   6   80.00    1.71   0
  -6   3   6   73.57    1.98   0
  -5   3   6   32.80    1.79   0
  -4   3   6  149.10    2.21   0
  -3   3   6   21.67    1.70   0
  -2   3   6  248.29    2.46   0
  -1   3   6  129.82    2.03   0
   0   3   6  465.94    2.69   0
   1   3   6 1217.91    3.90   0
   2   3   6  432.87    2.48   0
   3   3   6  545.28    2.65   0
   4   3   6  258.30    2.10   0
   5   3   6  698.45    2.91   0
   6   3   6  311.95    2.34   0
  -6   4   6  354.61    2.67   0
  -5   4   6  362.08    2.58   0
  -4   4   6   13.40    1.53   0
  -3   4   6  831.51    3.79   0
  -2   4   6 2278.63    5.77   0
  -1   4   6  684.18    3.29   0
   0   4   6 1682.66    4.73   0
   1   4   6  594.38    2.90   0
   2   4   6    5.74    1.36   0
   3   4   6    8.84    1.42   0
   4   4   6 3843.84    6.24   0
   5   4   6  886.77    3.29   0
   6   4   6   90.65    1.77   0
  -5   5   6   26.80    1.71   0
  -4   5   6 1500.61    5.19   0
  -3   5   6 1436.46    4.87   0
  -2   5   6  119.32    2.04   0
  -1   5   6 1848.92    5.13   0
   0   5   6   76.78    1.75   0
   1   5   6  460.24    2.68   0
   2   5   6   42.61    1.40   0
   3   5   6   15.55    1.41   0
   4   5   6    2.77    1.39   0
   5   5   6  155.02    1.96   0
  -5   6   6   76.80    2.16   0
  -4   6   6   34.00    1.77   0
  -3   6   6  807.48    3.96   0
  -2   6   6 1710.00    5.38   0
  -1   6   6  170.24    2.20   0
   0   6   6   -0.06    1.50   0
   1   6   6   89.27    1.76   0
   2   6   6 1504.62    4.12   0
   3   6   6  589.72    2.78   0
   4   6   6  487.21    2.56   0
   5   6   6   51.07    1.74   0
  -4   7   6   64.90    2.03   0
  -3   7   6  512.46    3.24   0
  -2   7   6   80.20    2.15   0
  -1   7   6  702.02    3.70   0
   0   7   6   38.51    1.69   0
   1   7   6  736.92    3.27   0
   2   7   6   52.61    1.68   0
   3   7   6  215.22    2.15   0
   4   7   6    2.08    1.54   0
  -3   8   6  224.40    2.30   0
  -2   8   6 1126.80    3.78   0
  -1   8   6   69.57    1.55   0
   0   8   6  164.74    1.86   0
   1   8   6  112.96    1.69   0
   2   8   6 1827.77    5.13   0
   3   8   6  264.06    2.50   0
  -1   9   6  128.07    1.89   0
   0   9   6  139.55    1.94   0
  -1 -10   7  563.32    3.20   0
   0 -10   7  174.89    1.92   0
   1 -10   7   31.40    1.71   0
  -3  -9   7  307.57    2.61   0
  -2  -9   7  240.22    2.41   0
  -1  -9   7  205.77    2.56   0
   0  -9   7  128.11    2.40   0
   1  -9   7  179.02    2.64   0
   2  -9   7  318.01    3.15   0
   3  -9   7    5.09    2.02   0
  -4  -8   7   86.50    1.88   0
  -3  -8   7    3.62    1.57   0
  -2  -8   7  199.95    2.24   0
  -1  -8   7 1956.11    5.77   0
   0  -8   7   32.71    1.82   0
   1  -8   7  181.05    2.46   0
   2  -8   7   94.31    2.11   0
   3  -8   7 1419.37    5.12   0
   4  -8   7  428.12    3.07   0
  -5  -7   7  925.75    3.88   0
  -4  -7   7  200.86    2.29   0
  -3  -7   7   22.17    1.63   0
  -2  -7   7  133.94    1.94   0
  -1  -7   7    7.00    1.62   0
   0  -7   7   93.74    2.07   0
   1  -7   7  285.91    2.63   0
   2  -7   7  915.66    3.91   0
   3  -7   7   29.54    1.69   0
   4  -7   7  224.89    2.38   0
   5  -7   7   14.81    1.66   0
  -5  -6   7  221.19    2.41   0
  -4  -6   7  700.53    3.31   0
  -3  -6   7  240.11    2.31   0
  -2  -6   7   31.57    1.68   0
  -1  -6   7  139.10    1.99   0
   0  -6   7   15.36    1.66   0
   1  -6   7  632.84    3.28   0
   2  -6   7  432.45    2.80   0
   3  -6   7  687.16    3.24   0
   4  -6   7  203.84    2.05   0
   5  -6   7   41.16    1.61   0
  -6  -5   7 1043.01    3.61   0
  -5  -5   7 1418.12    4.63   0
  -4  -5   7    7.87    1.57   0
  -3  -5   7  506.90    2.95   0
  -2  -5   7  501.88    2.82   0
  -1  -5   7  828.30    3.60   0
   0  -5   7   28.12    1.57   0
   1  -5   7   11.62    1.48   0
   2  -5   7  141.11    1.99   0
   3  -5   7  306.11    2.34   0
   4  -5   7   38.85    1.57   0
   5  -5   7    5.23    1.39   0
   6  -5   7  908.92    3.68   0
  -6  -4   7  221.51    2.14   0
  -5  -4   7    9.17    1.57   0
  -4  -4   7 1023.13    3.99   0
  -3  -4   7  996.98    3.71   0
  -2  -4   7 1501.28    4.55   0
  -1  -4   7   95.58    2.08   0
   0  -4   7 2259.07    5.41   0
   1  -4   7 3078.61    6.22   0
   2  -4   7  506.01    2.86   0
   3  -4   7    0.03    1.37   0
   4  -4   7  911.85    3.38   0
   5  -4   7   96.08    1.58   0
   6  -4   7   50.10    1.63   0
  -6  -3   7   90.11    1.78   0
  -5  -3   7 1167.37    3.62   0
  -4  -3   7  906.19    3.75   0
  -3  -3   7  458.58    2.73   0
  -2  -3   7  346.08    2.54   0
  -1  -3   7 1221.03    3.90   0
   0  -3   7 3109.46    6.06   0
   1  -3   7   35.70    1.31   0
   2  -3   7 1283.35    4.02   0
   3  -3   7  724.74    2.97   0
   4  -3   7 1711.13    4.19   0
   5  -3   7   72.93    1.57   0
   6  -3   7   67.07    1.67   0
  -6  -2   7   16.43    1.47   0
  -5  -2   7   54.90    1.56   0
  -4  -2   7   18.63    1.64   0
  -3  -2   7   26.08    1.80   0
  -2  -2   7  274.72    2.23   0
  -1  -2   7   46.56    1.80   0
   0  -2   7   15.55    1.25   0
   1  -2   7 2701.68    5.48   0
   2  -2   7  650.28    2.85   0
   3  -2   7  157.26    1.86   0
   4  -2   7  154.35    1.84   0
   5  -2   7  549.04    2.59   0
   6  -2   7  532.36    2.57   0
  -6  -1   7  258.25    2.16   0
  -5  -1   7   62.26    1.70   0
  -4  -1   7   36.76    1.66   0
  -3  -1   7  857.06    3.84   0
  -2  -1   7  459.47    2.54   0
  -1  -1   7   56.69    1.52   0
   0  -1   7  924.89    3.47   0
   1  -1   7  156.93    1.73   0
   2  -1   7 1307.31    3.73   0
   3  -1   7  478.59    2.53   0
   4  -1   7 3362.37    5.62   0
   5  -1   7 1009.12    3.23   0
   6  -1   7    3.48    1.33   0
  -6   0   7  369.58    2.43   0
  -5   0   7  132.28    1.86   0
  -4   0   7 1268.00    3.88   0
  -3   0   7  539.13    3.14   0
  -2   0   7  171.01    2.10   0
  -1   0   7 1463.93    4.29   0
   0   0   7   59.82    1.65   0
   1   0   7  395.97    2.38   0
   2   0   7  359.37    2.30   0
   3   0   7  289.80    2.10   0
   4   0   7  315.80    2.19   0
   5   0   7 1855.66    4.27   0
   6   0   7  188.82    1.90   0
  -6   1   7   59.45    1.68   0
  -5   1   7  246.43    2.15   0
  -4   1   7  202.39    2.14   0
  -3   1   7 2494.42    6.14   0
  -2   1   7  692.94    3.32   0
  -1   1   7  238.31    2.14   0
   0   1   7   32.93    1.25   0
   1   1   7  919.99    3.26   0
   2   1   7  395.15    2.34   0
   3   1   7  798.47    3.14   0
   4   1   7  737.76    2.89   0
   5   1   7  800.62    2.98   0
   6   1   7   58.52    1.58   0
  -6   2   7  174.38    2.22   0
  -5   2   7   68.69    1.69   0
  -4   2   7 1400.72    4.63   0
  -3   2   7  671.26    3.45   0
  -2   2   7  400.73    2.86   0
  -1   2   7 1101.59    3.90   0
   0   2   7 1322.38    4.02   0
   1   2   7  170.58    1.87   0
   2   2   7   54.42    1.64   0
   3   2   7  240.69    1.99   0
   4   2   7   -0.03    1.49   0
   5   2   7  278.25    2.10   0
   6   2   7  413.69    2.52   0
  -6   3   7  548.97    3.16   0
  -5   3   7   50.62    1.79   0
  -4   3   7  513.09    2.99   0
  -3   3   7  973.72    3.96   0
  -2   3   7 6150.32    9.05   0
  -1   3   7   10.81    1.49   0
   0   3   7 4118.75    7.13   0
   1   3   7  344.54    2.36   0
   2   3   7 4933.04    7.05   0
   3   3   7 1343.63    3.75   0
   4   3   7   27.86    1.44   0
   5   3   7  237.28    2.07   0
   6   3   7  381.21    2.56   0
  -5   4   7    9.44    1.64   0
  -4   4   7  346.28    2.85   0
  -3   4   7  324.73    2.57   0
  -2   4   7   43.42    1.65   0
  -1   4   7  883.18    3.74   0
   0   4   7  678.69    3.04   0
   1   4   7 1493.32    4.25   0
   2   4   7  266.37    2.07   0
   3   4   7 1222.47    3.66   0
   4   4   7  760.81    3.02   0
   5   4   7    7.34    1.42   0
  -5   5   7  556.79    3.30   0
  -4   5   7  242.03    2.50   0
  -3   5   7  259.14    2.44   0
  -2   5   7   55.00    1.87   0
  -1   5   7   14.74    1.59   0
   0   5   7   20.41    1.52   0
   1   5   7  922.94    3.46   0
   2   5   7  944.35    3.41   0
   3   5   7 1050.98    3.37   0
   4   5   7    0.48    1.51   0
   5   5   7    6.01    1.47   0
  -4   6   7   31.32    1.83   0
  -3   6   7   21.75    1.66   0
  -2   6   7  456.52    2.99   0
  -1   6   7   15.82    1.59   0
   0   6   7  191.19    2.17   0
   1   6   7  413.50    2.57   0
   2   6   7   59.15    1.54   0
   3   6   7 1108.02    3.72   0
   4   6   7  170.75    2.00   0
  -3   7   7    3.30    1.73   0
  -2   7   7   11.08    1.75   0
  -1   7   7  356.98    2.88   0
   0   7   7  244.53    2.27   0
   1   7   7  191.92    2.12   0
   2   7   7  342.85    2.49   0
   3   7   7  628.68    3.10   0
  -2   8   7  508.15    2.81   0
  -1   8   7  505.94    2.70   0
   0   8   7  105.65    1.81   0
   1   8   7    9.39    1.42   0
   2   8   7   24.78    1.69   0
   0 -10   8    4.03    2.10   0
  -2  -9   8   72.37    1.89   0
  -1  -9   8  122.28    2.13   0
   0  -9   8  500.88    3.45   0
   1  -9   8   19.24    1.83   0
   2  -9   8   51.02    2.00   0
   3  -9   8  915.61    4.54   0
  -4  -8   8  253.33    2.49   0
  -3  -8   8  119.89    1.96   0
  -2  -8   8   37.27    1.69   0
  -1  -8   8 2199.84    5.77   0
   0  -8   8  949.81    4.13   0
   1  -8   8  110.83    2.05   0
   2  -8   8   41.38    1.88   0
   3  -8   8  182.40    2.37   0
   4  -8   8   30.76    1.85   0
  -4  -7   8  423.01    2.75   0
  -3  -7   8   26.12    1.60   0
  -2  -7   8  298.44    2.49   0
  -1  -7   8   36.13    1.74   0
   0  -7   8 1400.15    4.65   0
   1  -7   8 1394.86    4.56   0
   2  -7   8   30.73    1.73   0
   3  -7   8    1.07    1.50   0
   4  -7   8  121.46    1.91   0
  -5  -6   8  104.49    2.04   0
  -4  -6   8   77.06    1.81   0
  -3  -6   8  433.84    2.78   0
  -2  -6   8  325.91    2.40   0
  -1  -6   8 1671.23    4.76   0
   0  -6   8  714.67    3.35   0
   1  -6   8    7.84    1.46   0
   2  -6   8  304.77    2.48   0
   3  -6   8   62.82    1.67   0
   4  -6   8  236.94    2.27   0
   5  -6   8  160.34    2.05   0
  -5  -5   8   -1.22    1.50   0
  -4  -5   8   62.45    1.76   0
  -3  -5   8  104.29    1.87   0
  -2  -5   8   90.06    1.78   0
  -1  -5   8   47.96    1.69   0
   0  -5   8 1316.30    4.10   0
   1  -5   8 1623.59    4.51   0
   2  -5   8   76.95    1.57   0
   3  -5   8  264.48    2.20   0
   4  -5   8  479.57    2.65   0
   5  -5   8 1146.39    3.84   0
  -6  -4   8    1.40    1.62   0
  -5  -4   8    4.92    1.55   0
  -4  -4   8  551.90    2.99   0
  -3  -4   8 2305.46    5.23   0
  -2  -4   8  214.78    2.13   0
  -1  -4   8  785.24    3.26   0
   0  -4   8  829.56    3.33   0
   1  -4   8  122.35    1.75   0
   2  -4   8   98.86    1.67   0
   3  -4   8  172.49    1.93   0
   4  -4   8  407.11    2.39   0
   5  -4   8  210.50    1.94   0
   6  -4   8  261.55    2.30   0
  -6  -3   8 1010.74    3.42   0
  -5  -3   8  142.82    1.88   0
  -4  -3   8  986.34    3.99   0
  -3  -3   8  147.04    2.14   0
  -2  -3   8 1896.60    4.82   0
  -1  -3   8    6.72    1.49   0
   0  -3   8    2.61    1.37   0
   1  -3   8  275.15    2.24   0
   2  -3   8  626.60    2.84   0
   3  -3   8   17.19    1.48   0
   4  -3   8   37.88    1.54   0
   5  -3   8  776.71    2.90   0
   6  -3   8 1033.61    3.59   0
  -6  -2   8  278.94    2.30   0
  -5  -2   8   71.67    1.64   0
  -4  -2   8    3.73    1.91   0
  -3  -2   8 6668.13    8.80   0
  -2  -2   8 4356.13    6.78   0
  -1  -2   8    7.02    1.33   0
   0  -2   8  766.85    3.00   0
   1  -2   8 1407.96    3.93   0
   2  -2   8 1375.50    3.91   0
   3  -2   8   38.45    1.48   0
   4  -2   8    0.07    1.25   0
   5  -2   8  462.28    2.40   0
   6  -2   8   83.89    1.66   0
  -6  -1   8   38.84    1.77   0
  -5  -1   8  119.30    1.78   0
  -4  -1   8  489.96    2.66   0
  -3  -1   8  611.37    3.06   0
  -2  -1   8 2853.56    5.82   0
  -1  -1   8 3536.56    6.20   0
   0  -1   8  205.80    1.86   0
   1  -1   8 4257.06    6.58   0
   2  -1   8  295.56    2.16   0
   3  -1   8 3161.56    5.43   0
   4  -1   8  193.70    1.84   0
   5  -1   8   71.49    1.52   0
   6  -1   8  128.70    1.81   0
  -6   0   8  158.78    2.00   0
  -5   0   8  310.43    2.30   0
  -4   0   8  979.58    3.48   0
  -3   0   8 3462.17    6.80   0
  -2   0   8  201.76    2.19   0
  -1   0   8   15.67    1.71   0
   0   0   8  168.09    1.69   0
   1   0   8 1715.70    4.41   0
   2   0   8 1590.75    4.04   0
   3   0   8  224.97    1.90   0
   4   0   8  328.51    2.12   0
   5   0   8   20.99    1.45   0
   6   0   8   96.19    1.63   0
  -6   1   8   95.58    1.86   0
  -5   1   8   25.63    1.56   0
  -4   1   8   22.56    1.59   0
  -3   1   8   34.89    1.75   0
  -2   1   8  475.99    2.79   0
  -1   1   8  233.21    2.16   0
   0   1   8    5.88    1.29   0
   1   1   8 1221.04    3.70   0
   2   1   8  204.34    1.90   0
   3   1   8 1858.86    4.24   0
   4   1   8   66.50    1.55   0
   5   1   8  607.53    2.71   0
   6   1   8    5.44    1.42   0
  -6   2   8  246.86    2.32   0
  -5   2   8 1334.64    4.09   0
  -4   2   8  328.22    2.52   0
  -3   2   8  387.98    2.80   0
  -2   2   8 1284.79    4.12   0
  -1   2   8 1298.22    4.21   0
   0   2   8  332.07    2.34   0
   1   2   8  270.35    2.23   0
   2   2   8 4772.57    6.76   0
   3   2   8  503.92    2.48   0
   4   2   8 1686.34    4.05   0
   5   2   8    1.80    1.40   0
   6   2   8 1146.87    3.70   0
  -5   3   8   58.28    1.66   0
  -4   3   8 1116.20    4.07   0
  -3   3   8  253.95    2.45   0
  -2   3   8  201.62    2.16   0
  -1   3   8  405.02    2.58   0
   0   3   8  234.38    2.03   0
   1   3   8   76.78    1.70   0
   2   3   8   12.93    1.47   0
   3   3   8  223.65    1.94   0
   4   3   8  247.52    2.08   0
   5   3   8  240.51    2.01   0
  -5   4   8 1896.07    5.17   0
  -4   4   8  804.09    3.78   0
  -3   4   8   48.50    1.66   0
  -2   4   8  116.01    1.99   0
  -1   4   8 1734.62    4.72   0
   0   4   8 2344.98    5.17   0
   1   4   8  411.93    2.39   0
   2   4   8   10.16    1.39   0
   3   4   8   54.71    1.49   0
   4   4   8   18.16    1.49   0
   5   4   8   93.54    1.74   0
  -4   5   8   14.06    1.60   0
  -3   5   8  475.74    3.05   0
  -2   5   8   37.84    1.71   0
  -1   5   8 2324.56    5.58   0
   0   5   8   28.27    1.80   0
   1   5   8 1005.31    3.55   0
   2   5   8   83.35    1.59   0
   3   5   8  606.41    2.78   0
   4   5   8  130.49    1.84   0
  -4   6   8  306.34    2.87   0
  -3   6   8  150.19    2.24   0
  -2   6   8    0.45    1.55   0
  -1   6   8  871.86    3.73   0
   0   6   8 1703.97    4.81   0
   1   6   8   85.04    1.71   0
   2   6   8  124.32    1.80   0
   3   6   8   75.54    1.63   0
   4   6   8  568.13    2.88   0
  -3   7   8    2.48    1.80   0
  -2   7   8  138.07    2.41   0
  -1   7   8  380.60    2.88   0
   0   7   8  103.12    1.92   0
   1   7   8   29.98    1.60   0
   2   7   8   25.50    1.64   0
   3   7   8  325.38    2.39   0
  -1   8   8   53.68    1.67   0
   0   8   8 1062.04    3.59   0
   1   8   8  461.08    2.56   0
  -2  -9   9   13.44    1.75   0
  -1  -9   9  212.93    2.50   0
   0  -9   9  273.23    2.81   0
   1  -9   9   10.24    1.78   0
   2  -9   9   46.30    2.03   0
  -3  -8   9   45.06    1.74   0
  -2  -8   9  221.50    2.25   0
  -1  -8   9  218.92    2.36   0
   0  -8   9  467.20    3.05   0
   1  -8   9  124.73    2.06   0
   2  -8   9   45.12    1.79   0
   3  -8   9   46.11    1.75   0
  -4  -7   9  307.93    2.51   0
  -3  -7   9  530.33    3.01   0
  -2  -7   9   98.99    1.85   0
  -1  -7   9   -0.16    1.61   0
   0  -7   9  148.04    1.96   0
   1  -7   9  132.09    2.07   0
   2  -7   9   18.30    1.59   0
   3  -7   9  172.94    2.17   0
   4  -7   9 1196.35    4.08   0
  -5  -6   9    4.47    1.57   0
  -4  -6   9  161.95    2.10   0
  -3  -6   9   14.94    1.58   0
  -2  -6   9 2292.67    5.26   0
  -1  -6   9  684.78    3.19   0
   0  -6   9  274.86    2.35   0
   1  -6   9   82.35    1.78   0
   2  -6   9  984.83    3.60   0
   3  -6   9   94.14    1.71   0
   4  -6   9  123.68    1.83   0
   5  -6   9  574.03    2.92   0
  -5  -5   9   87.57    1.81   0
  -4  -5   9  214.07    2.17   0
  -3  -5   9 1242.31    3.94   0
  -2  -5   9  374.12    2.52   0
  -1  -5   9  660.38    2.97   0
   0  -5   9    4.78    1.44   0
   1  -5   9 2917.12    5.74   0
   2  -5   9 1940.81    4.86   0
   3  -5   9   29.91    1.50   0
   4  -5   9   28.68    1.39   0
   5  -5   9  138.13    1.96   0
  -5  -4   9    2.90    1.49   0
  -4  -4   9    6.83    1.58   0
  -3  -4   9   84.79    1.82   0
  -2  -4   9 1160.35    3.79   0
  -1  -4   9  283.57    2.29   0
   0  -4   9   66.50    1.53   0
   1  -4   9  107.18    1.79   0
   2  -4   9 1029.95    3.45   0
   3  -4   9  918.38    3.21   0
   4  -4   9  252.47    2.01   0
   5  -4   9   14.05    1.40   0
  -6  -3   9  215.79    2.10   0
  -5  -3   9  185.08    1.99   0
  -4  -3   9   77.59    1.89   0
  -3  -3   9  125.31    1.83   0
  -2  -3   9 1507.41    4.29   0
  -1  -3   9    2.57    1.41   0
   0  -3   9  179.43    1.92   0
   1  -3   9 1985.58    4.52   0
   2  -3   9 5905.04    7.58   0
   3  -3   9   83.70    1.59   0
   4  -3   9  172.59    1.79   0
   5  -3   9    4.36    1.34   0
   6  -3   9  580.79    2.78   0
  -6  -2   9  225.07    2.16   0
  -5  -2   9   19.38    1.63   0
  -4  -2   9  509.52    3.15   0
  -3  -2   9  120.11    1.93   0
  -2  -2   9  104.38    1.75   0
  -1  -2   9  151.59    2.04   0
   0  -2   9   51.03    1.56   0
   1  -2   9  339.59    2.39   0
   2  -2   9 1938.52    4.42   0
   3  -2   9 2386.09    4.70   0
   4  -2   9  121.11    1.62   0
   5  -2   9  256.60    2.04   0
   6  -2   9    3.59    1.43   0
  -6  -1   9  516.01    2.82   0
  -5  -1   9 1091.51    3.62   0
  -4  -1   9  107.29    2.19   0
  -3  -1   9  314.28    2.41   0
  -2  -1   9  275.66    2.25   0
  -1  -1   9  751.50    3.07   0
   0  -1   9 1605.49    4.17   0
   1  -1   9 1808.70    4.28   0
   2  -1   9 1442.85    3.82   0
   3  -1   9   37.51    1.40   0
   4  -1   9   13.40    1.29   0
   5  -1   9    0.65    1.39   0
   6  -1   9  836.94    3.18   0
  -6   0   9  235.81    2.21   0
  -5   0   9    2.07    1.51   0
  -4   0   9  922.53    3.97   0
  -3   0   9    6.15    1.60   0
  -2   0   9  806.13    3.36   0
  -1   0   9    6.00    1.46   0
   0   0   9 1071.60    3.54   0
   1   0   9  388.72    2.31   0
   2   0   9  249.55    1.96   0
   3   0   9  198.33    1.86   0
   4   0   9  264.42    1.95   0
   5   0   9   37.67    1.48   0
   6   0   9   10.67    1.47   0
  -6   1   9   -2.37    1.61   0
  -5   1   9  310.36    2.29   0
  -4   1   9 1292.13    4.31   0
  -3   1   9  209.32    2.22   0
  -2   1   9  101.00    1.81   0
  -1   1   9 2421.74    5.19   0
   0   1   9 5536.92    7.56   0
   1   1   9   73.70    1.69   0
   2   1   9   25.19    1.40   0
   3   1   9  582.96    2.54   0
   4   1   9 1547.35    3.87   0
   5   1   9    4.07    1.40   0
  -5   2   9  158.34    2.02   0
  -4   2   9  315.44    2.53   0
  -3   2   9  123.50    2.01   0
  -2   2   9  689.09    3.15   0
  -1   2   9  561.78    2.74   0
   0   2   9  700.29    2.94   0
   1   2   9 1875.93    4.38   0
   2   2   9  192.85    1.88   0
   3   2   9  390.15    2.30   0
   4   2   9   19.40    1.37   0
   5   2   9  410.66    2.43   0
  -5   3   9   28.58    1.66   0
  -4   3   9  432.22    2.78   0
  -3   3   9    4.98    1.49   0
  -2   3   9  134.20    1.96   0
  -1   3   9 1250.36    3.90   0
   0   3   9 2970.19    5.64   0
   1   3   9  429.71    2.39   0
   2   3   9   45.56    1.58   0
   3   3   9    3.45    1.30   0
   4   3   9 1986.35    4.45   0
   5   3   9  672.43    2.88   0
  -5   4   9  138.60    2.05   0
  -4   4   9  551.14    3.09   0
  -3   4   9   11.23    1.59   0
  -2   4   9   31.95    1.53   0
  -1   4   9  157.88    1.95   0
   0   4   9   22.30    1.43   0
   1   4   9 1872.74    4.58   0
   2   4   9  209.06    1.98   0
   3   4   9 1608.12    4.08   0
   4   4   9   54.52    1.55   0
  -4   5   9   98.84    2.12   0
  -3   5   9  983.04    4.02   0
  -2   5   9  969.81    3.84   0
  -1   5   9   16.08    1.61   0
   0   5   9  333.96    2.44   0
   1   5   9  365.21    2.37   0
   2   5   9   71.20    1.55   0
   3   5   9  125.20    1.75   0
   4   5   9 1598.84    4.20   0
  -3   6   9   41.66    1.82   0
  -2   6   9  302.74    2.57   0
  -1   6   9   55.80    1.76   0
   0   6   9  138.70    1.98   0
   1   6   9    1.52    1.39   0
   2   6   9   75.53    1.73   0
   3   6   9    3.49    1.42   0
  -2   7   9  838.45    4.06   0
  -1   7   9    0.80    1.66   0
   0   7   9    3.62    1.61   0
   1   7   9  387.44    2.66   0
   2   7   9  605.06    2.98   0
  -1  -9  10  326.43    2.85   0
   0  -9  10   26.38    1.79   0
   1  -9  10   57.82    2.03   0
  -3  -8  10  146.92    2.14   0
  -2  -8  10   77.53    1.93   0
  -1  -8  10  161.16    2.08   0
   0  -8  10   36.45    1.71   0
   1  -8  10   72.91    1.84   0
   2  -8  10  285.07    2.61   0
   3  -8  10   20.16    1.66   0
  -4  -7  10  104.05    1.94   0
  -3  -7  10  233.51    2.25   0
  -2  -7  10  390.27    2.63   0
  -1  -7  10  257.54    2.33   0
   0  -7  10  198.63    2.11   0
   1  -7  10   22.73    1.52   0
   2  -7  10  924.27    3.66   0
   3  -7  10 1273.36    4.28   0
   4  -7  10    6.25    1.58   0
  -4  -6  10  164.64    2.16   0
  -3  -6  10   23.64    1.67   0
  -2  -6  10    0.12    1.51   0
  -1  -6  10  125.15    1.84   0
   0  -6  10  194.29    2.00   0
   1  -6  10  692.55    3.09   0
   2  -6  10  139.42    1.81   0
   3  -6  10  196.29    2.07   0
   4  -6  10  227.81    2.21   0
  -5  -5  10  580.59    2.91   0
  -4  -5  10  345.32    2.57   0
  -3  -5  10    4.12    1.58   0
  -2  -5  10   45.97    1.55   0
  -1  -5  10  423.82    2.54   0
   0  -5  10  111.86    1.75   0
   1  -5  10  166.04    1.86   0
   2  -5  10  125.14    1.75   0
   3  -5  10 1044.78    3.60   0
   4  -5  10   71.65    1.67   0
   5  -5  10  169.10    2.02   0
  -5  -4  10 1005.64    3.54   0
  -4  -4  10  295.83    2.42   0
  -3  -4  10  294.38    2.33   0
  -2  -4  10    1.81    1.44   0
  -1  -4  10  875.14    3.30   0
   0  -4  10  435.46    2.49   0
   1  -4  10  172.46    1.93   0
   2  -4  10   45.10    1.49   0
   3  -4  10  327.28    2.20   0
   4  -4  10   50.66    1.48   0
   5  -4  10    9.32    1.43   0
  -5  -3  10    3.51    1.52   0
  -4  -3  10  596.65    3.07   0
  -3  -3  10  873.26    3.40   0
  -2  -3  10  672.39    2.86   0
  -1  -3  10  664.14    2.91   0
   0  -3  10  723.64    3.03   0
   1  -3  10 3398.73    5.75   0
   2  -3  10   26.86    1.40   0
   3  -3  10   25.52    1.37   0
   4  -3  10  121.26    1.64   0
   5  -3  10  167.99    1.87   0
  -5  -2  10  532.26    2.68   0
  -4  -2  10   20.52    1.73   0
  -3  -2  10   94.46    1.85   0
  -2  -2  10  189.38    1.92   0
  -1  -2  10 1010.47    3.38   0
   0  -2  10  768.13    2.96   0
   1  -2  10   28.29    1.42   0
   2  -2  10  228.51    1.93   0
   3  -2  10   80.99    1.57   0
   4  -2  10  471.87    2.38   0
   5  -2  10  524.04    2.52   0
  -5  -1  10   38.62    1.63   0
  -4  -1  10    4.21    1.76   0
  -3  -1  10    6.02    1.48   0
  -2  -1  10  276.41    2.20   0
  -1  -1  10    1.10    1.30   0
   0  -1  10  738.29    2.91   0
   1  -1  10 1891.77    4.30   0
   2  -1  10  344.84    2.14   0
   3  -1  10  357.99    2.15   0
   4  -1  10   85.06    1.54   0
   5  -1  10  959.84    3.17   0
  -5   0  10   37.23    1.67   0
  -4   0  10  434.64    3.09   0
  -3   0  10  322.56    2.57   0
  -2   0  10    0.04    1.39   0
  -1   0  10  440.65    2.50   0
   0   0  10 1668.12    4.18   0
   1   0  10  234.28    1.97   0
   2   0  10 1132.54    3.35   0
   3   0  10 1412.82    3.78   0
   4   0  10 3125.40    5.24   0
   5   0  10  130.06    1.70   0
  -5   1  10   72.33    1.75   0
  -4   1  10  444.94    2.99   0
  -3   1  10  154.52    2.01   0
  -2   1  10   60.67    1.56   0
  -1   1  10   76.78    1.60   0
   0   1  10   60.26    1.61   0
   1   1  10  860.78    3.04   0
   2   1  10   20.08    1.30   0
   3   1  10  161.41    1.73   0
   4   1  10    2.53    1.30   0
   5   1  10 1041.08    3.47   0
  -5   2  10   85.83    1.85   0
  -4   2  10  295.80    2.54   0
  -3   2  10 1775.10    4.86   0
  -2   2  10  145.11    1.92   0
  -1   2  10   72.59    1.60   0
   0   2  10  243.21    2.02   0
   1   2  10  503.74    2.50   0
   2   2  10   16.00    1.36   0
   3   2  10   97.37    1.57   0
   4   2  10  719.29    2.88   0
   5   2  10  955.51    3.33   0
  -5   3  10   77.41    1.84   0
  -4   3  10  389.26    2.62   0
  -3   3  10  584.27    3.15   0
  -2   3  10  156.54    1.97   0
  -1   3  10 1079.22    3.84   0
   0   3  10  269.16    2.08   0
   1   3  10  597.22    2.83   0
   2   3  10   41.35    1.44   0
   3   3  10  355.79    2.22   0
   4   3  10   36.35    1.43   0
  -4   4  10  101.72    2.07   0
  -3   4  10  886.11    3.71   0
  -2   4  10  553.43    3.04   0
  -1   4  10   48.16    1.61   0
   0   4  10  175.68    1.95   0
   1   4  10  462.93    2.56   0
   2   4  10 1442.70    4.04   0
   3   4  10  569.91    2.64   0
   4   4  10    2.08    1.37   0
  -3   5  10   10.69    1.77   0
  -2   5  10  110.23    1.96   0
  -1   5  10   62.70    1.67   0
   0   5  10  958.76    3.52   0
   1   5  10   43.39    1.58   0
   2   5  10   30.44    1.47   0
   3   5  10  318.12    2.33   0
  -2   6  10  391.12    2.76   0
  -1   6  10  182.63    2.12   0
   0   6  10   47.94    1.65   0
   1   6  10  222.16    2.17   0
   2   6  10 1481.06    4.28   0
   0   7  10    5.04    1.69   0
  -2  -8  11  217.71    2.24   0
  -1  -8  11   19.41    1.68   0
   0  -8  11  589.08    3.24   0
   1  -8  11  421.02    2.77   0
   2  -8  11  183.05    2.21   0
  -3  -7  11   26.84    1.65   0
  -2  -7  11   43.02    1.62   0
  -1  -7  11 1927.36    4.89   0
   0  -7  11  577.37    2.96   0
   1  -7  11   21.73    1.63   0
   2  -7  11  118.84    1.99   0
   3  -7  11   12.94    1.58   0
  -4  -6  11  100.46    1.96   0
  -3  -6  11    1.78    1.47   0
  -2  -6  11   50.17    1.66   0
  -1  -6  11  186.74    2.02   0
   0  -6  11 1151.43    3.74   0
   1  -6  11  372.13    2.47   0
   2  -6  11   23.33    1.48   0
   3  -6  11    1.88    1.39   0
   4  -6  11   69.94    1.70   0
  -4  -5  11  302.10    2.52   0
  -3  -5  11  311.55    2.37   0
  -2  -5  11   57.67    1.67   0
  -1  -5  11 1577.55    4.27   0
   0  -5  11  712.94    2.95   0
   1  -5  11   64.80    1.58   0
   2  -5  11  306.70    2.18   0
   3  -5  11  313.88    2.31   0
   4  -5  11  487.45    2.70   0
  -5  -4  11    4.23    1.50   0
  -4  -4  11    5.20    1.51   0
  -3  -4  11   94.82    1.84   0
  -2  -4  11    6.79    1.42   0
  -1  -4  11   28.44    1.58   0
   0  -4  11 1134.60    3.58   0
   1  -4  11  754.26    3.02   0
   2  -4  11   19.67    1.36   0
   3  -4  11  153.18    1.79   0
   4  -4  11  291.63    2.11   0
   5  -4  11 1032.66    3.50   0
  -5  -3  11    0.76    1.51   0
  -4  -3  11  357.13    2.62   0
  -3  -3  11 1203.57    3.79   0
  -2  -3  11  434.70    2.47   0
  -1  -3  11 1008.79    3.32   0
   0  -3  11  142.30    1.84   0
   1  -3  11   28.65    1.46   0
   2  -3  11   12.11    1.35   0
   3  -3  11  159.40    1.74   0
   4  -3  11  507.81    2.58   0
   5  -3  11  144.08    1.80   0
  -5  -2  11   -1.06    1.58   0
  -4  -2  11  230.85    2.41   0
  -3  -2  11    8.85    1.48   0
  -2  -2  11  759.79    3.08   0
  -1  -2  11  455.40    2.39   0
   0  -2  11  154.60    1.70   0
   1  -2  11    9.44    1.28   0
   2  -2  11   28.93    1.42   0
   3  -2  11   24.97    1.33   0
   4  -2  11  150.23    1.75   0
   5  -2  11 1104.09    3.49   0
  -5  -1  11  153.57    2.01   0
  -4  -1  11   91.19    1.89   0
  -3  -1  11 1895.55    4.77   0
  -2  -1  11 1293.43    3.81   0
  -1  -1  11   51.60    1.70   0
   0  -1  11  219.77    1.91   0
   1  -1  11  845.39    3.08   0
   2  -1  11 1007.60    3.19   0
   3  -1  11  128.41    1.62   0
   4  -1  11   35.61    1.43   0
   5  -1  11   27.54    1.50   0
  -5   0  11   19.81    1.61   0
  -4   0  11   27.17    1.64   0
  -3   0  11  220.64    2.15   0
  -2   0  11  832.47    3.29   0
  -1   0  11   35.33    1.52   0
   0   0  11   90.63    1.55   0
   1   0  11   76.59    1.57   0
   2   0  11  562.01    2.58   0
   3   0  11  347.42    2.12   0
   4   0  11   23.31    1.42   0
   5   0  11   14.51    1.39   0
  -5   1  11  270.07    2.31   0
  -4   1  11  230.05    2.17   0
  -3   1  11 1046.44    3.79   0
  -2   1  11  369.16    2.41   0
  -1   1  11  137.59    1.81   0
   0   1  11   10.14    1.68   0
   1   1  11 1036.89    3.29   0
   2   1  11  868.05    3.02   0
   3   1  11   52.53    1.43   0
   4   1  11   49.10    1.45   0
   5   1  11   44.66    1.51   0
  -4   2  11  212.39    2.11   0
  -3   2  11   50.21    1.67   0
  -2   2  11   22.25    1.54   0
  -1   2  11  774.90    3.12   0
   0   2  11   25.40    1.50   0
   1   2  11 1609.60    4.01   0
   2   2  11   94.04    1.59   0
   3   2  11 1755.82    4.13   0
   4   2  11   80.14    1.58   0
  -4   3  11  293.68    2.36   0
  -3   3  11   13.19    1.64   0
  -2   3  11   98.68    1.86   0
  -1   3  11  745.04    3.17   0
   0   3  11   91.89    1.61   0
   1   3  11  505.66    2.58   0
   2   3  11  981.32    3.25   0
   3   3  11  101.61    1.64   0
   4   3  11  195.20    1.94   0
  -3   4  11    1.11    1.63   0
  -2   4  11  330.45    2.44   0
  -1   4  11   73.98    1.65   0
   0   4  11  156.22    1.93   0
   1   4  11    6.88    1.38   0
   2   4  11   79.71    1.62   0
   3   4  11   17.84    1.47   0
  -3   5  11    2.55    1.65   0
  -2   5  11   89.87    1.94   0
  -1   5  11 1447.21    4.43   0
   0   5  11  551.48    2.82   0
   1   5  11   31.71    1.53   0
   2   5  11   43.06    1.64   0
   3   5  11  182.74    1.94   0
  -1   6  11  228.49    2.42   0
   0   6  11  397.22    2.77   0
   1   6  11  162.12    2.13   0
  -1  -8  12  136.43    2.08   0
   0  -8  12    8.16    1.61   0
   1  -8  12   58.52    1.85   0
  -2  -7  12  449.42    2.78   0
  -1  -7  12  180.15    2.03   0
   0  -7  12  237.59    2.13   0
   1  -7  12  124.11    1.83   0
   2  -7  12    1.51    1.48   0
  -3  -6  12  602.58    3.01   0
  -2  -6  12  152.91    1.94   0
  -1  -6  12  205.40    2.14   0
   0  -6  12   24.25    1.58   0
   1  -6  12  397.87    2.46   0
   2  -6  12  105.36    1.77   0
   3  -6  12  175.93    2.08   0
  -4  -5  12   34.84    1.72   0
  -3  -5  12   23.09    1.49   0
  -2  -5  12 1271.96    3.95   0
  -1  -5  12  730.44    3.07   0
   0  -5  12   85.76    1.68   0
   1  -5  12   91.14    1.69   0
   2  -5  12  612.39    2.85   0
   3  -5  12  399.26    2.49   0
   4  -5  12  232.15    2.08   0
  -4  -4  12   90.79    1.87   0
  -3  -4  12  245.49    2.17   0
  -2  -4  12  240.34    2.11   0
  -1  -4  12   10.86    1.45   0
   0  -4  12   29.27    1.50   0
   1  -4  12  419.54    2.37   0
   2  -4  12  829.31    3.05   0
   3  -4  12  311.08    2.14   0
   4  -4  12   39.97    1.55   0
  -4  -3  12  127.28    2.03   0
  -3  -3  12    0.36    1.48   0
  -2  -3  12  310.50    2.14   0
  -1  -3  12  349.11    2.27   0
   0  -3  12    3.71    1.36   0
   1  -3  12   84.40    1.58   0
   2  -3  12  360.90    2.17   0
   3  -3  12  787.84    3.06   0
   4  -3  12  554.64    2.72   0
  -4  -2  12  103.03    1.77   0
  -3  -2  12    2.12    1.44   0
  -2  -2  12  241.50    2.06   0
  -1  -2  12   11.76    1.40   0
   0  -2  12   64.67    1.54   0
   1  -2  12 1681.62    4.03   0
   2  -2  12 2000.47    4.31   0
   3  -2  12    3.69    1.29   0
   4  -2  12  161.40    1.72   0
  -4  -1  12  382.75    2.38   0
  -3  -1  12    6.57    1.48   0
  -2  -1  12    0.87    1.36   0
  -1  -1  12    5.10    1.36   0
   0  -1  12    9.44    1.42   0
   1  -1  12   95.36    1.58   0
   2  -1  12  962.69    3.10   0
   3  -1  12  605.11    2.59   0
   4  -1  12   92.57    1.60   0
  -4   0  12    9.33    1.54   0
  -3   0  12  198.44    2.09   0
  -2   0  12  657.13    2.95   0
  -1   0  12  907.80    3.33   0
   0   0  12  365.92    2.29   0
   1   0  12   98.70    1.90   0
   2   0  12  719.55    2.78   0
   3   0  12  337.15    2.19   0
   4   0  12    1.99    1.37   0
  -4   1  12  157.45    2.05   0
  -3   1  12   72.19    1.81   0
  -2   1  12  196.22    2.06   0
  -1   1  12  140.21    1.75   0
   0   1  12  572.37    2.64   0
   1   1  12  596.82    2.61   0
   2   1  12   23.66    1.41   0
   3   1  12   44.33    1.58   0
   4   1  12  350.31    2.24   0
  -4   2  12  156.72    2.05   0
  -3   2  12   28.40    1.63   0
  -2   2  12   62.76    1.66   0
  -1   2  12  789.48    3.10   0
   0   2  12 1712.92    4.21   0
   1   2  12   85.62    1.59   0
   2   2  12    0.92    1.32   0
   3   2  12  161.66    1.81   0
   4   2  12  483.01    2.56   0
  -3   3  12  289.47    2.57   0
  -2   3  12  255.30    2.36   0
  -1   3  12   72.10    1.66   0
   0   3  12  561.94    2.70   0
   1   3  12  214.68    1.97   0
   2   3  12   16.84    1.40   0
   3   3  12    6.75    1.38   0
  -3   4  12  225.34    2.35   0
  -2   4  12  402.48    2.84   0
  -1   4  12  393.79    2.57   0
   0   4  12  801.74    3.24   0
   1   4  12   -0.85    1.43   0
   2   4  12   47.74    1.57   0
   3   4  12  387.75    2.46   0
  -1   5  12   12.81    1.57   0
   0   5  12   18.55    1.52   0
   1   5  12  233.87    2.25   0
  -1  -7  13  133.17    1.99   0
   0  -7  13   43.58    1.69   0
   1  -7  13  211.84    2.21   0
  -2  -6  13   99.51    1.81   0
  -1  -6  13  171.23    1.95   0
   0  -6  13   12.44    1.44   0
   1  -6  13   24.89    1.48   0
   2  -6  13  600.28    2.93   0
  -3  -5  13   13.37    1.55   0
  -2  -5  13  173.79    1.96   0
  -1  -5  13  113.25    1.82   0
   0  -5  13   13.93    1.54   0
   1  -5  13   -0.84    1.40   0
   2  -5  13  214.44    1.99   0
   3  -5  13    2.79    1.44   0
  -3  -4  13   85.34    1.78   0
  -2  -4  13  229.77    2.09   0
  -1  -4  13   50.23    1.53   0
   0  -4  13  414.93    2.39   0
   1  -4  13  137.15    1.73   0
   2  -4  13    3.65    1.46   0
   3  -4  13  706.40    2.96   0
  -4  -3  13  545.45    2.80   0
  -3  -3  13   88.01    1.75   0
  -2  -3  13  130.47    1.85   0
  -1  -3  13  628.98    2.74   0
   0  -3  13 1126.46    3.42   0
   1  -3  13   20.31    1.37   0
   2  -3  13   66.64    1.52   0
   3  -3  13    4.96    1.41   0
   4  -3  13   17.94    1.52   0
  -4  -2  13   72.77    1.74   0
  -3  -2  13    3.63    1.47   0
  -2  -2  13  186.52    1.93   0
  -1  -2  13   19.71    1.41   0
   0  -2  13  394.66    2.29   0
   1  -2  13  619.59    2.65   0
   2  -2  13    3.90    1.33   0
   3  -2  13   12.47    1.37   0
   4  -2  13    3.91    1.44   0
  -4  -1  13   57.16    1.73   0
  -3  -1  13   86.92    1.74   0
  -2  -1  13  354.22    2.48   0
  -1  -1  13  552.15    2.58   0
   0  -1  13   81.01    1.56   0
   1  -1  13  113.38    1.68   0
   2  -1  13   14.27    1.51   0
   3  -1  13  193.25    1.86   0
   4  -1  13  249.51    2.10   0
  -4   0  13  156.34    2.00   0
  -3   0  13  195.84    2.11   0
  -2   0  13   15.49    1.49   0
  -1   0  13   58.50    1.60   0
   0   0  13  113.44    1.68   0
   1   0  13  867.55    3.01   0
   2   0  13  135.11    1.76   0
   3   0  13  207.14    1.90   0
   4   0  13  110.42    1.75   0
  -3   1  13  837.98    3.48   0
  -2   1  13  111.78    1.85   0
  -1   1  13   14.66    1.41   0
   0   1  13  197.35    1.88   0
   1   1  13   37.87    1.42   0
   2   1  13    3.78    1.36   0
   3   1  13  136.91    1.82   0
  -3   2  13    2.41    1.53   0
  -2   2  13  296.05    2.35   0
  -1   2  13  156.74    1.98   0
   0   2  13   86.07    1.78   0
   1   2  13    8.96    1.41   0
   2   2  13    3.90    1.38   0
   3   2  13   45.79    1.55   0
  -2   3  13  633.83    3.08   0
  -1   3  13   18.08    1.54   0
   0   3  13   88.14    1.68   0
   1   3  13  172.17    1.88   0
   2   3  13  454.37    2.51   0
  -1   4  13  137.62    2.16   0
   0   4  13  376.55    2.50   0
   1   4  13  325.56    2.38   0
  -1  -6  14  960.72    3.65   0
   0  -6  14  129.49    1.89   0
   1  -6  14    7.12    1.56   0
  -2  -5  14    5.42    1.62   0
  -1  -5  14    0.87    1.56   0
   0  -5  14  465.29    2.58   0
   1  -5  14  680.38    2.96   0
   2  -5  14   44.36    1.67   0
  -3  -4  14  329.65    2.48   0
  -2  -4  14   19.55    1.60   0
  -1  -4  14  605.29    2.79   0
   0  -4  14  582.72    2.69   0
   1  -4  14   19.54    1.46   0
   2  -4  14  293.85    2.18   0
   3  -4  14  149.92    1.88   0
  -3  -3  14   78.79    1.85   0
  -2  -3  14  278.60    2.18   0
  -1  -3  14  217.04    2.00   0
   0  -3  14  202.61    1.93   0
   1  -3  14  172.52    1.84   0
   2  -3  14   38.83    1.50   0
   3  -3  14   29.43    1.49   0
  -3  -2  14 1759.53    4.71   0
  -2  -2  14  151.35    1.90   0
  -1  -2  14    1.84    1.40   0
   0  -2  14   40.47    1.53   0
   1  -2  14  472.92    2.51   0
   2  -2  14    5.22    1.31   0
   3  -2  14   53.19    1.54   0
  -3  -1  14   10.73    1.58   0
  -2  -1  14 1286.96    3.93   0
  -1  -1  14  466.61    2.56   0
   0  -1  14  199.57    1.96   0
   1  -1  14   50.75    1.51   0
   2  -1  14  460.69    2.43   0
   3  -1  14   81.46    1.65   0
  -3   0  14 1161.38    3.97   0
  -2   0  14  356.67    2.42   0
  -1   0  14   17.27    1.46   0
   0   0  14   18.31    1.45   0
   1   0  14 1236.05    3.58   0
   2   0  14  566.32    2.67   0
   3   0  14    8.72    1.40   0
  -3   1  14   79.80    1.87   0
  -2   1  14  496.65    2.73   0
  -1   1  14   63.59    1.64   0
   0   1  14   52.93    1.54   0
   1   1  14   10.53    1.38   0
   2   1  14  298.28    2.18   0
  -2   2  14  304.27    2.59   0
  -1   2  14  107.48    1.87   0
   0   2  14   25.73    1.56   0
   1   2  14  681.48    2.93   0
   2   2  14  985.15    3.38   0
  -1   3  14    3.10    1.59   0
   0   3  14    5.83    1.48   0
   1   3  14   37.38    1.59   0
   0  -5  15    2.45    1.51   0
  -1  -4  15  106.01    1.86   0
   0  -4  15   33.23    1.53   0
   1  -4  15    7.81    1.49   0
  -2  -3  15   23.63    1.60   0
  -1  -3  15  125.62    1.80   0
   0  -3  15   63.94    1.60   0
   1  -3  15  550.71    2.67   0
   2  -3  15  498.00    2.59   0
  -2  -2  15  239.96    2.22   0
  -1  -2  15  160.79    1.92   0
   0  -2  15   89.23    1.74   0
   1  -2  15   68.63    1.66   0
   2  -2  15  981.72    3.39   0
  -2  -1  15  175.35    2.04   0
  -1  -1  15   82.64    1.68   0
   0  -1  15  142.45    1.87   0
   1  -1  15  382.18    2.36   0
   2  -1  15  565.66    2.76   0
  -2   0  15  266.35    2.30   0
  -1   0  15    9.78    1.46   0
   0   0  15  556.28    2.74   0
   1   0  15  104.29    1.71   0
   2   0  15   19.70    1.43   0
  -1   1  15  923.42    3.44   0
   0   1  15  847.46    3.25   0
   1   1  15    5.92    1.49   0
;
_shelx_hkl_checksum              1695
_shelx_res_file
;
TITL
CELL  0.71073  5.48860  7.85180 11.57440 99.66300 90.36600 90.24400
ZERR 2  0.00110  0.00150  0.00230  0.01600  0.01600  0.01600
LATT 1
SFAC Ca Cl O  H
UNIT 2  4  24  16
L.S. 50
ACTA
BOND
FMAP 2
PLAN 1
HTAB O8 O4_$6
EQIV $6 -x+1, -y+1, -z+2
HTAB O1 O11_$5
EQIV $5 -x, -y, -z+1
HTAB O8 O2_$4
EQIV $4 x-1, y, z
HTAB O7 O12_$3
HTAB O7 O4
HTAB O7 O1_$3
HTAB O2 O11_$3
EQIV $3 x+1, y, z
HTAB O1 O3_$2
EQIV $2 x, y+1, z
HTAB O2 O4_$1
EQIV $1 x, y-1, z
HTAB
DFIX O1 H1A 0.82 0.01
DFIX O1 H1B 0.82 0.01
DFIX H1A H1B 1.32 0.01
DFIX O2 H2A 0.82 0.01
DFIX O2 H2B 0.82 0.01
DFIX H2A H2B 1.32 0.01
DFIX O7 H7A 0.82 0.01
DFIX O7 H7B 0.82 0.01
DFIX H7A H7B 1.32 0.01
DFIX O8 H8A 0.82 0.01
DFIX O8 H8B 0.82 0.01
DFIX H8A H8B 1.32 0.01
WGHT    0.042700    0.695200
FVAR       1.30159
MOLE 1
CA1   1    0.510817    0.236666    0.755822    11.00000    0.00953    0.00980 =
         0.01102    0.00046   -0.00070   -0.00055
CL1   2    0.240985   -0.164333    0.557121    11.00000    0.00864    0.01026 =
         0.00859   -0.00050   -0.00038   -0.00147
CL2   2    0.323584    0.675612    0.920623    11.00000    0.01361    0.00949 =
         0.01023   -0.00092   -0.00324    0.00073
O2    3    0.750429   -0.012957    0.767294    11.00000    0.01612    0.01343 =
         0.01206    0.00179    0.00108    0.00147
O1    3    0.260192    0.386064    0.633104    11.00000    0.01490    0.01308 =
         0.01293    0.00064   -0.00237   -0.00141
O3    3    0.429698   -0.274151    0.589131    11.00000    0.01510    0.01902 =
         0.02262    0.00619   -0.00264    0.00418
O4    3    0.561555    0.740039    0.895545    11.00000    0.02183    0.01989 =
         0.02195    0.00385    0.00422   -0.00583
O10   3    0.262476   -0.148710    0.435541    11.00000    0.02095    0.02360 =
         0.00943    0.00400    0.00310    0.00305
O11   3    0.004794   -0.236705    0.576113    11.00000    0.01190    0.02092 =
         0.01720    0.00129    0.00074   -0.00790
O9    3    0.259442    0.004667    0.627523    11.00000    0.01775    0.01330 =
         0.02010   -0.00724   -0.00286   -0.00317
O5    3    0.274587    0.726550    1.043508    11.00000    0.01847    0.02672 =
         0.01284   -0.00710    0.00154    0.00247
O8    3    0.215631    0.131857    0.869751    11.00000    0.01926    0.01991 =
         0.01880   -0.00555    0.00437   -0.00920
O7    3    0.793794    0.454480    0.741337    11.00000    0.01679    0.01749 =
         0.02506   -0.00619    0.00627   -0.00642
O6    3    0.322369    0.489665    0.891872    11.00000    0.02257    0.00845 =
         0.02031   -0.00288    0.00076    0.00123
O12   3    0.139924    0.743383    0.853439    11.00000    0.03142    0.02134 =
         0.03473    0.00650   -0.02162    0.00288
H2B   4    0.683495   -0.077795    0.805789    11.00000    0.03280
H1A   4    0.316866    0.477130    0.618232    11.00000    0.02509
H2A   4    0.787714   -0.071966    0.704457    11.00000    0.03137
H7A   4    0.931047    0.443783    0.714343    11.00000    0.03265
H7B   4    0.791784    0.540906    0.790972    11.00000    0.04040
H8B   4    0.086952    0.082868    0.848050    11.00000    0.07679
H1B   4    0.219444    0.327737    0.570509    11.00000    0.02617
H8A   4    0.196330    0.179319    0.937981    11.00000    0.05751
HKLF 4
REM
REM R1 =  0.0312 for    2529 Fo > 4sig(Fo)  and  0.0323 for all    2636 data
REM    168 parameters refined using     12 restraints
END
WGHT      0.0455      0.7623
REM Instructions for potential hydrogen bonds
HTAB O2 O4_$1
HTAB O1 O3_$2
HTAB O2 O11_$3
HTAB O7 O1_$3
HTAB O7 O4
HTAB O7 O12_$3
HTAB O8 O2_$4
HTAB O1 O11_$5
HTAB O8 O4_$6
REM Highest difference peak  0.359,  deepest hole -0.749,  1-sigma level  0.102
Q1    1   0.2786  0.7100  0.9822  11.00000  0.05    0.36
;
_shelx_res_checksum              18846
_shelxl_version_number           .000002012
#END Tags that were not found in dictionaries
loop_
_space_group_symop_operation_xyz
'x, y, z'
'-x, -y, -z'
loop_
_atom_site_type_symbol
_atom_site_label
_atom_site_fract_x
_atom_site_fract_y
_atom_site_fract_z
_atom_site_U_iso_or_equiv
_atom_site_adp_type
_atom_site_calc_flag
_atom_site_occupancy
Ca Ca1 0.51082(7) 0.23667(5) 0.75582(3) 0.01027(10) Uani d 1
Cl Cl1 0.24098(7) -0.16433(5) 0.55712(4) 0.00941(11) Uani d 1
Cl Cl2 0.32358(8) 0.67561(5) 0.92062(4) 0.01142(11) Uani d 1
O O2 0.7504(3) -0.01296(18) 0.76729(13) 0.0139(3) Uani d 1
O O1 0.2602(3) 0.38606(19) 0.63310(12) 0.0138(3) Uani d 1
O O3 0.4297(3) -0.2742(2) 0.58913(14) 0.0186(3) Uani d 1
O O4 0.5616(3) 0.7400(2) 0.89554(15) 0.0212(3) Uani d 1
O O10 0.2625(3) -0.1487(2) 0.43554(13) 0.0178(3) Uani d 1
O O11 0.0048(3) -0.2367(2) 0.57611(13) 0.0169(3) Uani d 1
O O9 0.2594(3) 0.00467(19) 0.62752(14) 0.0182(3) Uani d 1
O O5 0.2746(3) 0.7265(2) 1.04351(13) 0.0205(3) Uani d 1
O O8 0.2156(3) 0.1319(2) 0.86975(14) 0.0203(3) Uani d 1
O O7 0.7938(3) 0.4545(2) 0.74134(15) 0.0209(3) Uani d 1
O O6 0.3224(3) 0.48966(18) 0.89187(14) 0.0177(3) Uani d 1
O O12 0.1399(3) 0.7434(2) 0.85344(17) 0.0290(4) Uani d 1
H H2B 0.683(6) -0.078(3) 0.806(2) 0.033(9) Uiso d 1
H H1A 0.317(6) 0.477(2) 0.618(2) 0.025(8) Uiso d 1
H H2A 0.788(6) -0.072(3) 0.7045(15) 0.031(9) Uiso d 1
H H7A 0.931(3) 0.444(4) 0.714(3) 0.033(9) Uiso d 1
H H7B 0.792(6) 0.541(3) 0.791(2) 0.040(10) Uiso d 1
H H8B 0.087(5) 0.083(6) 0.848(3) 0.077(16) Uiso d 1
H H1B 0.219(6) 0.328(3) 0.5705(15) 0.026(8) Uiso d 1
H H8A 0.196(7) 0.179(5) 0.9380(15) 0.058(13) Uiso d 1
loop_
_atom_site_aniso_label
_atom_site_aniso_U_11
_atom_site_aniso_U_22
_atom_site_aniso_U_33
_atom_site_aniso_U_12
_atom_site_aniso_U_13
_atom_site_aniso_U_23
Ca1 0.00953(17) 0.00980(17) 0.01102(17) -0.00055(12) -0.00070(12) 0.00046(12)
Cl1 0.00864(19) 0.01026(19) 0.00859(19) -0.00147(14) -0.00038(13) -0.00050(14)
Cl2 0.0136(2) 0.00949(19) 0.0102(2) 0.00073(14) -0.00324(15) -0.00092(14)
O2 0.0161(7) 0.0134(6) 0.0121(6) 0.0015(5) 0.0011(5) 0.0018(5)
O1 0.0149(6) 0.0131(6) 0.0129(6) -0.0014(5) -0.0024(5) 0.0006(5)
O3 0.0151(7) 0.0190(7) 0.0226(8) 0.0042(6) -0.0026(6) 0.0062(6)
O4 0.0218(8) 0.0199(7) 0.0220(8) -0.0058(6) 0.0042(6) 0.0039(6)
O10 0.0210(7) 0.0236(7) 0.0094(6) 0.0030(6) 0.0031(5) 0.0040(5)
O11 0.0119(6) 0.0209(7) 0.0172(7) -0.0079(5) 0.0007(5) 0.0013(6)
O9 0.0177(7) 0.0133(7) 0.0201(7) -0.0032(5) -0.0029(5) -0.0072(5)
O5 0.0185(7) 0.0267(8) 0.0128(7) 0.0025(6) 0.0015(5) -0.0071(6)
O8 0.0193(7) 0.0199(7) 0.0188(7) -0.0092(6) 0.0044(6) -0.0055(6)
O7 0.0168(7) 0.0175(7) 0.0251(8) -0.0064(6) 0.0063(6) -0.0062(6)
O6 0.0226(7) 0.0085(6) 0.0203(7) 0.0012(5) 0.0008(6) -0.0029(5)
O12 0.0314(9) 0.0213(8) 0.0347(10) 0.0029(7) -0.0216(8) 0.0065(7)
loop_
_atom_type_symbol
_atom_type_description
_atom_type_scat_dispersion_real
_atom_type_scat_dispersion_imag
_atom_type_scat_source
Ca Ca 0.2262 0.3064 'International Tables Vol C Tables 4.2.6.8 and 6.1.1.4'
Cl Cl 0.1484 0.1585 'International Tables Vol C Tables 4.2.6.8 and 6.1.1.4'
O O 0.0106 0.0060 'International Tables Vol C Tables 4.2.6.8 and 6.1.1.4'
H H 0.0000 0.0000 'International Tables Vol C Tables 4.2.6.8 and 6.1.1.4'
loop_
_geom_angle_atom_site_label_1
_geom_angle_atom_site_label_2
_geom_angle_atom_site_label_3
_geom_angle_site_symmetry_1
_geom_angle_site_symmetry_3
_geom_angle
O8 Ca1 O7 . . 146.78(6)
O8 Ca1 O2 . . 89.06(6)
O7 Ca1 O2 . . 104.79(6)
O8 Ca1 O1 . . 100.92(6)
O7 Ca1 O1 . . 84.26(6)
O2 Ca1 O1 . . 146.29(5)
O8 Ca1 O10 . 2_656 140.33(6)
O7 Ca1 O10 . 2_656 72.75(6)
O2 Ca1 O10 . 2_656 70.60(5)
O1 Ca1 O10 . 2_656 81.78(5)
O8 Ca1 O9 . . 70.75(6)
O7 Ca1 O9 . . 140.80(6)
O2 Ca1 O9 . . 79.34(5)
O1 Ca1 O9 . . 73.95(5)
O10 Ca1 O9 2_656 . 72.18(5)
O8 Ca1 O6 . . 71.00(6)
O7 Ca1 O6 . . 79.25(6)
O2 Ca1 O6 . . 139.24(5)
O1 Ca1 O6 . . 73.94(5)
O10 Ca1 O6 2_656 . 144.46(5)
O9 Ca1 O6 . . 123.19(5)
O8 Ca1 O5 . 2_667 78.49(6)
O7 Ca1 O5 . 2_667 78.03(6)
O2 Ca1 O5 . 2_667 70.60(5)
O1 Ca1 O5 . 2_667 142.78(5)
O10 Ca1 O5 2_656 2_667 122.42(5)
O9 Ca1 O5 . 2_667 136.94(6)
O6 Ca1 O5 . 2_667 70.75(5)
O3 Cl1 O10 . . 110.02(9)
O3 Cl1 O9 . . 110.18(10)
O10 Cl1 O9 . . 109.06(10)
O3 Cl1 O11 . . 109.83(9)
O10 Cl1 O11 . . 109.13(9)
O9 Cl1 O11 . . 108.59(9)
O12 Cl2 O5 . . 109.54(11)
O12 Cl2 O6 . . 109.31(10)
O5 Cl2 O6 . . 109.33(10)
O12 Cl2 O4 . . 110.57(11)
O5 Cl2 O4 . . 108.97(10)
O6 Cl2 O4 . . 109.09(10)
Cl1 O10 Ca1 . 2_656 147.22(10)
Cl1 O9 Ca1 . . 150.03(10)
Cl2 O5 Ca1 . 2_667 140.90(10)
Cl2 O6 Ca1 . . 142.92(10)
loop_
_geom_bond_atom_site_label_1
_geom_bond_atom_site_label_2
_geom_bond_site_symmetry_2
_geom_bond_distance
Ca1 O8 . 2.3284(17)
Ca1 O7 . 2.3329(17)
Ca1 O2 . 2.3866(15)
Ca1 O1 . 2.4153(16)
Ca1 O10 2_656 2.5417(16)
Ca1 O9 . 2.5439(16)
Ca1 O6 . 2.5463(16)
Ca1 O5 2_667 2.5695(17)
Cl1 O3 . 1.4365(15)
Cl1 O10 . 1.4385(15)
Cl1 O9 . 1.4387(15)
Cl1 O11 . 1.4461(15)
Cl2 O12 . 1.4274(16)
Cl2 O5 . 1.4388(15)
Cl2 O6 . 1.4420(15)
Cl2 O4 . 1.4473(17)
O10 Ca1 2_656 2.5417(16)
O5 Ca1 2_667 2.5695(17)
loop_
_geom_hbond_atom_site_label_D
_geom_hbond_atom_site_label_H
_geom_hbond_atom_site_label_A
_geom_hbond_site_symmetry_A
_geom_hbond_distance_DH
_geom_hbond_distance_HA
_geom_hbond_distance_DA
_geom_hbond_angle_DHA
O1 H1B O11 2_556 0.819(10) 2.113(15) 2.888(2) 158(3)
O1 H1A O3 1_565 0.823(10) 2.127(10) 2.947(2) 174(3)
O2 H2A O11 1_655 0.822(10) 2.166(16) 2.947(2) 159(3)
O2 H2B O4 1_545 0.818(10) 2.018(11) 2.830(2) 172(3)
O7 H7B O4 . 0.812(10) 2.215(18) 2.924(2) 146(3)
O7 H7A O1 1_655 0.817(10) 2.059(10) 2.870(2) 172(3)
O8 H8A O4 2_667 0.822(10) 2.33(3) 2.986(2) 137(4)
O8 H8B O2 1_455 0.820(10) 2.140(13) 2.950(2) 169(5)
