#------------------------------------------------------------------------------
#$Date: 2016-02-21 11:56:54 +0200 (Sun, 21 Feb 2016) $
#$Revision: 176809 $
#$URL: svn://www.crystallography.net/cod/cif/2/24/03/2240324.cif $
#------------------------------------------------------------------------------
#
# This file is available in the Crystallography Open Database (COD),
# http://www.crystallography.net/. The original data for this entry
# were provided by IUCr Journals, http://journals.iucr.org/.
#
# The file may be used within the scientific community so long as
# proper attribution is given to the journal article from which the
# data were obtained.
#
data_2240324
loop_
_publ_author_name
'Gomes, Ligia R.'
'Low, John Nicolson'
'Cagide, Fernando'
'Borges, Fernanda'
_publ_section_title
;
 The crystal structures of four
 <i>N</i>-(4-halophenyl)-4-oxo-4<i>H</i>-chromene-3-carboxamides
;
_journal_coeditor_code           LH5743
_journal_issue                   1
_journal_name_full               'Acta Crystallographica Section E'
_journal_page_first              88
_journal_page_last               93
_journal_paper_doi               10.1107/S2056989014027054
_journal_volume                  71
_journal_year                    2015
_chemical_formula_iupac          'C16 H10 I N O3'
_chemical_formula_moiety         'C16 H10 I N O3'
_chemical_formula_sum            'C16 H10 I N O3'
_chemical_formula_weight         391.15
_chemical_name_systematic
;
<i>N</i>-(4-Iodophenyl)-4-oxo-4<i>H</i>-chromene-3-carboxamide
;
_space_group_crystal_system      triclinic
_space_group_IT_number           2
_space_group_name_Hall           '-P 1'
_space_group_name_H-M_alt        'P -1'
_symmetry_space_group_name_Hall  '-P 1'
_symmetry_space_group_name_H-M   'P -1'
_atom_sites_solution_hydrogens   mixed
_audit_creation_method           SHELXL-2013
_cell_angle_alpha                100.974(6)
_cell_angle_beta                 90.769(6)
_cell_angle_gamma                100.062(6)
_cell_formula_units_Z            2
_cell_length_a                   6.6750(5)
_cell_length_b                   9.4166(7)
_cell_length_c                   11.2673(8)
_cell_measurement_reflns_used    9236
_cell_measurement_temperature    120(2)
_cell_measurement_theta_max      27.5
_cell_measurement_theta_min      1.8
_cell_volume                     683.77(9)
_computing_cell_refinement
;
<i>CrystalClear-SM Expert</i> (Rigaku, 2012)
;
_computing_data_collection
;
<i>CrystalClear-SM Expert</i> (Rigaku, 2012)
;
_computing_data_reduction
;
<i>CrystalClear-SM Expert</i> (Rigaku, 2012)
;
_computing_molecular_graphics
;
Mercury (Macrae <i>et al.</i>,  2006)
;
_computing_publication_material
;
OSCAIL (McArdle <i>et al.</i>,  2004), SHELXL2014 (Sheldrick,
2008) and
PLATON (Spek, 2009)
;
_computing_structure_refinement
;
OSCAIL (McArdle <i>et al.</i>,  2004),
ShelXle (H\"ubschle <i>et al.</i>,  2011) and
SHELXL2014 (Sheldrick, 2008)
;
_computing_structure_solution
;
SHELXS97 (Sheldrick, 2008),
PLATON (Spek, 2009) and
Flipper 25 (Oszl\'anyi & S\"ut\>o, 2004)
;
_diffrn_ambient_temperature      120
_diffrn_detector_area_resol_mean 10.0000
_diffrn_measured_fraction_theta_full 0.991
_diffrn_measured_fraction_theta_max 0.985
_diffrn_measurement_device
;
Crystal Goniometer
;
_diffrn_measurement_device_type
;
Rigaku RAXIS conversion
;
_diffrn_measurement_method       'profile data from \w-scans'
_diffrn_radiation_monochromator  'Graphite Monochromator'
_diffrn_radiation_type           MoK\a
_diffrn_radiation_wavelength     0.71075
_diffrn_reflns_av_R_equivalents  0.0264
_diffrn_reflns_limit_h_max       8
_diffrn_reflns_limit_h_min       -7
_diffrn_reflns_limit_k_max       11
_diffrn_reflns_limit_k_min       -12
_diffrn_reflns_limit_l_max       14
_diffrn_reflns_limit_l_min       -14
_diffrn_reflns_number            10032
_diffrn_reflns_theta_full        25.000
_diffrn_reflns_theta_max         27.479
_diffrn_reflns_theta_min         2.240
_exptl_absorpt_coefficient_mu    2.351
_exptl_absorpt_correction_T_max  0.892
_exptl_absorpt_correction_T_min  0.411
_exptl_absorpt_correction_type   multi-scan
_exptl_absorpt_process_details
;
(<i>CrystalClear-SM Expert</i>; Rigaku, 20112)
;
_exptl_crystal_colour            colourless
_exptl_crystal_density_diffrn    1.900
_exptl_crystal_description       plate
_exptl_crystal_F_000             380
_exptl_crystal_size_max          0.460
_exptl_crystal_size_mid          0.220
_exptl_crystal_size_min          0.050
_refine_diff_density_max         0.670
_refine_diff_density_min         -0.320
_refine_ls_extinction_method     none
_refine_ls_goodness_of_fit_ref   1.026
_refine_ls_hydrogen_treatment    mixed
_refine_ls_matrix_type           full
_refine_ls_number_parameters     194
_refine_ls_number_reflns         3095
_refine_ls_number_restraints     0
_refine_ls_restrained_S_all      1.026
_refine_ls_R_factor_all          0.0200
_refine_ls_R_factor_gt           0.0177
_refine_ls_shift/su_max          0.002
_refine_ls_shift/su_mean         0.000
_refine_ls_structure_factor_coef Fsqd
_refine_ls_weighting_details
'w=1/[\s^2^(Fo^2^)+(0.0260P)^2^] where P=(Fo^2^+2Fc^2^)/3'
_refine_ls_weighting_scheme      calc
_refine_ls_wR_factor_gt          0.0432
_refine_ls_wR_factor_ref         0.0435
_reflns_number_gt                2819
_reflns_number_total             3095
_reflns_threshold_expression     I>2\s(I)
_cod_data_source_file            lh5743sup1.cif
_cod_data_source_block           4
_cod_database_code               2240324
_cod_database_fobs_code          2240324
#BEGIN Tags that were not found in dictionaries:
_shelx_space_group_comment
;
The symmetry employed for this shelxl refinement is uniquely defined
by the following loop, which should always be used as a source of
symmetry information in preference to the above space-group names.
They are only intended as comments.
;
_shelx_estimated_absorpt_t_min   0.411
_shelx_estimated_absorpt_t_max   0.892
_shelx_hkl_file
;
   0   0   1   -0.00    0.10   1-0.23271-0.23952-0.27321-0.21085 0.93338 0.94771
   0   0  -1   -0.00    0.09   1-0.23649-0.22968-0.21071-0.27306 0.94851 0.93417
   0   0  -1    0.00    0.14   1-0.80614-0.79944 0.08425 0.02197-0.58569-0.60034
   0   0   1   -0.01    0.13   1-0.80888-0.81558 0.01798 0.08025-0.58769-0.57304
   0   0  -2   36.38    0.96   1-0.23801-0.22440-0.17908-0.30378 0.95460 0.92593
   0   0   2   37.13    0.93   1-0.23046-0.24407-0.30408-0.17937 0.92434 0.95302
   0   0   2   31.82    0.99   1-0.80892-0.82232-0.01523 0.10931-0.58771-0.55842
   0   0  -2   32.06    0.93   1-0.80343-0.79003 0.11729-0.00724-0.58372-0.61302
   0   0  -3   89.67    1.34   1-0.23928-0.21887-0.14720-0.33426 0.95972 0.91671
   0   0   3   93.08    1.43   1-0.22796-0.24838-0.33470-0.14764 0.91433 0.95734
   0   0   3   85.06    1.44   1-0.80806-0.82816-0.04850 0.13831-0.58709-0.54314
   0   0  -3   86.90    1.45   1-0.79982-0.77972 0.15029-0.03652-0.58110-0.62505
   0   0  -4   27.88    0.78   1-0.24031-0.21310-0.11506-0.36447 0.96385 0.90649
   0   0   4   28.22    0.79   1-0.22522-0.25243-0.36507-0.11565 0.90332 0.96067
   0   0   4   27.75    0.88   1-0.80630-0.83310-0.08183 0.16725-0.58581-0.52721
   0   0  -4   29.31    0.91   1-0.79532-0.76851 0.18322-0.06586-0.57783-0.63642
   0   0  -5  101.26    1.54   1-0.24109-0.20707-0.08267-0.39444 0.96697 0.89528
   0   0   5  103.03    1.44   1-0.22223-0.25624-0.39518-0.08341 0.89131 0.96300
   0   0   5  103.73    1.55   1-0.80362-0.83713-0.11522 0.19613-0.58386-0.51062
   0   0  -5  104.96    1.57   1-0.78990-0.75639 0.21610-0.09526-0.57389-0.64713
   0   0  -6    9.42    0.43   1-0.24161-0.20079-0.05001-0.42413 0.96908 0.88305
   0   0   6    9.51    0.44   1-0.21898-0.25980-0.42502-0.05090 0.87829 0.96431
   0   0   6   10.12    0.47   1-0.80002-0.84022-0.14867 0.22496-0.58125-0.49336
   0   0  -6   10.05    0.50   1-0.78326-0.74338 0.25030-0.12346-0.56907-0.65736
   0   0  -7   30.60    1.00   1-0.24188-0.19426-0.01709-0.45357 0.97015 0.86979
   0   0   7   29.58    0.69   1-0.21547-0.26310-0.45460-0.01813 0.86423 0.96459
   0   0   7   29.57    2.13   1-0.79547-0.84238-0.18218 0.25372-0.57794-0.47540
   0   0  -7   30.53    0.97   1-0.77592-0.72940 0.28306-0.15299-0.56374-0.66675
   0   0  -8    0.43    0.20   1-0.24189-0.18746 0.01609-0.48273 0.97017 0.85546
   0   0   8    0.62    0.20   1-0.21175-0.26561-0.48360 0.01518 0.84928 0.96395
   0   0   8    0.53    0.22   1-0.78996-0.84356-0.21575 0.28243-0.57394-0.45675
   0   0  -8    0.48    0.21   1-0.76762-0.71445 0.31576-0.18259-0.55771-0.67543
   0   0  -9    0.18    0.21   1-0.24164-0.18001 0.04816-0.51281 0.96916 0.83941
   0   0   9    0.06    0.20   1-0.20771-0.26830-0.51263 0.04850 0.83310 0.96211
   0   0 -10    9.72    0.48   1-0.24110-0.17263 0.08193-0.54138 0.96703 0.82286
   0   0  10    9.98    0.42   1-0.20340-0.27072-0.54137 0.08211 0.81580 0.95914
   0   0  10    9.97    0.43   1-0.77592-0.84293-0.28308 0.33965-0.56374-0.41725
   0   0 -10   10.61    1.03   1-0.74800-0.68154 0.38097-0.24197-0.54345-0.69061
   0   0 -11   11.91    0.49   1-0.24028-0.16496 0.11599-0.56965 0.96374 0.80515
   0   0  11   11.91    0.50   1-0.19880-0.27286-0.56982 0.11601 0.79735 0.95503
   0   0  11   12.52    0.66   1-0.76733-0.84104-0.31684 0.36815-0.55750-0.39636
   0   0 -11   12.91    1.03   1-0.73662-0.66351 0.41347-0.27176-0.53518-0.69706
   0   0 -12    0.42    0.26   1-0.23917-0.15700 0.15035-0.59762 0.95926 0.78625
   0   0  12    0.42    0.25   1-0.19390-0.27469-0.59796 0.15022 0.77771 0.94972
   0   0 -13    3.30    0.39   1-0.23774-0.14872 0.18505-0.62526 0.95353 0.76611
   0   0  13    3.58    0.33   1-0.18869-0.27622-0.62578 0.18475 0.75682 0.94316
   0   0  13    3.55    0.41   1-0.74679-0.83390-0.38458 0.42496-0.54257-0.35214
   0   0 -13    4.08    0.49   1-0.71049-0.62409 0.47825-0.33157-0.51620-0.70750
   0   0 -14   13.54    0.64   1-0.23599-0.14012 0.22007-0.65256 0.94650 0.74466
   0   0  14   13.89    0.60   1-0.18316-0.27742-0.65327 0.21961 0.73462 0.93531
   0   0  14   12.96    0.62   1-0.73473-0.82854-0.41857 0.45325-0.53381-0.32873
   0   0 -14   15.09    0.68   1-0.69564-0.60258 0.51053-0.36159-0.50541-0.71143
   0   1 -14    0.21    0.40   1-0.23837-0.19932 0.17059-0.68092 0.95607 0.70470
   0  -1  14    0.06    0.27   1-0.17733-0.21481-0.68020 0.17169 0.71124 0.96144
   0   1 -13    4.78    0.36   1-0.23979-0.20759 0.13227-0.65691 0.96177 0.72482
   0  -1  13    4.97    0.36   1-0.18251-0.21325-0.65638 0.13316 0.73201 0.96787
   0   1 -12   22.08    1.14   1-0.24085-0.21549 0.09378-0.63307 0.96601 0.74348
   0  -1  12   22.86    1.08   1-0.18732-0.21133-0.63279 0.09440 0.75131 0.97284
   0  -1  12   20.99    1.88   1-0.78395-0.80744-0.24695 0.47899-0.56957-0.34437
   0   1 -12   23.73    1.81   1-0.68509-0.66235 0.53186-0.19425-0.49775-0.72356
   0   1 -11   14.83    0.68   1-0.24155-0.22304 0.05496-0.60955 0.96882 0.76071
   0  -1  11   15.65    0.66   1-0.19177-0.20904-0.60961 0.05523 0.76915 0.97634
   0  -1  11   14.40    0.95   1-0.79219-0.80897-0.20289 0.46078-0.57555-0.36500
   0   1 -11   15.34    1.49   1-0.69607-0.67997 0.50962-0.15421-0.50572-0.71683
   0   1 -10   24.02    0.90   1-0.24188-0.23065 0.01708-0.58540 0.97015 0.77723
   0  -1  10   24.44    0.83   1-0.19584-0.20638-0.58707 0.01542 0.78548 0.97834
   0  -1  10   25.91    1.18   1-0.79898-0.80906-0.15700 0.44440-0.58049-0.38459
   0   1 -10   26.15    1.31   1-0.70560-0.69615 0.48918-0.11235-0.51265-0.70904
   0   1  -9   44.29    1.44   1-0.24185-0.23742-0.02308-0.56322 0.97003 0.79145
   0  -1   9   45.93    1.45   1-0.19952-0.20333-0.56549-0.02534 0.80025 0.97878
   0  -1   9   44.10    1.37   1-0.80422-0.80761-0.10865 0.43047-0.58430-0.40305
   0   1  -9   46.55    1.44   1-0.71358-0.71077 0.47118-0.06806-0.51844-0.70011
   0   1  -8   57.51    1.45   1-0.24141-0.24379-0.06451-0.54230 0.96827 0.80403
   0  -1   8   60.27    1.42   1-0.20277-0.19985-0.54536-0.06756 0.81330 0.97749
   0  -1   8   59.22    1.43   1-0.80770-0.80439-0.05690 0.41995-0.58683-0.42022
   0   1  -8   59.95    1.44   1-0.71977-0.72361 0.45656-0.02038-0.52294-0.68990
   0   1  -7   86.39    2.26   1-0.24051-0.24968-0.10789-0.52333 0.96463 0.81472
   0  -1   7   87.67    2.23   1-0.20553-0.19588-0.52744-0.11198 0.82435 0.97421
   0  -1   7   79.62    2.09   1-0.80901-0.79900-0.00027 0.41430-0.58778-0.43582
   0   1  -7   82.58    2.14   1-0.72378-0.73426 0.44678 0.03212-0.52585-0.67809
   0   1  -6   57.82    1.41   1-0.23902-0.25500-0.15433-0.50741 0.95867 0.82310
   0  -1   6   59.18    1.39   1-0.20766-0.19128-0.51297-0.15987 0.83290 0.96842
   0  -1   6   52.19    1.31   1-0.80737-0.79066 0.06361 0.41592-0.58659-0.44928
   0   1  -6   52.52    1.30   1-0.72481-0.74195 0.44421 0.09185-0.52661-0.66413
   0   1  -5  127.68    1.71   1-0.23674-0.25952-0.20584-0.49657 0.94951 0.82828
   0  -1   5  130.14    1.78   1-0.20892-0.18580-0.50419-0.21344 0.83793 0.95912
   0  -1   5  125.21    1.67   1-0.80116-0.77775 0.13895 0.42899-0.58208-0.45942
   0   1  -5  124.68    1.66   1-0.72124-0.74503 0.45299 0.16293-0.52401-0.64682
   0   1  -4   77.27    1.33   1-0.23317-0.26276-0.26640-0.49478 0.93523 0.82833
   0  -1   4   79.53    1.31   1-0.20873-0.17888-0.50552-0.27712 0.83718 0.94403
   0  -1   4   76.79    1.20   1-0.78643-0.75600 0.23464 0.46241-0.57137-0.46328
   0   1  -4   79.11    1.24   1-0.70932-0.73975 0.48089 0.25312-0.51535-0.62344
   0   1  -3   85.52    1.30   1-0.22705-0.26344-0.34511-0.51113 0.91068 0.81812
   0  -1   3   87.63    1.29   1-0.20560-0.16902-0.52698-0.36093 0.82462 0.91714
   0  -1   3   81.08    1.18   1-0.75338-0.71630 0.36442 0.52990-0.54736-0.45398
   0   1  -3   85.63    1.24   1-0.67897-0.71605 0.54372 0.37825-0.49330-0.58668
   0   1  -2   39.37    0.94   1-0.21390-0.25722-0.46709-0.57080 0.85794 0.77975
   0  -1   2   39.93    0.96   1-0.19418-0.15086-0.59643-0.49272 0.77882 0.85700
   0  -1   2   37.77    0.95   1-0.66868-0.62496 0.56287 0.66605-0.48582-0.40716
   0   1  -2   37.30    0.91   1-0.59717-0.64089 0.67464 0.57146-0.43387-0.51253
   0  -1   0    1.39    0.15   1-0.11063-0.05378 0.88929 0.86821 0.44373 0.49325
   0   1   0    0.18    0.08   1-0.14201-0.19887 0.80956 0.83064 0.56959 0.52007
   0   1   1    1.61    0.21   1-0.23926-0.30292 0.14774 0.23120 0.95964 0.92454
   0  -1  -1    1.62    0.23   1-0.23170-0.16804 0.28754 0.20408 0.92931 0.96442
   0   1   1    1.48    0.21   1-0.58310-0.64672-0.69318-0.60958-0.42365-0.45842
   0  -1  -1    1.76    0.17   1-0.64083-0.57717-0.61036-0.69379-0.46559-0.43071
   0  -1  -2    0.44    0.11   1-0.24040-0.16989 0.11196-0.03382 0.96419 0.98488
   0   1   2    0.36    0.14   1-0.24133-0.31174-0.06939 0.07635 0.96795 0.94709
   0   1   2    0.38    0.14   1-0.70090-0.77122-0.49940-0.35353-0.50923-0.52935
   0  -1  -2    0.41    0.14   1-0.75784-0.68752-0.35000-0.49588-0.55060-0.53048
   0  -1  -3   16.50    0.56   1-0.24151-0.16415 0.05794-0.15017 0.96866 0.97493
   0   1   3   15.99    0.56   1-0.23810-0.31532-0.17687 0.03122 0.95499 0.94847
   0   1   3   16.60    0.57   1-0.73930-0.81632-0.40609-0.19794-0.53713-0.54260
   0  -1  -3   16.59    0.56   1-0.79417-0.71715-0.19065-0.39879-0.57700-0.57153
   0  -1  -4   20.68    0.65   1-0.24168-0.15748 0.04400-0.22644 0.96935 0.96120
   0   1   4   21.25    0.68   1-0.23434-0.31836-0.24833 0.02212 0.93989 0.94771
   0   1   4   20.04    0.65   1-0.75379-0.83751-0.36312-0.09270-0.54766-0.53848
   0  -1  -4   21.51    0.72   1-0.80633-0.72260-0.08143-0.35186-0.58583-0.59500
   0  -1  -5   49.72    1.24   1-0.24164-0.15059 0.04777-0.28500 0.96918 0.94662
   0   1   5   51.31    1.25   1-0.23047-0.32129-0.30394 0.02886 0.92439 0.94653
   0  -1  -5   47.56    1.25   1-0.80901-0.71859 0.00169-0.33100-0.58778-0.61160
   0  -1  -6   36.40    0.96   1-0.24147-0.14357 0.06093-0.33417 0.96849 0.93150
   0   1   6   36.96    0.95   1-0.22651-0.32413-0.35116 0.04399 0.90849 0.94498
   0   1   6   31.81    0.90   1-0.75954-0.85667-0.34432 0.05064-0.55184-0.51336
   0  -1  -6   34.16    0.97   1-0.80703-0.70990 0.06995-0.32501-0.58634-0.62481
   0  -1  -7   56.87    1.53   1-0.24115-0.13640 0.07970-0.37774 0.96720 0.91580
   0   1   7   60.64    1.42   1-0.22241-0.32684-0.39336 0.06415 0.89207 0.94289
   0   1   7   54.04    1.37   1-0.75737-0.86120-0.35154 0.10569-0.55026-0.49714
   0  -1  -7   58.74    1.44   1-0.80225-0.69842 0.12904-0.32819-0.58287-0.63599
   0  -1  -8   39.29    1.35   1-0.24065-0.12906 0.10214-0.41763 0.96522 0.89940
   0   1   8   40.95    1.37   1-0.21815-0.32938-0.43226 0.08760 0.87496 0.94012
   0   1   8   38.11    1.28   1-0.75326-0.86379-0.36480 0.15471-0.54727-0.47950
   0  -1  -8   43.72    1.51   1-0.79549-0.68496 0.18208-0.33742-0.57795-0.64572
   0  -1  -9   42.07    1.37   1-0.23995-0.12151 0.12715-0.45495 0.96241 0.88218
   0   1   9   42.95    1.40   1-0.21368-0.33171-0.46884 0.11337 0.85704 0.93654
   0   1   9   42.29    1.32   1-0.74758-0.86481-0.38223 0.19955-0.54315-0.46073
   0  -1  -9   45.37    1.41   1-0.78714-0.66991 0.23095-0.35083-0.57189-0.65431
   0  -1 -10   35.94    1.28   1-0.23903-0.11374 0.15406-0.49037 0.95871 0.86405
   0   1  10   37.05    1.24   1-0.20904-0.33315-0.50333 0.14114 0.83842 0.93224
   0   1  10   36.68    1.23   1-0.74052-0.86445-0.40267 0.24138-0.53802-0.44095
   0  -1 -10   37.48    1.26   1-0.77704-0.65356 0.27834-0.36601-0.56455-0.66248
   0  -1 -11   24.45    1.13   1-0.23786-0.10572 0.18246-0.52431 0.95400 0.84493
   0   1  11   24.64    0.98   1-0.20410-0.33494-0.53684 0.16998 0.81861 0.92677
   0   1  11   23.83    1.00   1-0.73218-0.86281-0.42535 0.28097-0.53196-0.42024
   0  -1 -11   26.09    1.04   1-0.76594-0.63581 0.32194-0.38470-0.55649-0.66913
   0  -1 -12    7.44    0.40   1-0.23642-0.09743 0.21205-0.55705 0.94822 0.82474
   0   1  12    7.72    0.46   1-0.19889-0.33647-0.56926 0.19992 0.79773 0.92022
   0   1  12    7.76    0.40   1-0.72257-0.85990-0.44975 0.31885-0.52498-0.39861
   0  -1 -12    8.42    0.51   1-0.75357-0.61680 0.36382-0.40511-0.54750-0.67486
   0  -1 -13   14.74    0.78   1-0.23469-0.08885 0.24265-0.58878 0.94129 0.80339
   0   1  13   14.43    0.69   1-0.19340-0.33770-0.60075 0.23078 0.77569 0.91251
   0   1  13   14.52    0.70   1-0.71170-0.85573-0.47550 0.35537-0.51708-0.37606
   0  -1 -13   14.97    0.72   1-0.73992-0.59650 0.40435-0.42688-0.53758-0.67966
   0  -1 -14   11.26    0.65   1-0.23265-0.07997 0.27413-0.61963 0.93312 0.78080
   0   1  14   11.62    0.58   1-0.18759-0.33863-0.63142 0.26246 0.75240 0.90357
   0   1  14   12.66    0.68   1-0.69953-0.85026-0.50234 0.39081-0.50823-0.35257
   0  -1 -14   13.03    0.64   1-0.72498-0.57491 0.44379-0.44974-0.52673-0.68352
   0   2 -14   17.80    0.96   1-0.23998-0.25774 0.12627-0.70412 0.96252 0.66164
   0  -2  14   18.47    0.99   1-0.16995-0.15065-0.71166 0.11924 0.68165 0.98136
   0  -2  14   18.94    0.96   1-0.78485-0.76482-0.24255 0.58661-0.57023-0.26631
   0   2 -14   20.60    1.08   1-0.61459-0.63556 0.65030-0.17900-0.44652-0.75100
   0   2 -13   20.36    1.07   1-0.24104-0.26565 0.08498-0.68307 0.96678 0.68031
   0  -2  13   22.78    1.03   1-0.17466-0.14862-0.69190 0.07664 0.70053 0.98591
   0  -2  13   21.45    1.09   1-0.79376-0.76703-0.19327 0.57362-0.57670-0.28743
   0   2 -13   23.87    1.36   1-0.62619-0.65381 0.63316-0.13385-0.45495-0.74471
   0   2 -12   26.00    1.24   1-0.24169-0.27315 0.04308-0.66264 0.96939 0.69734
   0  -2  12   25.77    1.19   1-0.17893-0.14616-0.67301 0.03319 0.71765 0.98870
   0  -2  12   25.90    1.77   1-0.80083-0.76740-0.14185 0.56276-0.58184-0.30722
   0   2 -12   27.93    1.94   1-0.63595-0.67022 0.61812-0.08659-0.46204-0.73709
   0   2 -11   14.04    0.72   1-0.24192-0.28068 0.00183-0.64197 0.97029 0.71350
   0  -2  11   14.99    0.64   1-0.18273-0.14323-0.65532-0.01146 0.73291 0.98962
   0  -2  11   12.05    1.55   1-0.80589-0.76576-0.08771 0.55463-0.58552-0.32554
   0   2 -11   13.95    1.32   1-0.64368-0.68460 0.60577-0.03665-0.46766-0.72799
   0   2 -10    1.80    0.27   1-0.24170-0.28727-0.04222-0.62368 0.96943 0.72697
   0  -2  10    1.94    0.34   1-0.18602-0.13979-0.63929-0.05779 0.74611 0.98849
   0   2  -9   25.18    0.98   1-0.24098-0.29335-0.08810-0.60721 0.96652 0.73840
   0  -2   9   26.03    0.90   1-0.18873-0.13576-0.62560-0.10645 0.75696 0.98500
   0  -2   9   23.14    1.22   1-0.80859-0.75506 0.03226 0.55006-0.58747-0.35680
   0   2  -9   23.33    2.14   1-0.65167-0.70588 0.59257 0.07473-0.47347-0.70437
   0   2  -8   14.43    0.53   1-0.23965-0.29882-0.13660-0.59335 0.96120 0.74742
   0  -2   8   14.62    0.48   1-0.19071-0.13101-0.61522-0.15841 0.76493 0.97864
   0   2  -8   14.76    0.51   1-0.65060-0.71146 0.59436 0.13882-0.47269-0.68887
   0   2  -7    0.17    0.17   1-0.23756-0.30354-0.18894-0.58334 0.95281 0.75337
   0  -2   7    0.23    0.17   1-0.19176-0.12533-0.60965-0.21519 0.76912 0.96849
   0   2  -7    0.14    0.18   1-0.64445-0.71195 0.60452 0.21128-0.46822-0.66968
   0   2  -6   17.18    0.66   1-0.23441-0.30719-0.24716-0.57920 0.94019 0.75508
   0  -2   6   16.89    0.57   1-0.19145-0.11828-0.61131-0.27920 0.76787 0.95291
   0  -2   6   17.63    0.64   1-0.77948-0.70533 0.26773 0.59868-0.56632-0.37957
   0   2  -6   17.52    0.58   1-0.63067-0.70482 0.62633 0.29538-0.45820-0.64496
   0   2  -5   66.84    1.13   1-0.22962-0.30921-0.31475-0.58444 0.92097 0.75021
   0  -2   5   71.19    1.15   1-0.18897-0.10907-0.62436-0.35460 0.75792 0.92863
   0  -2   5   68.03    1.04   1-0.75052-0.66972 0.37333 0.64198-0.54528-0.37325
   0   2  -5   71.62    1.13   1-0.60449-0.68529 0.66459 0.39594-0.43919-0.61123
   0   2  -4    9.96    0.41   1-0.22189-0.30828-0.39835-0.60568 0.88998 0.73355
   0  -2   4    9.71    0.41   1-0.18251-0.09588-0.65638-0.44897 0.73201 0.88838
   0  -2   4    9.74    0.40   1-0.69957-0.61213 0.50224 0.70860-0.50827-0.35095
   0   2  -4   10.01    0.40   1-0.55655-0.64399 0.72576 0.51940-0.40436-0.56168
   0   2  -3  110.17    1.50   1-0.20798-0.30134-0.51079-0.65585 0.83416 0.69213
   0  -2   3  111.10    1.45   1-0.16742-0.07405-0.72184-0.57678 0.67149 0.81353
   0  -2   3  109.04    1.42   1-0.60753-0.51344 0.66035 0.80442-0.44139-0.29879
   0   2  -3  106.98    1.54   1-0.46806-0.56215 0.81564 0.67157-0.34006-0.48267
   0   2  -2   48.24    0.88   1-0.17703-0.27713-0.68152-0.76423 0.71005 0.58235
   0  -2   2   48.39    0.88   1-0.12936-0.02926-0.84501-0.76230 0.51885 0.64655
   0  -2   2   46.89    0.91   1-0.44003-0.33929 0.83914 0.92091-0.31970-0.19181
   0   2  -2   48.31    0.94   1-0.30524-0.40601 0.92609 0.84430-0.22177-0.34971
   0   2  -1   59.55    1.07   1-0.08977-0.19660-0.92859-0.94894 0.36006 0.24666
   0  -2   1   59.32    1.11   1-0.02275 0.08407-0.99556-0.97521 0.09125 0.20465
   0  -2   1   57.88    1.09   1-0.16581-0.05847 0.97877 0.99826-0.12047-0.00723
   0   2  -1   59.69    1.14   1-0.03749-0.14483 0.99892 0.97943-0.02723-0.14047
   0  -2   0   29.78    0.83   1-0.09383 0.01987 0.92170 0.87954 0.37636 0.47539
   0   2   0   31.07    0.84   1-0.15659-0.27030 0.76223 0.80439 0.62807 0.52904
   0  -2  -1   27.80    0.74   1-0.19851-0.07804 0.57152 0.46694 0.79620 0.88083
   0   2   1   28.56    0.75   1-0.22892-0.34940 0.32333 0.42791 0.91817 0.83354
   0   2   1   27.71    0.82   1-0.40727-0.52787-0.86404-0.75944-0.29589-0.38024
   0  -2  -1   27.77    0.82   1-0.52634-0.40573-0.75942-0.86402-0.38241-0.29806
   0  -2  -2 1175.32    8.57   1-0.22609-0.09877 0.35575 0.18884 0.90681 0.97702
   0   2   2 1188.63   17.35   1-0.24121-0.36854 0.07616 0.24307 0.96747 0.89726
   0   2   2 1172.49    8.57   1-0.55000-0.67733-0.73335-0.56648-0.39960-0.46937
   0  -2  -2 1232.65   18.08   1-0.66733-0.54000-0.56532-0.73219-0.48484-0.41507
   0  -2  -3    8.02    0.37   1-0.23410-0.09993 0.25217 0.02292 0.93893 0.99473
   0   2   3    8.32    0.37   1-0.24141-0.37542-0.06490 0.16424 0.96824 0.91218
   0   2   3    8.13    0.39   1-0.62478-0.75883-0.63528-0.40614-0.45393-0.50913
   0  -2  -3    8.27    0.37   1-0.74112-0.60717-0.40099-0.63047-0.53845-0.48356
   0  -2  -4   47.94    0.92   1-0.23688-0.09586 0.20307-0.08850 0.95007 0.99145
   0   2   4   49.66    0.96   1-0.23876-0.37958-0.16100 0.13049 0.95763 0.91590
   0   2   4   49.77    0.97   1-0.66431-0.80508-0.57072-0.27931-0.48265-0.52328
   0  -2  -4   50.53    1.00   1-0.77876-0.63811-0.27091-0.56266-0.56580-0.52556
   0  -2  -5   65.78    1.60   1-0.23787-0.09000 0.18215-0.17175 0.95406 0.98101
   0   2   5   67.23    1.52   1-0.23521-0.38283-0.23388 0.11996 0.94338 0.91599
   0   2   5   69.03    1.56   1-0.68549-0.83297-0.53108-0.17741-0.49803-0.52409
   0  -2  -5   68.51    1.61   1-0.79787-0.65052-0.16538-0.51941-0.57969-0.55409
   0  -2  -6   15.84    0.62   1-0.23808-0.08337 0.17733-0.23890 0.95491 0.96745
   0   2   6   16.27    0.58   1-0.23125-0.38568-0.29367 0.12253 0.92751 0.91445
   0   2   6   16.24    0.62   1-0.69686-0.85091-0.50797-0.09167-0.50630-0.51724
   0  -2  -6   16.67    0.64   1-0.80660-0.65256-0.07709-0.49338-0.58603-0.57509
   0  -2  -7   49.48    1.37   1-0.23785-0.07629 0.18251-0.29605 0.95399 0.95211
   0   2   7   51.88    1.27   1-0.22703-0.38826-0.34537 0.13318 0.91058 0.91187
   0   2   7   45.87    1.21   1-0.70156-0.86230-0.49800-0.01943-0.50971-0.50601
   0  -2  -7   50.75    1.31   1-0.80901-0.64826-0.00089-0.47946-0.58778-0.59148
   0  -2  -8    9.37    0.42   1-0.23730-0.06889 0.19435-0.34654 0.95179 0.93549
   0   2   8    9.54    0.40   1-0.22258-0.39062-0.39171 0.14920 0.89275 0.90837
   0   2   8    8.24    0.47   1-0.70214-0.86959-0.49673 0.04410-0.51014-0.49178
   0  -2  -8    9.18    0.48   1-0.80721-0.63976 0.06663-0.47420-0.58647-0.60483
   0  -2  -9   11.71    0.56   1-0.23648-0.06122 0.21086-0.39237 0.94847 0.91776
   0   2   9   12.58    0.53   1-0.21791-0.39275-0.43427 0.16899 0.87402 0.90398
   0   2   9   11.04    0.59   1-0.69976-0.87391-0.50184 0.10127-0.50840-0.47540
   0  -2  -9   12.29    0.59   1-0.80238-0.62823 0.12781-0.47530-0.58296-0.61596
   0  -2 -10    0.50    0.25   1-0.23538-0.05328 0.23080-0.43476 0.94409 0.89896
   0   2  10    0.45    0.23   1-0.21301-0.39465-0.47405 0.19156 0.85434 0.89863
   0   2  10    0.42    0.26   1-0.69506-0.87591-0.51173 0.15365-0.50499-0.45734
   0  -2 -10    0.56    0.41   1-0.79517-0.61431 0.18422-0.48116-0.57772-0.62537
   0  -2 -11    0.04    0.35   1-0.23402-0.04507 0.25337-0.47452 0.93863 0.87908
   0   2  11    0.11    0.23   1-0.20791-0.39553-0.51124 0.21658 0.83390 0.89254
   0   2  11    0.03    0.27   1-0.68807-0.87586-0.52595 0.20132-0.49991-0.43854
   0  -2 -11   -0.00    0.28   1-0.78597-0.59842 0.23697-0.49068-0.57104-0.63334
   0  -2 -12    4.53    0.36   1-0.23238-0.03658 0.27801-0.51221 0.93204 0.85807
   0   2  12    4.85    0.35   1-0.20249-0.39684-0.54717 0.24300 0.81215 0.88513
   0   2  12    5.17    0.38   1-0.67970-0.87421-0.54233 0.24721-0.49383-0.41789
   0  -2 -12    5.38    0.38   1-0.77461-0.58083 0.28850-0.50185-0.56279-0.64092
   0  -2 -13    3.87    0.36   1-0.23044-0.02779 0.30435-0.54820 0.92426 0.83588
   0   2  13    4.11    0.40   1-0.19678-0.39786-0.58169 0.27083 0.78924 0.87655
   0   2  13    4.07    0.37   1-0.66971-0.87094-0.56099 0.29083-0.48658-0.39606
   0  -2 -13    3.83    0.48   1-0.76195-0.56151 0.33610-0.51654-0.55359-0.64643
   0   3 -14    0.81    0.40   1-0.24099-0.31557 0.08762-0.72164 0.96656 0.61615
   0  -3  14    0.84    0.29   1-0.16086-0.08477-0.74690 0.06300 0.64517 0.99440
   0   3 -13    0.51    0.28   1-0.24168-0.32311 0.04378-0.70315 0.96936 0.63337
   0  -3  13    0.43    0.27   1-0.16495-0.08213-0.73149 0.01607 0.66159 0.99649
   0   3 -12    0.12    0.36   1-0.24192-0.33068 0.00055-0.68457 0.97029 0.64962
   0  -3  12    0.09    0.25   1-0.16849-0.07894-0.71757-0.03236 0.67579 0.99635
   0   3 -11    8.65    0.42   1-0.24167-0.33723-0.04563-0.66840 0.96928 0.66295
   0  -3  11    8.87    0.48   1-0.17141-0.07512-0.70565-0.08279 0.68750 0.99373
   0  -3  11    7.62    0.99   1-0.80878-0.71172 0.02398 0.64500-0.58761-0.27822
   0   3 -11    7.84    1.18   1-0.58014-0.67807 0.69697 0.07595-0.42149-0.73105
   0   3 -10   28.57    1.08   1-0.24085-0.34322-0.09371-0.65412 0.96602 0.67403
   0  -3  10   30.00    0.98   1-0.17360-0.07059-0.69642-0.13591 0.69630 0.98820
   0  -3  10   28.40    1.09   1-0.80561-0.70185 0.09160 0.65035-0.58531-0.29057
   0   3 -10   29.57    1.08   1-0.57960-0.68418 0.69765 0.13893-0.42111-0.71595
   0   3  -9   12.38    0.49   1-0.23938-0.34855-0.14438-0.64244 0.96012 0.68247
   0  -3   9   12.44    0.46   1-0.17491-0.06516-0.69083-0.19266 0.70153 0.97909
   0  -3   9   12.13    1.45   1-0.79792-0.68746 0.16504 0.66152-0.57972-0.29963
   0   3  -9   12.12    1.52   1-0.57456-0.68578 0.70399 0.20757-0.41744-0.69757
   0   3  -8   45.76    1.22   1-0.23709-0.35307-0.19873-0.63444 0.95094 0.68762
   0  -3   8   46.21    1.48   1-0.17505-0.05857-0.69023-0.25441 0.70209 0.96531
   0  -3   8   47.19    1.52   1-0.78397-0.66610 0.24688 0.68101-0.56959-0.30417
   0   3  -8   50.26    1.60   1-0.56352-0.68139 0.71750 0.28337-0.40942-0.67483
   0   3  -7   60.94    1.73   1-0.23370-0.35648-0.25836-0.63171 0.93735 0.68836
   0  -3   7   62.72    1.67   1-0.17355-0.05034-0.69664-0.32317 0.69610 0.94499
   0  -3   7   62.07    1.65   1-0.76171-0.63720 0.33691 0.70875-0.55342-0.30272
   0   3  -7   64.71    1.71   1-0.54412-0.66864 0.74002 0.36818-0.39533-0.64602
   0   3  -6   71.75    1.63   1-0.22872-0.35830-0.32581-0.63681 0.91734 0.68270
   0  -3   6   73.78    1.67   1-0.16960-0.03965-0.71311-0.40199 0.68022 0.91478
   0  -3   6   72.87    1.57   1-0.72714-0.59598 0.43835 0.74789-0.52830-0.29232
   0   3  -6   72.81    1.65   1-0.51261-0.64377 0.77364 0.46410-0.37243-0.60841
   0   3  -5  126.31    2.53   1-0.22116-0.35754-0.40529-0.65394 0.88703 0.66672
   0  -3   5  126.94    2.53   1-0.16156-0.02488-0.74429-0.49552 0.64801 0.86823
   0  -3   5  124.51    2.47   1-0.67407-0.53627 0.55295 0.80020-0.48974-0.26848
   0   3  -5  125.05    2.52   1-0.46295-0.60076 0.82008 0.57283-0.33635-0.55762
   0   3  -4   66.30    1.11   1-0.20906-0.35247-0.50318-0.68959 0.83851 0.63262
   0  -3   4   67.08    1.07   1-0.14613-0.00271-0.79695-0.61053 0.58609 0.79198
   0  -3   4   65.60    1.04   1-0.59305-0.44859 0.68017 0.86512-0.43087-0.22432
   0   3  -4   65.55    1.12   1-0.38575-0.53034 0.87900 0.69402-0.28026-0.48688
   0   3  -3  180.15    2.01   1-0.18735-0.33749-0.63265-0.75672 0.75142 0.55987
   0  -3   3  183.76    1.99   1-0.11569 0.03453-0.87823-0.75420 0.46402 0.65572
   0  -3   3  175.78    2.09   1-0.47162-0.32052 0.81249 0.93515-0.34265-0.15082
   0   3  -3  177.37    2.22   1-0.26947-0.42063 0.94289 0.82021-0.19578-0.38769
   0   3  -2  109.01    1.41   1-0.14365-0.30053-0.80460-0.86632 0.57617 0.39895
   0  -3   2  107.91    1.44   1-0.05445 0.10245-0.97433-0.91264 0.21840 0.39570
   0  -3   2  106.05    1.48   1-0.30031-0.14258 0.92854 0.98893-0.21819-0.04098
   0   3  -2  107.89    1.54   1-0.10442-0.26216 0.99163 0.93124-0.07587-0.25307
   0   3  -1   61.70    1.02   1-0.05318-0.21679-0.97553-0.97492 0.21329 0.05025
   0  -3   1   62.67    1.04   1 0.05562 0.21924-0.97320-0.97381-0.22311-0.06008
   0  -3   1   61.99    1.13   1-0.08784 0.07645 0.99408 0.99217-0.06382 0.09867
   0   3   0   38.58    0.91   1-0.17041-0.34098 0.70977 0.77302 0.68349 0.53494
   0   3   0   38.35    0.93   1 0.07573-0.09454-0.94973-0.88679-0.30375-0.45238
   0  -3   0   38.80    0.96   1-0.30963-0.13880-0.92386-0.98735-0.22496-0.07659
   0  -3  -1   44.78    0.99   1-0.16468 0.01276 0.73252 0.60694 0.66052 0.79464
   0   3   1   46.20    1.01   1-0.22356-0.40085 0.38212 0.50782 0.89666 0.76251
   0   3   1   44.13    1.04   1-0.30517-0.48272-0.92612-0.80036-0.22172-0.35552
   0  -3  -1   45.35    1.07   1-0.48504-0.30749-0.80033-0.92609-0.35240-0.21860
   0  -3  -2    3.02    0.21   1-0.20325-0.01892 0.54232 0.35441 0.81521 0.93489
   0   3   2    2.95    0.21   1-0.23903-0.42317 0.15407 0.34210 0.95871 0.83897
   0   3   2    3.08    0.23   1-0.43245-0.61672-0.84514-0.65710-0.31419-0.43342
   0  -3  -2    3.09    0.23   1-0.61005-0.42578-0.65679-0.84482-0.44323-0.32400
   0  -3  -3    3.84    0.27   1-0.21923-0.02824 0.42280 0.17243 0.87930 0.98461
   0   3   3    3.65    0.27   1-0.24191-0.43273 0.00490 0.25508 0.97028 0.86467
   0   3   3    3.64    0.28   1-0.51591-0.70690-0.77028-0.51998-0.37483-0.47949
   0  -3  -3    3.83    0.26   1-0.69265-0.50178-0.51669-0.76750-0.50324-0.39893
   0  -3  -4    0.08    0.18   1-0.22636-0.02852 0.35283 0.04013 0.90789 0.99878
   0   3   4    0.08    0.14   1-0.24065-0.43827-0.10238 0.21015 0.96519 0.87392
   0   3   4    0.03    0.19   1-0.56901-0.76671-0.71085-0.39828-0.41341-0.50349
   0  -3  -4    0.07    0.14   1-0.74405-0.54648-0.39262-0.70570-0.54058-0.45092
   0  -3  -5    3.85    0.27   1-0.22971-0.02502 0.31367-0.06135 0.92132 0.99780
   0   3   5    4.15    0.32   1-0.23774-0.44216-0.18504 0.18985 0.95353 0.87660
   0   3   5    4.07    0.29   1-0.60241-0.80683-0.66748-0.29264-0.43768-0.51319
   0  -3  -5    4.26    0.36   1-0.77570-0.57143-0.28401-0.65936-0.56357-0.48856
   0  -3  -6    8.37    0.39   1-0.23123-0.01969 0.29400-0.14336 0.92741 0.98947
   0   3   6    8.84    0.41   1-0.23406-0.44529-0.25281 0.18443 0.93877 0.87618
   0   3   6    8.58    0.43   1-0.62305-0.83419-0.63787-0.20076-0.45267-0.51362
   0  -3  -6    9.23    0.40   1-0.79447-0.58350-0.18878-0.62641-0.57721-0.51685
   0  -3  -7   19.20    0.63   1-0.23173-0.01335 0.28718-0.21251 0.92942 0.97706
   0   3   7   19.98    0.60   1-0.22992-0.44795-0.31097 0.18862 0.92218 0.87393
   0   3   7   19.19    0.62   1-0.63518-0.85304-0.61932-0.11995-0.46148-0.50786
   0  -3  -7   20.01    0.65   1-0.80459-0.58692-0.10437-0.60427-0.58457-0.53886
   0  -3  -8   13.53    0.54   1-0.23158-0.00635 0.28923-0.27279 0.92882 0.96205
   0   3   8   14.43    0.48   1-0.22545-0.45029-0.36260 0.19934 0.90425 0.87034
   0   3   8   13.51    0.50   1-0.64139-0.86597-0.60947-0.04783-0.46599-0.49780
   0  -3  -8   14.31    0.54   1-0.80868-0.58431-0.02850-0.59067-0.58754-0.55648
   0  -3  -9   22.91    0.91   1-0.23095 0.00111 0.29765-0.32670 0.92631 0.94512
   0   3   9   23.88    0.86   1-0.22070-0.45234-0.40956 0.21474 0.88518 0.86560
   0   3   9   20.46    0.81   1-0.64326-0.87456-0.60644 0.01746-0.46736-0.48459
   0  -3  -9   22.65    0.90   1-0.80834-0.57727 0.04062-0.58381-0.58730-0.57088
   0  -3 -10   19.22    0.87   1-0.22993 0.00898 0.31081-0.37587 0.92223 0.92662
   0   3  10   18.91    0.80   1-0.21567-0.45411-0.45303 0.23362 0.86500 0.85976
   0   3  10   16.95    0.78   1-0.64180-0.87982-0.60880 0.07737-0.46630-0.46896
   0  -3 -10   18.87    0.86   1-0.80459-0.56682 0.10443-0.58228-0.58457-0.58280
   0  -3 -11   15.81    0.80   1-0.22856 0.01719 0.32763-0.42139 0.91674 0.90671
   0   3  11   16.58    0.80   1-0.21043-0.45483-0.49332 0.25550 0.84400 0.85313
   0   3  11   16.40    0.80   1-0.63764-0.88237-0.61545 0.13299-0.46327-0.45136
   0  -3 -11   18.13    0.94   1-0.79806-0.55359 0.16398-0.58500-0.57982-0.59270
   0  -3 -12   17.07    0.92   1-0.22686 0.02575 0.34732-0.46402 0.90988 0.88544
   0   3  12   17.05    0.77   1-0.20484-0.45598-0.53198 0.27918 0.82160 0.84506
   0   3  12   17.48    0.82   1-0.63116-0.88261-0.62557 0.18515-0.45857-0.43208
   0  -3 -12   18.05    0.85   1-0.78917-0.53800 0.22010-0.59116-0.57337-0.60089
   0  -3 -13   10.33    0.57   1-0.22481 0.03464 0.36936-0.50432 0.90168 0.86282
   0   3  13   10.73    0.62   1-0.19895-0.45682-0.56890 0.30462 0.79797 0.83577
   0   3  13   10.19    0.66   1-0.62264-0.88081-0.63849 0.23449-0.45237-0.41132
   0  -3 -13   11.11    0.60   1-0.77779-0.52034 0.27514-0.59891-0.56509-0.60871
   0   4 -14   14.06    0.68   1-0.24155-0.37294 0.05515-0.73299 0.96881 0.56888
   0  -4  14   14.33    0.62   1-0.14987-0.01700-0.78499 0.00392 0.60110 0.99984
   0  -4  14   15.33    0.68   1-0.80702-0.67314-0.07015 0.71635-0.58633-0.18358
   0   4 -14   15.58    0.70   1-0.50405-0.63905 0.78218-0.00430-0.36621-0.76914
   0   4 -13   18.52    0.99   1-0.24190-0.38066 0.01085-0.71558 0.97023 0.58569
   0  -4  13   18.77    0.93   1-0.15318-0.01357-0.77400-0.04743 0.61436 0.99878
   0  -4  13   18.24    0.99   1-0.80899-0.66841-0.00775 0.71648-0.58776-0.19966
   0   4 -13   19.24    0.99   1-0.50866-0.65031 0.77761 0.05341-0.36956-0.75778
   0   4 -12   31.22    1.46   1-0.24176-0.38732-0.03638-0.70046 0.96965 0.59944
   0  -4  12   31.94    1.45   1-0.15577-0.00944-0.76510-0.10088 0.62477 0.99485
   0  -4  12   30.65    1.40   1-0.80765-0.66037 0.05802 0.71999-0.58679-0.21334
   0   4 -12   31.13    1.41   1-0.50998-0.65828 0.77628 0.11438-0.37052-0.74402
   0   4 -11   27.10    1.16   1-0.24103-0.39340-0.08533-0.68706 0.96675 0.61088
   0  -4  11   27.60    1.12   1-0.15753-0.00446-0.75892-0.15705 0.63183 0.98758
   0  -4  11   28.15    1.13   1-0.80237-0.64840 0.12785 0.72755-0.58296-0.22415
   0   4 -11   29.78    1.20   1-0.50740-0.66234 0.77887 0.17926-0.36864-0.72743
   0   4 -10   36.65    1.22   1-0.23965-0.39882-0.13661-0.67598 0.96119 0.61966
   0  -4  10   37.58    1.16   1-0.15827 0.00152-0.75627-0.21675 0.63481 0.97622
   0  -4  10   38.13    1.18   1-0.79224-0.63156 0.20254 0.73996-0.57560-0.23144
   0   4 -10   40.74    1.26   1-0.50002-0.66161 0.78612 0.24881-0.36328-0.70736
   0   4  -9   34.69    1.25   1-0.23746-0.40343-0.19106-0.66808 0.95242 0.62522
   0  -4   9   34.21    1.20   1-0.15771 0.00881-0.75828-0.28111 0.63255 0.95963
   0  -4   9   35.55    1.19   1-0.77570-0.60746 0.28401 0.75902-0.56358-0.23422
   0   4  -9   37.82    1.28   1-0.48657-0.65480 0.79892 0.32390-0.35351-0.68286
   0   4  -8    5.36    0.39   1-0.23424-0.40702-0.24989-0.66455 0.93951 0.62665
   0  -4   8    5.86    0.39   1-0.15538 0.01787-0.76644-0.35162 0.62322 0.93597
   0  -4   8    5.77    0.32   1-0.75125-0.57636 0.37108 0.78380-0.54581-0.23117
   0   4  -8    5.89    0.40   1-0.46520-0.64008 0.81813 0.40541-0.33799-0.65263
   0   4  -7   34.43    0.97   1-0.22961-0.40919-0.31489-0.66720 0.92093 0.62241
   0  -4   7   34.64    0.93   1-0.15053 0.02945-0.78280-0.43033 0.60378 0.90219
   0  -4   7   34.19    0.91   1-0.71599-0.53446 0.46555 0.81598-0.52020-0.22027
   0   4  -7   35.35    0.95   1-0.43329-0.61482 0.84448 0.49405-0.31481-0.61473
   0   4  -6   15.88    0.58   1-0.22289-0.40927-0.38875-0.67870 0.89397 0.60979
   0  -4   6   16.57    0.57   1-0.14186 0.04486-0.81002-0.51990 0.56897 0.85304
   0  -4   6   16.07    0.56   1-0.66614-0.47797 0.56745 0.85558-0.48398-0.19877
   0   4  -6   16.16    0.59   1-0.38693-0.57533 0.87821 0.59005-0.28112-0.56640
   0   4  -5    2.13    0.21   1-0.21281-0.40600-0.47557-0.70317 0.85354 0.58370
   0  -4   5    2.08    0.21   1-0.12700 0.06645-0.85111-0.62334 0.50938 0.77911
   0  -4   5    2.04    0.21   1-0.59676-0.40194 0.67518 0.90102-0.43357-0.16308
   0   4  -5    1.94    0.22   1-0.32198-0.51696 0.91738 0.69152-0.23393-0.50452
   0   4  -4   55.09    1.31   1-0.19699-0.39718-0.58045-0.74587 0.79010 0.53470
   0  -4   4   56.19    1.34   1-0.10148 0.09882-0.90775-0.74238 0.40704 0.66264
   0  -4   4   56.07    1.32   1-0.50237-0.30090 0.78383 0.94738-0.36499-0.10921
   0   4  -4   55.24    1.35   1-0.23286-0.43440 0.95768 0.79411-0.16918-0.42506
   0   4  -3   87.40    1.87   1-0.16993-0.37686-0.71174-0.81481 0.68157 0.44050
   0  -4   3   87.07    1.25   1-0.05812 0.14886-0.97070-0.86767 0.23312 0.47432
   0  -4   3   85.06    1.83   1-0.37912-0.17100 0.88339 0.98467-0.27545-0.03428
   0   4  -3   87.16    1.37   1-0.11574-0.32385 0.98971 0.88843-0.08409-0.32526
   0   4  -2    8.23    0.37   1-0.12150-0.33516-0.86471-0.90542 0.48734 0.26053
   0  -4   2    8.46    0.37   1 0.01256 0.22627-0.99865-0.95792-0.05040 0.17658
   0  -4   2    8.37    0.39   1-0.22899-0.01430 0.95910 0.99809-0.16637 0.06009
   0   4  -2    8.45    0.41   1 0.02765-0.18703 0.99941 0.96043 0.02009-0.20637
   0   4  -1   37.37    0.90   1-0.10590-0.32644 0.89908 0.92107 0.42477 0.21226
   0   4  -1   35.86    0.92   1-0.04076-0.26109-0.98570-0.96407 0.16348-0.04892
   0  -4   1   35.84    1.00   1-0.06380 0.15745 0.99688 0.97357-0.04635 0.16540
   0   4   0   40.35    0.93   1-0.18343-0.41086 0.65196 0.73628 0.73572 0.53765
   0   4   0   39.80    0.96   1 0.05739-0.16963-0.97144-0.88752-0.23021-0.42838
   0  -4   0   39.68    1.08   1-0.33904-0.11126-0.90794-0.99260-0.24632-0.04850
   0  -4  -1   22.90    0.63   1-0.13371 0.10059 0.83336 0.68671 0.53630 0.71993
   0   4   1   23.06    0.63   1-0.22295-0.45705 0.38817 0.53500 0.89420 0.71054
   0  -4  -1   23.22    0.70   1-0.47376-0.23927-0.81059-0.95751-0.34421-0.16095
   0  -4  -2   29.45    0.74   1-0.17685 0.06433 0.68233 0.47334 0.70932 0.87852
   0   4   2   30.81    0.80   1-0.23771-0.47866 0.18579 0.39495 0.95340 0.78414
   0   4   2   31.45    0.85   1-0.34194-0.58315-0.90628-0.69709-0.24843-0.41712
   0  -4  -2   29.78    0.84   1-0.58008-0.33887-0.69704-0.90623-0.42145-0.25277
   0  -4  -3   35.12    0.87   1-0.19928 0.04878 0.56692 0.29560 0.79929 0.95406
   0   4   3   35.97    0.87   1-0.24173-0.48953 0.03931 0.31080 0.96954 0.81471
   0   4   3   34.96    0.87   1-0.42247-0.67041-0.85281-0.58135-0.30695-0.46106
   0  -4  -3   36.97    0.94   1-0.65869-0.41076-0.58059-0.85205-0.47857-0.32445
   0  -4  -4  317.39    7.15   1-0.21107 0.04357 0.48865 0.15482 0.84656 0.98698
   0   4   4  321.85    2.14   1-0.24134-0.49576-0.06901 0.26456 0.96798 0.82717
   0   4   4  309.09    6.96   1-0.47984-0.73449-0.80510-0.47137-0.34863-0.48817
   0  -4  -4  325.62    2.26   1-0.71519-0.46070-0.46742-0.80183-0.51962-0.38054
   0  -4  -5   13.76    0.44   1-0.21744 0.04404 0.43827 0.04212 0.87213 0.99814
   0   4   5   13.06    0.44   1-0.23896-0.50019-0.15585 0.24007 0.95843 0.83196
   0   4   5   13.58    0.47   1-0.51982-0.78119-0.76625-0.37025-0.37767-0.50264
   0  -4  -5   13.96    0.47   1-0.75351-0.49232-0.36402-0.76070-0.54745-0.42302
   0  -4  -6   36.94    1.25   1-0.22090 0.04744 0.40768-0.05080 0.88599 0.99758
   0   4   6   35.83    1.19   1-0.23555-0.50358-0.22784 0.23044 0.94477 0.83264
   0   4   6   36.56    1.22   1-0.54710-0.81519-0.73666-0.27839-0.39749-0.50789
   0  -4  -6   38.63    1.36   1-0.77911-0.51122-0.26937-0.72832-0.56605-0.45627
   0  -4  -7   31.51    1.09   1-0.22264 0.05254 0.39113-0.12968 0.89299 0.99016
   0   4   7   31.41    1.03   1-0.23153-0.50637-0.28983 0.23080 0.92864 0.83085
   0   4   7   31.17    1.06   1-0.56513-0.83994-0.71556-0.19502-0.41059-0.50642
   0  -4  -7   32.86    1.16   1-0.79537-0.52078-0.18286-0.70409-0.57787-0.48274
   0  -4  -8    8.56    0.41   1-0.22330 0.05874 0.38473-0.19841 0.89560 0.97835
   0   4   8    9.19    0.46   1-0.22708-0.50872-0.34481 0.23817 0.91078 0.82732
   0   4   8    8.05    0.48   1-0.57630-0.85782-0.70182-0.11901-0.41870-0.49996
   0  -4  -8    9.31    0.46   1-0.80467-0.52338-0.10345-0.68695-0.58463-0.50414
   0  -4  -9   20.28    0.84   1-0.22318 0.06570 0.38587-0.25960 0.89514 0.96347
   0   4   9   20.87    0.79   1-0.22228-0.51072-0.39470 0.25064 0.89151 0.82239
   0   4   9   18.59    0.78   1-0.58225-0.87049-0.69428-0.04920-0.42302-0.48971
   0  -4  -9   20.35    0.86   1-0.80865-0.52065-0.03006-0.67584-0.58751-0.52168
   0  -4 -10    7.67    0.51   1-0.22248 0.07325 0.39275-0.31506 0.89232 0.94624
   0   4  10    7.67    0.48   1-0.21715-0.51240-0.44073 0.26696 0.87097 0.81619
   0   4  10    6.20    0.42   1-0.58408-0.87904-0.69191 0.01542-0.42436-0.47648
   0  -4 -10    7.53    0.57   1-0.80842-0.51373 0.03826-0.66977-0.58735-0.53616
   0  -4 -11    5.21    0.38   1-0.22128 0.08129 0.40410-0.36604 0.88754 0.92703
   0   4  11    5.33    0.36   1-0.21180-0.51299-0.48318 0.28663 0.84951 0.80912
   0   4  11    4.52    0.40   1-0.58257-0.88425-0.69386 0.07575-0.42326-0.46081
   0  -4 -11    5.09    0.44   1-0.80476-0.50337 0.10238-0.66793-0.58469-0.54815
   0  -4 -12    0.71    0.43   1-0.21966 0.08977 0.41901-0.41345 0.88100 0.90608
   0   4  12    0.85    0.29   1-0.20607-0.51398-0.52383 0.30833 0.82651 0.80046
   0   4  12    0.65    0.46   1-0.57823-0.88663-0.69938 0.13249-0.42011-0.44308
   0  -4 -12    0.88    0.46   1-0.79820-0.49010 0.16297-0.66961-0.57992-0.55803
   0   5 -14    1.67    0.33   1-0.24181-0.43002 0.02930-0.73772 0.96987 0.52042
   0  -5  14    2.16    0.40   1-0.13681 0.05283-0.82473-0.05680 0.54872 0.99698
   0  -5  14    2.56    0.59   1-0.80898-0.61818 0.00906 0.77424-0.58776-0.13559
   0   5 -14    1.73    0.59   1-0.43970-0.63172 0.83940 0.07432-0.31946-0.77162
   0   5 -13    1.64    0.32   1-0.24188-0.43744-0.01659-0.72198 0.97016 0.53607
   0  -5  13    1.78    0.42   1-0.13914 0.05723-0.81804-0.11246 0.55807 0.99200
   0  -5  13    1.77    0.44   1-0.80667-0.60917 0.07608 0.77899-0.58608-0.14856
   0   5 -13    1.86    0.36   1-0.44012-0.63878 0.83907 0.13628-0.31976-0.75721
   0   5 -12    1.83    0.31   1-0.24140-0.44376-0.06567-0.70871 0.96820 0.54845
   0  -5  12    1.93    0.41   1-0.14055 0.06255-0.81390-0.17067 0.56374 0.98334
   0  -5  12    1.90    0.33   1-0.80029-0.59609 0.14646 0.78709-0.58144-0.15857
   0   5 -12    1.89    0.34   1-0.43654-0.64185 0.84192 0.20143-0.31716-0.73989
   0   5 -11    0.14    0.25   1-0.24026-0.44943-0.11671-0.69739 0.96366 0.55825
   0  -5  11    0.29    0.36   1-0.14086 0.06898-0.81299-0.23211 0.56497 0.97023
   0  -5  11    0.07    0.25   1-0.78907-0.57817 0.22067 0.79904-0.57329-0.16507
   0   5 -11   -0.05    0.27   1-0.42821-0.64017 0.84843 0.27023-0.31111-0.71913
   0   5 -10    0.57    0.34   1-0.23838-0.45435-0.17035-0.68868 0.95611 0.56503
   0  -5  10    0.62    0.34   1-0.13978 0.07679-0.81616-0.29763 0.56066 0.95158
   0  -5  10    0.46    0.23   1-0.77169-0.55308 0.30023 0.81613-0.56066-0.16736
   0   5  -9    9.25    0.45   1-0.23557-0.45835-0.22751-0.68349 0.94485 0.56811
   0  -5   9   10.08    0.48   1-0.13690 0.08640-0.82447-0.36829 0.54909 0.92568
   0  -5   9   10.11    0.40   1-0.74719-0.52194 0.38340 0.83701-0.54286-0.16428
   0   5  -9   10.55    0.44   1-0.39258-0.61824 0.87436 0.42073-0.28523-0.66389
   0   5  -8   23.03    0.87   1-0.23156-0.46114-0.28943-0.68306 0.92876 0.56636
   0  -5   8   24.61    0.85   1-0.13155 0.09848-0.83921-0.44538 0.52764 0.88990
   0  -5   8   24.57    0.85   1-0.71351-0.48161 0.47133 0.86264-0.51839-0.15453
   0   5  -8   24.18    0.85   1-0.36256-0.59478 0.89395 0.50261-0.26341-0.62737
   0   5  -7   11.69    0.47   1-0.22589-0.46227-0.35792-0.68919 0.90601 0.55795
   0  -5   7   11.70    0.48   1-0.12250 0.11453-0.86230-0.53093 0.49134 0.83963
   0  -5   7   11.86    0.45   1-0.66830-0.42976 0.56356 0.89257-0.48555-0.13640
   0   5  -7   11.56    0.46   1-0.32143-0.56023 0.91768 0.58863-0.23353-0.58279
   0   5  -6   53.11    1.31   1-0.21777-0.46096-0.43550-0.70442 0.87344 0.53972
   0  -5   6   53.58    1.28   1-0.10848 0.13523-0.89382-0.62477 0.43510 0.76900
   0  -5   6   54.29    1.28   1-0.60881-0.36362 0.65855 0.92527-0.44232-0.10789
   0   5  -6   54.55    1.36   1-0.26659-0.51195 0.94414 0.67739-0.19369-0.52824
   0   5  -5   58.39    1.58   1-0.20593-0.45617-0.52475-0.73153 0.82596 0.50671
   0  -5   5   59.91    1.60   1-0.08657 0.16381-0.93376-0.72705 0.34724 0.66674
   0  -5   5   57.92    1.55   1-0.53224-0.28040 0.75311 0.95754-0.38669-0.06697
   0   5  -5   60.63    1.65   1-0.19537-0.44730 0.97040 0.76594-0.14194-0.46179
   0   5  -4   61.20    1.64   1-0.18754-0.44452-0.63166-0.77609 0.75221 0.44729
   0  -5   4   62.28    1.65   1-0.05266 0.20439-0.97601-0.83163 0.21122 0.51633
   0  -5   4   61.20    1.63   1-0.43673-0.17824 0.84177 0.98390-0.31730-0.01229
   0   5  -4   61.86    1.70   1-0.10593-0.36444 0.99138 0.84921-0.07696-0.38210
   0   5  -3  102.29    2.12   1-0.15803-0.42174-0.75715-0.83923 0.63383 0.34324
   0  -5   3  100.34    2.10   1-0.00174 0.26205-0.99997-0.91790 0.00701 0.29795
   0  -5   3  102.36    2.15   1-0.32291-0.05784 0.91688 0.99676-0.23461 0.05582
   0   5  -3  101.94    2.24   1 0.00130-0.26376 0.99999 0.92012 0.00095-0.28948
   0   5  -2   56.59    1.30   1-0.11037-0.38078-0.88986-0.90957 0.44267 0.16636
   0  -5   2   56.02    1.31   1 0.06680 0.33727-0.96111-0.94136-0.26794 0.00858
   0  -5   2   57.09    1.39   1-0.19519 0.07644 0.97045 0.98803-0.14181 0.13391
   0   5  -1  117.41    2.33   1-0.14062-0.41802 0.81370 0.85677 0.56401 0.30199
   0   5  -1  112.74    2.31   1-0.04084-0.31792-0.98564-0.94302 0.16380-0.09810
   0  -5   1  112.62    2.45   1-0.06239 0.21582 0.99702 0.95231-0.04533 0.21569
   0   5   0   71.01    1.55   1-0.19560-0.47988 0.58842 0.69382 0.78453 0.53694
   0   5   0   69.06    1.56   1 0.03821-0.24557-0.98744-0.88254-0.15329-0.40100
   0  -5   0   74.12    1.67   1-0.36810-0.08338-0.89049-0.99631-0.26744-0.02015
   0  -5  -1   31.32    0.80   1-0.10486 0.18630 0.90118 0.73344 0.42056 0.65372
   0   5   1   32.33    0.78   1-0.22514-0.51606 0.36594 0.53389 0.90299 0.66980
   0  -5  -1   31.97    0.84   1-0.47662-0.18519-0.80802-0.97611-0.34629-0.11357
   0  -5  -2   25.70    0.73   1-0.14911 0.14892 0.78744 0.55737 0.59807 0.81679
   0   5   2   26.64    0.79   1-0.23766-0.53543 0.18669 0.41698 0.95323 0.73446
   0  -5  -2   26.35    0.86   1-0.56723-0.26907-0.71302-0.94338-0.41212-0.19397
   0  -5  -3   25.15    0.72   1-0.17598 0.12894 0.68615 0.39375 0.70584 0.91012
   0   5   3   25.08    0.74   1-0.24163-0.54624 0.04905 0.34167 0.96912 0.76476
   0   5   3   26.24    0.80   1-0.34253-0.64741-0.90594-0.61331-0.24886-0.45243
   0  -5  -3   26.62    0.79   1-0.63916-0.33429-0.61303-0.90566-0.46438-0.26081
   0  -5  -4    3.57    0.25   1-0.19197 0.11983 0.60853 0.25379 0.76995 0.95980
   0   5   4    3.86    0.27   1-0.24152-0.55275-0.05696 0.29765 0.96872 0.77837
   0   5   4    3.75    0.32   1-0.39933-0.71093-0.86968-0.51478-0.29013-0.47913
   0  -5  -4    4.17    0.28   1-0.69500-0.38359-0.51185-0.86759-0.50494-0.31645
   0  -5  -5    3.50    0.26   1-0.20153 0.11715 0.55315 0.13608 0.80833 0.98374
   0   5   5    3.60    0.28   1-0.23939-0.55742-0.14421 0.27276 0.96015 0.78414
   0   5   5    3.56    0.28   1-0.44175-0.76006-0.83776-0.42059-0.32095-0.49538
   0  -5  -5    3.42    0.33   1-0.73569-0.41758-0.41598-0.83398-0.53451-0.36067
   0  -5  -6    0.09    0.18   1-0.20725 0.11790 0.51580 0.03619 0.83126 0.99236
   0   5   6    0.13    0.19   1-0.23612-0.56095-0.21758 0.26174 0.94704 0.78537
   0   5   6   -0.05    0.26   1-0.47271-0.79774-0.81153-0.33209-0.34344-0.50330
   0  -5  -6   -0.08    0.20   1-0.76502-0.44021-0.32526-0.80554-0.55582-0.39662
   0  -5  -7    0.59    0.31   1-0.21059 0.12140 0.49212-0.04981 0.84466 0.99135
   0   5   7    0.61    0.22   1-0.23215-0.56379-0.28127 0.26041 0.93112 0.78378
   0   5   7    0.81    0.24   1-0.49468-0.82643-0.79127-0.24956-0.35941-0.50469
   0  -5  -7    0.39    0.24   1-0.78535-0.45384-0.24007-0.78263-0.57059-0.42604
   0  -5  -8    3.50    0.31   1-0.21236 0.12649 0.47897-0.12529 0.85175 0.98402
   0   5   8    3.78    0.38   1-0.22768-0.56612-0.33797 0.26605 0.91319 0.78020
   0   5   8    3.50    0.33   1-0.50959-0.84806-0.77667-0.17270-0.37024-0.50095
   0  -5  -8    3.74    0.35   1-0.79856-0.46035-0.16023-0.76506-0.58019-0.45028
   0  -5  -9    4.06    0.34   1-0.21302 0.13267 0.47394-0.19266 0.85439 0.97225
   0   5   9    4.20    0.33   1-0.22281-0.56805-0.38949 0.27689 0.89366 0.77500
   0   5   9    3.64    0.45   1-0.51888-0.86407-0.76722-0.10098-0.37699-0.49313
   0  -5  -9    4.50    0.49   1-0.80607-0.46115-0.08527-0.75237-0.58564-0.47039
   0  -5 -10    4.96    0.38   1-0.21285 0.13969 0.47525-0.25368 0.85371 0.95714
   0   5  10    5.01    0.35   1-0.21759-0.56963-0.43706 0.29168 0.87271 0.76839
   0   5  10    4.40    0.50   1-0.52361-0.87551-0.76230-0.03378-0.38042-0.48200
   0  -5 -10    4.64    0.43   1-0.80892-0.45731-0.01465-0.74402-0.58772-0.48711
   0  -5 -11    8.27    0.45   1-0.21201 0.14738 0.48162-0.30964 0.85034 0.93936
   0   5  11    8.03    0.41   1-0.21212-0.57008-0.48082 0.30998 0.85077 0.76086
   0   5  11    6.58    0.55   1-0.52455-0.88317-0.76131 0.02946-0.38111-0.46811
   0  -5 -11    7.97    0.53   1-0.80791-0.44959 0.05216-0.73948-0.58698-0.50102
   0   6 -13    7.77    0.48   1-0.24176-0.49412-0.03649-0.72084 0.96964 0.48602
   0  -6  13    7.36    0.52   1-0.12242 0.13133-0.86250-0.17811 0.49101 0.97520
   0  -6  13    8.83    0.60   1-0.79969-0.54527 0.15137 0.83296-0.58101-0.09407
   0   6 -13    7.98    0.48   1-0.36692-0.62325 0.89123 0.20982-0.26658-0.75334
   0   6 -12   16.73    1.02   1-0.24100-0.50017-0.08685-0.70885 0.96662 0.49733
   0  -6  12   17.92    0.91   1-0.12242 0.13800-0.86251-0.24045 0.49100 0.96079
   0  -6  12   19.30    0.91   1-0.78837-0.52726 0.22442 0.84373-0.57279-0.10050
   0   6 -12   20.33    0.98   1-0.35868-0.62158 0.89634 0.27723-0.26060-0.73264
   0   6 -11   24.18    1.23   1-0.23956-0.50553-0.13929-0.69893 0.96083 0.50588
   0  -6  11   27.92    1.29   1-0.12099 0.14610-0.86594-0.30622 0.48528 0.94068
   0  -6  11   27.58    1.24   1-0.77131-0.50234 0.30170 0.85849-0.56039-0.10315
   0   6 -11   28.02    1.31   1-0.34514-0.61461 0.90442 0.34761-0.25076-0.70810
   0   6 -10   38.24    1.55   1-0.23730-0.51007-0.19447-0.69176 0.95177 0.51115
   0  -6  10   40.92    1.52   1-0.11776 0.15600-0.87350-0.37612 0.47234 0.91334
   0  -6  10   40.00    1.46   1-0.74795-0.47233 0.38113 0.87562-0.54341-0.10089
   0   6 -10   43.07    1.59   1-0.32534-0.60138 0.91557 0.42105-0.23637-0.67901
   0   6  -9   26.04    1.12   1-0.23403-0.51361-0.25330-0.68824 0.93865 0.51237
   0  -6   9   27.75    1.00   1-0.11218 0.16825-0.88597-0.45091 0.44996 0.87656
   0  -6   9   26.87    0.95   1-0.71680-0.43454 0.46364 0.89583-0.52079-0.09297
   0   6  -9   27.51    0.98   1-0.29807-0.58068 0.92965 0.49741-0.21656-0.64449
   0   6  -8   42.15    1.47   1-0.22944-0.51582-0.31701-0.68959 0.92024 0.50831
   0  -6   8   44.48    1.47   1-0.10343 0.18368-0.90399-0.53127 0.41485 0.82704
   0  -6   8   43.89    1.41   1-0.67638-0.38747 0.54864 0.91854-0.49142-0.07832
   0   6  -8   43.89    1.58   1-0.26194-0.55112 0.94613 0.57619-0.19031-0.60354
   0   6  -7   47.56    1.50   1-0.22304-0.51622-0.38728-0.69751 0.89457 0.49697
   0  -6   7   49.38    1.49   1-0.09027 0.20351-0.92776-0.61737 0.36208 0.75988
   0  -6   7   48.41    1.47   1-0.62503-0.32947 0.63490 0.94251-0.45411-0.05573
   0   6  -7   49.10    1.57   1-0.21540-0.51115 0.96390 0.65625-0.15650-0.55502
   0   6  -6   11.40    0.47   1-0.21400-0.51399-0.46636-0.71423 0.85831 0.47505
   0  -6   6   11.40    0.44   1-0.07092 0.22954-0.95606-0.70800 0.28445 0.66785
   0  -6   6   12.01    0.45   1-0.56121-0.25901 0.72025 0.96557-0.40775-0.02408
   0   6  -6   12.01    0.48   1-0.15698-0.45930 0.98099 0.73563-0.11405-0.49787
   0   6  -5   29.31    0.86   1-0.20108-0.50810-0.55597-0.74176 0.80650 0.43773
   0  -6   5   30.09    0.86   1-0.04287 0.26426-0.98417-0.79844 0.17195 0.54096
   0  -6   5   29.91    0.85   1-0.48391-0.17506 0.80138 0.98440-0.35158 0.01736
   0   6  -5   29.69    0.88   1-0.08568-0.39458 0.99437 0.81131-0.06225-0.43136
   0   6  -4   12.46    0.43   1-0.18161-0.49537-0.66061-0.78405 0.72842 0.37399
   0  -6   4   12.47    0.48   1-0.00319 0.31070-0.99991-0.87650 0.01280 0.36770
   0  -6   4   12.42    0.45   1-0.39337-0.07790 0.87382 0.99459-0.28580 0.06860
   0   6  -4   13.00    0.55   1-0.00159-0.31706 0.99999 0.87922-0.00116-0.35556
   0   6  -3    7.12    0.32   1-0.15196-0.47245-0.77808-0.83917 0.60950 0.26939
   0  -6   3    6.98    0.33   1 0.04918 0.36974-0.97911-0.91802-0.19725 0.14322
   0  -6   3    6.86    0.35   1-0.29148 0.03054 0.93283 0.99131-0.21177 0.12792
   0   6  -2   46.35    1.26   1-0.11053-0.43790 0.88950 0.89132 0.44334 0.11737
   0   6  -2   44.16    1.24   1-0.10764-0.43480-0.89554-0.89427 0.43174 0.10593
   0  -6   2   43.80    1.30   1-0.18255 0.14605 0.97421 0.97039-0.13263 0.19236
   0   6  -1   38.13    1.07   1-0.16701-0.50126 0.72347 0.78762 0.66984 0.35830
   0   6  -1   37.20    1.09   1-0.04795-0.38178-0.98015-0.91654 0.19232-0.11908
   0  -6   1   38.30    1.14   1-0.29732 0.03762-0.93002-0.99473-0.21601 0.09529
   0  -6   1   37.26    1.16   1-0.07251 0.26265 0.99597 0.92986-0.05268 0.25760
   0   6   0    3.74    0.24   1-0.20685-0.54774 0.51854 0.64528 0.82965 0.53252
   0   6   0    3.57    0.28   1 0.01811-0.32243-0.99719-0.87131-0.07266-0.36991
   0  -6   0    3.76    0.32   1-0.39679-0.05513-0.87145-0.99844-0.28829 0.00845
   0  -6   0    3.63    0.30   1 0.03230 0.37404 0.99920 0.87080 0.02346 0.31905
   0   6   1    6.68    0.31   1-0.22875-0.57648 0.32545 0.51453 0.91746 0.63475
   0   6   1    6.65    0.33   1 0.07681-0.27040-0.94825-0.76006-0.30807-0.59091
   0  -6  -1    6.95    0.34   1-0.48703-0.13865-0.79848-0.98774-0.35385-0.07168
   0  -6  -2   21.15    0.55   1-0.12081 0.23408 0.86637 0.61522 0.48456 0.75279
   0   6   2   21.22    0.55   1-0.23857-0.59315 0.16575 0.41715 0.95687 0.68857
   0  -6  -2   21.93    0.63   1-0.56503-0.20993-0.71569-0.96721-0.41051-0.14292
   0  -6  -3    9.26    0.38   1-0.15044 0.21134 0.78313 0.46964 0.60338 0.85718
   0   6   3    9.39    0.39   1-0.24174-0.60317 0.03831 0.35205 0.96958 0.71570
   0  -6  -3   10.02    0.41   1-0.62980-0.26798-0.62766-0.94145-0.45758-0.20455
   0  -6  -4   18.57    0.52   1-0.16982 0.19884 0.71219 0.33637 0.68112 0.92049
   0   6   4   18.82    0.53   1-0.24144-0.60947-0.06285 0.31280 0.96837 0.72849
   0   6   4   18.16    0.54   1-0.32667-0.69521-0.91485-0.53878-0.23734-0.47580
   0  -6  -4   19.02    0.54   1-0.68187-0.31333-0.53815-0.91421-0.49541-0.25695
   0  -6  -5   22.09    0.82   1-0.18238 0.19315 0.65696 0.21881 0.73152 0.95645
   0   6   5   21.78    0.81   1-0.23925-0.61408-0.14807 0.28994 0.95959 0.73405
   0   6   5   21.62    0.81   1-0.36906-0.74431-0.88988-0.45155-0.26813-0.49202
   0  -6  -5   21.58    0.83   1-0.72328-0.34825-0.44800-0.88734-0.52549-0.30223
   0  -6  -6   68.78    1.07   1-0.19049 0.19193 0.61640 0.11591 0.76403 0.97453
   0   6   6   67.67    2.05   1-0.23595-0.61758-0.22079 0.27957 0.94634 0.73513
   0   6   6   66.70    2.04   1-0.40152-0.78349-0.86814-0.36754-0.29172-0.50103
   0  -6  -6   68.72    1.20   1-0.75406-0.37233-0.36226-0.86387-0.54786-0.33924
   0  -6  -7    9.24    0.41   1-0.19564 0.19367 0.58822 0.02540 0.78467 0.98073
   0   6   7    9.64    0.42   1-0.23192-0.62036-0.28452 0.27820 0.93019 0.73331
   0   6   7    9.66    0.43   1-0.42573-0.81442-0.85034-0.28747-0.30931-0.50405
   0  -6  -7    9.95    0.43   1-0.77665-0.38821-0.28001-0.84389-0.56427-0.37030
   0  -6  -8   19.03    1.02   1-0.19874 0.19744 0.57014-0.05501 0.79713 0.97876
   0   6   8   19.50    0.97   1-0.22736-0.62260-0.34161 0.28346 0.91192 0.72938
   0   6   8   19.95    0.97   1-0.44312-0.83853-0.83665-0.21151-0.32194-0.50211
   0  -6  -8   19.93    1.00   1-0.79242-0.39728-0.20150-0.82766-0.57572-0.39640
   0  -6  -9   10.23    0.59   1-0.20039 0.20268 0.56021-0.12727 0.80374 0.97093
   0   6   9   10.72    0.59   1-0.22238-0.62443-0.39368 0.29374 0.89193 0.72373
   0   6   9   10.80    0.63   1-0.45485-0.85698-0.82697-0.13957-0.33047-0.49607
   0  -6  -9   11.13    0.66   1-0.80249-0.40066-0.12669-0.81512-0.58304-0.41837
   0  -6 -10    3.95    0.38   1-0.20093 0.20902 0.55687-0.19295 0.80592 0.95868
   0   6  10    3.78    0.34   1-0.21702-0.62587-0.44187 0.30791 0.87043 0.71657
   0   6  10    3.65    0.50   1-0.46186-0.87071-0.82102-0.07134-0.33556-0.48659
   0  -6 -10    3.62    0.42   1-0.80777-0.39923-0.05537-0.80607-0.58688-0.43686
   0  -6 -11    6.62    0.62   1-0.20060 0.21623 0.55891-0.25325 0.80459 0.94292
   0   6  11    6.72    0.59   1-0.21140-0.62614-0.48620 0.32559 0.84788 0.70846
   0   6  11    5.84    0.68   1-0.46483-0.88040-0.81845-0.00651-0.33772-0.47418
   0  -6 -11    6.38    0.70   1-0.80895-0.39371 0.01275-0.80022-0.58773-0.45236
   0   7 -13    3.35    0.38   1-0.24163-0.55080-0.04839-0.71170 0.96915 0.43599
   0  -7  13    3.60    0.55   1-0.10335 0.20715-0.90414-0.24075 0.41453 0.94822
   0  -7  13    3.86    0.37   1-0.78972-0.47838 0.21709 0.87735-0.57376-0.03740
   0   7 -13    4.16    0.51   1-0.29178-0.60507 0.93269 0.27269-0.21199-0.74801
   0   7 -12    5.16    0.47   1-0.24072-0.55669-0.09946-0.70042 0.96548 0.44665
   0  -7  12    5.47    0.50   1-0.10171 0.21546-0.90732-0.30625 0.40794 0.92724
   0  -7  12    5.78    0.49   1-0.77371-0.45437 0.29219 0.88987-0.56213-0.04094
   0   7 -12    5.43    0.64   1-0.27947-0.59933 0.93843 0.34072-0.20305-0.72436
   0   7 -11    3.20    0.34   1-0.23908-0.56186-0.15262-0.69123 0.95892 0.45443
   0  -7  11    3.23    0.35   1-0.09830 0.22554-0.91371-0.37498 0.39427 0.89917
   0  -7  11    3.59    0.56   1-0.75211-0.42613 0.36839 0.90377-0.54644-0.03997
   0   7 -11    3.74    0.76   1-0.26163-0.58806 0.94626 0.41084-0.19009-0.69669
   0   7 -10    2.92    0.33   1-0.23660-0.56617-0.20853-0.68478 0.94896 0.45880
   0  -7  10    3.19    0.33   1-0.09266 0.23786-0.92373-0.44733 0.37165 0.86215
   0  -7  10    3.10    0.59   1-0.72386-0.39123 0.44657 0.91965-0.52591-0.03416
   0   7 -10    3.24    0.51   1-0.23745-0.57045 0.95595 0.48282-0.17252-0.66442
   0   7  -9    1.63    0.53   1-0.23306-0.56944-0.26807-0.68196 0.93478 0.45896
   0  -7   9    1.93    0.37   1-0.08414 0.25305-0.93756-0.52350 0.33747 0.81357
   0  -7   9    1.77    0.25   1-0.68797-0.34869 0.52617 0.93695-0.49983-0.02279
   0   7  -8    1.34    0.32   1-0.22816-0.57135-0.33238-0.68393 0.91512 0.45364
   0  -7   8    1.46    0.25   1-0.07182 0.27204-0.95491-0.60318 0.28807 0.74977
   0  -7   8    1.28    0.23   1-0.64341-0.29748 0.60621 0.95471-0.46746-0.00513
   0   7  -8    1.32    0.28   1-0.16637-0.51251 0.97862 0.63008-0.12088-0.58336
   0   7  -7    5.87    0.37   1-0.22140-0.57139-0.40301-0.69220 0.88800 0.44086
   0  -7   7    6.26    0.35   1-0.05445 0.29608-0.97433-0.68493 0.21842 0.66572
   0  -7   7    5.63    0.33   1-0.58925-0.23668 0.68519 0.97139-0.42812 0.01948
   0   7  -7    6.40    0.38   1-0.11765-0.47036 0.98936 0.70312-0.08548-0.53326
   0   7  -6   10.50    0.46   1-0.21212-0.56920-0.48076-0.70790 0.85080 0.41818
   0  -7   6   11.22    0.43   1-0.03043 0.32678-0.99205-0.76499 0.12207 0.55497
   0  -7   6   10.78    0.45   1-0.52492-0.16570 0.76092 0.98482-0.38137 0.05151
   0   7  -6   11.49    0.47   1-0.05928-0.41856 0.99731 0.77335-0.04307-0.47615
   0   7  -5   11.92    0.55   1-0.19877-0.56258-0.56997-0.73476 0.79725 0.37896
   0  -7   5   11.49    0.52   1 0.00211 0.36611-0.99996-0.83520-0.00849 0.41035
   0  -7   5   11.94    0.43   1-0.45045-0.08459 0.83064 0.99225-0.32727 0.09090
   0   7  -5   12.07    0.53   1 0.00874-0.35710 0.99994 0.83828 0.00635-0.41202
   0   7  -4   33.40    1.16   1-0.17941-0.54995-0.67080-0.77324 0.71960 0.31565
   0  -7   4   33.26    1.17   1 0.04394 0.41460-0.98336-0.88093-0.17626 0.22817
   0  -7   4   33.72    1.16   1-0.36700 0.00541 0.89118 0.99055-0.26664 0.13702
   0   7  -3   35.82    1.17   1-0.09410-0.47144 0.92124 0.88180 0.37743-0.01249
   0   7  -3   34.86    1.17   1-0.15115-0.52842-0.78078-0.82088 0.60624 0.21662
   0  -7   3   34.35    1.22   1-0.27659 0.10239 0.93974 0.97681-0.20095 0.18800
   0   7  -2   38.50    1.23   1-0.14520-0.52942 0.79984 0.82274 0.58237 0.20688
   0   7  -2   37.73    1.25   1-0.11110-0.49501-0.88830-0.86603 0.44561 0.07030
   0  -7   2   37.78    1.27   1-0.18269 0.20286 0.97416 0.94895-0.13273 0.24152
   0   7  -1   49.75    1.53   1-0.18814-0.57925 0.62861 0.71384 0.75461 0.39355
   0   7  -1   48.34    1.58   1-0.05959-0.45018-0.96918-0.88457 0.23903-0.12188
   0  -7   1   52.25    1.67   1-0.34159 0.05029-0.90648-0.99236-0.24818 0.11258
   0  -7   1   47.99    1.55   1-0.08935 0.30278 0.99388 0.90637-0.06491 0.29463
   0   7   0   38.73    1.24   1-0.21702-0.61473 0.44182 0.58968 0.87045 0.52380
   0   7   0   37.91    1.28   1-0.00302-0.40033-0.99992-0.85306 0.01212-0.33467
   0  -7   0   40.62    1.37   1-0.42512-0.02651-0.85080-0.99895-0.30887 0.03732
   0  -7   0   38.63    1.35   1-0.00055 0.39814 1.00000 0.85019-0.00040 0.34444
   0   7   1   51.21    1.54   1-0.23286-0.63741 0.27106 0.48126 0.93396 0.60173
   0   7   1   51.33    1.57   1 0.04953-0.35444-0.97881-0.76963-0.19866-0.53106
   0  -7  -1   54.92    1.65   1-0.50182-0.09650-0.78436-0.99478-0.36460-0.03297
   0  -7  -2   32.84    1.06   1-0.09207 0.31968 0.92473 0.65250 0.36929 0.68705
   0   7   2   32.39    1.06   1-0.23993-0.65133 0.12794 0.40047 0.96232 0.64450
   0  -7  -2   35.34    1.18   1-0.56966-0.15762-0.71005-0.98273-0.41388-0.09683
   0  -7  -3   17.40    0.70   1-0.12322 0.29541 0.86056 0.52599 0.49421 0.79753
   0   7   3   17.13    0.70   1-0.24190-0.65992 0.01253 0.34688 0.97021 0.66645
   0  -7  -3   17.80    0.71   1-0.62773-0.20897-0.63082-0.96578-0.45607-0.15358
   0  -7  -4   13.17    0.53   1-0.14519 0.28032 0.79987 0.40297 0.58233 0.87122
   0   7   4   13.23    0.58   1-0.24106-0.66589-0.08416 0.31253 0.96685 0.67742
   0  -7  -4   13.53    0.56   1-0.67603-0.25055-0.54930-0.94652-0.49116-0.20325
   0  -7  -5   12.02    0.43   1-0.16039 0.27201 0.74862 0.28939 0.64329 0.91774
   0   7   5   12.15    0.49   1-0.23857-0.67020-0.16579 0.29326 0.95686 0.68177
   0   7   5   10.93    0.43   1-0.30136-0.73356-0.92802-0.46853-0.21895-0.49229
   0  -7  -5   11.42    0.46   1-0.71594-0.28399-0.46567-0.92633-0.52016-0.24748
   0  -7  -6    3.34    0.37   1-0.17079 0.26849 0.70823 0.18666 0.68500 0.94502
   0   7   6    3.07    0.30   1-0.23506-0.67350-0.23641 0.28499 0.94278 0.68203
   0   7   6    3.04    0.35   1-0.33389-0.77281-0.91085-0.38909-0.24258-0.50136
   0  -7  -6    3.00    0.30   1-0.74668-0.30802-0.38491-0.90785-0.54249-0.28446
   0  -7  -7    2.15    0.29   1-0.17779 0.26836 0.67812 0.09422 0.71311 0.95869
   0   7   7    2.14    0.29   1-0.23086-0.67610-0.29891 0.28484 0.92593 0.67952
   0   7   7    1.94    0.29   1-0.35904-0.80468-0.89612-0.31209-0.26086-0.50506
   0  -7  -7    2.12    0.30   1-0.77016-0.32481-0.30615-0.89136-0.55956-0.31617
   0  -7  -8    0.23    0.27   1-0.18237 0.27067 0.65704 0.01080 0.73146 0.96261
   0   7   8   -0.02    0.26   1-0.22613-0.67818-0.35530 0.29081 0.90698 0.67490
   0   7   8    0.07    0.28   1-0.37783-0.83019-0.88423-0.23793-0.27451-0.50414
   0  -7  -8   -0.10    0.28   1-0.78735-0.33530-0.22984-0.87733-0.57204-0.34331
   0  -7  -9   -0.06    0.42   1-0.18515 0.27478 0.64363-0.06493 0.74259 0.95931
   0   7   9    0.04    0.28   1-0.22097-0.67982-0.40701 0.30145 0.88628 0.66855
   0   7   9    0.02    0.30   1-0.39117-0.85025-0.87533-0.16676-0.28420-0.49926
   0  -7  -9   -0.02    0.32   1-0.79908-0.34033-0.15618-0.86594-0.58057-0.36648
   0   7  10    1.26    0.49   1-0.39980-0.86559-0.86935-0.09851-0.29047-0.49096
   0  -7 -10    1.30    0.50   1-0.80607-0.34061-0.08518-0.85721-0.58564-0.38620
   0   8 -12    5.73    0.46   1-0.24063-0.61340-0.10294-0.68286 0.96513 0.39677
   0  -8  12    6.49    0.44   1-0.07814 0.29578-0.94639-0.36631 0.31342 0.88222
   0  -8  12    6.23    0.61   1-0.75856-0.38221 0.34760 0.92387-0.55113 0.01928
   0   8 -12    6.91    0.76   1-0.20031-0.57713 0.96885 0.39254-0.14554-0.71611
   0   8 -11    7.26    0.45   1-0.23895-0.61852-0.15617-0.67373 0.95839 0.40435
   0  -8  11    8.64    0.54   1-0.07257 0.30802-0.95393-0.43620 0.29108 0.84548
   0  -8  11    8.82    0.79   1-0.73330-0.35030 0.42238 0.93635-0.53277 0.02292
   0   8 -11    9.27    0.57   1-0.17928-0.56267 0.97513 0.46111-0.13025-0.68612
   0   8 -10   16.12    0.91   1-0.23642-0.62279-0.21203-0.66724 0.94823 0.40854
   0  -8  10   18.61    0.96   1-0.06437 0.32290-0.96394-0.50853 0.25819 0.79820
   0  -8  10   18.56    0.97   1-0.70160-0.31195 0.49790 0.94958-0.50974 0.03124
   0   8 -10   18.92    1.00   1-0.15217-0.54212 0.98215 0.53042-0.11056-0.65172
   0   8  -9   25.70    1.41   1-0.23284-0.62602-0.27137-0.66422 0.93388 0.40853
   0  -8   9   28.18    1.29   1-0.05285 0.34109-0.97584-0.58277 0.21198 0.73758
   0  -8   9   28.73    1.34   1-0.66280-0.26650 0.57341 0.96279-0.48155 0.04471
   0   8  -9   29.31    1.34   1-0.11837-0.51490 0.98923 0.59980-0.08600-0.61246
   0   8  -8   33.01    1.51   1-0.22792-0.62790-0.33524-0.66574 0.91414 0.40312
   0  -8   8   36.96    1.41   1-0.03710 0.36351-0.98816-0.65742 0.14883 0.66003
   0  -8   8   35.39    1.39   1-0.61631-0.21337 0.64780 0.97488-0.44778 0.06377
   0   8  -8   36.15    1.42   1-0.07735-0.48044 0.99541 0.66827-0.05619-0.56795
   0   8  -7   16.56    0.80   1-0.22118-0.62797-0.40504-0.67319 0.88713 0.39045
   0  -8   7   17.30    0.72   1-0.01604 0.39125-0.99779-0.72939 0.06436 0.56116
   0  -8   7   17.35    0.71   1-0.56179-0.15221 0.71957 0.98436-0.40816 0.08866
   0   8  -7   17.74    0.75   1-0.02875-0.43842 0.99936 0.73452-0.02089-0.51794
   0   8  -6   36.97    1.38   1-0.21206-0.62592-0.48122-0.68738 0.85055 0.36841
   0  -8   6   39.42    1.33   1 0.01160 0.42568-0.99884-0.79275-0.04653 0.43626
   0  -8   6   39.41    1.31   1-0.49925-0.08302 0.78687 0.98936-0.36273 0.11939
   0   8  -6   40.62    1.37   1 0.02743-0.38880 0.99942 0.79687 0.01993-0.46241
   0   8  -5   40.53    1.45   1-0.19912-0.61971-0.56787-0.71167 0.79866 0.33085
   0  -8   5   41.03    1.30   1 0.04624 0.46700-0.98155-0.83778-0.18549 0.28289
   0  -8   5   41.45    1.27   1-0.42927-0.00640 0.84761 0.98781-0.31189 0.15551
   0   8  -4   16.62    0.62   1-0.08784-0.51516 0.93174 0.85105 0.35232-0.10155
   0   8  -4   16.22    0.64   1-0.18078-0.60810-0.66448-0.74593 0.72510 0.27163
   0  -8   4   15.32    0.62   1-0.35326 0.07610 0.89962 0.97759-0.25666 0.19626
   0   8  -3   16.49    0.64   1-0.13220-0.56641 0.83746 0.81910 0.53026 0.09081
   0   8  -3   15.69    0.68   1-0.15482-0.58887-0.76840-0.78751 0.62094 0.18181
   0  -8   3   14.14    0.56   1-0.27298 0.16295 0.94134 0.95702-0.19833 0.23988
   0   8  -2    8.05    0.35   1-0.17348-0.61457 0.69694 0.74091 0.69582 0.27081
   0   8  -2    7.74    0.39   1-0.11924-0.55990-0.87009-0.82683 0.47824 0.05343
   0  -8   2    7.89    0.37   1-0.30688 0.13523-0.92526-0.97003-0.22296 0.20183
   0  -8   2    7.37    0.38   1-0.19112 0.25139 0.97169 0.92507-0.13886 0.28466
   0   8  -1    9.40    0.36   1-0.20551-0.65347 0.52758 0.63389 0.82426 0.41369
   0   8  -1    9.29    0.38   1-0.07457-0.52191-0.95129-0.84570 0.29911-0.11130
   0  -8   1   10.32    0.42   1-0.38157 0.06726-0.88178-0.98883-0.27722 0.13299
   0  -8   1    8.49    0.42   1-0.11050 0.33858 0.99062 0.88171-0.08028 0.32853
   0   8   0   18.75    0.74   1-0.22598-0.68050 0.35693 0.52592 0.90638 0.51020
   0   8   0   17.82    0.72   1-0.02518-0.47919-0.99456-0.82664 0.10099-0.29502
   0  -8   0   19.03    0.77   1-0.45307 0.00247-0.82847-0.99778-0.32917 0.06647
   0  -8   0   18.00    0.75   1-0.03379 0.42186 0.99912 0.82792-0.02455 0.36955
   0   8   1   10.22    0.39   1-0.23681-0.69818 0.20440 0.43572 0.94980 0.56805
   0   8   1   10.18    0.46   1 0.02206-0.43867-0.99583-0.76567-0.08849-0.47043
   0  -8  -1   11.02    0.54   1-0.51931-0.05704-0.76678-0.99836-0.37730 0.00378
   0  -8  -1    9.95    0.47   1 0.03684 0.49907 0.99896 0.76546 0.02677 0.40617
   0   8   2    0.93    0.26   1-0.24122-0.70944 0.07579 0.36945 0.96750 0.60016
   0   8   2    0.85    0.30   1 0.06256-0.40483-0.96597-0.67350-0.25094-0.61847
   0  -8  -2    0.89    0.29   1-0.57884-0.10985-0.69862-0.99247-0.42055-0.05403
   0  -8  -3    0.66    0.21   1-0.09453 0.38095 0.92048 0.56483 0.37916 0.73200
   0   8   3    0.76    0.26   1-0.24181-0.71664-0.02941 0.32597 0.96987 0.61657
   0  -8  -3    1.01    0.24   1-0.63087-0.15516-0.62601-0.98213-0.45835-0.10641
   0  -8  -4    7.08    0.39   1-0.11837 0.36399 0.87210 0.45412 0.47478 0.81318
   0   8   4    6.76    0.37   1-0.24019-0.72182-0.11927 0.29847 0.96336 0.62440
   0  -8  -4    6.93    0.37   1-0.67522-0.19280-0.55081-0.96920-0.49058-0.15321
   0  -8  -5    3.73    0.31   1-0.13578 0.35347 0.82762 0.34730 0.54461 0.86858
   0   8   5    3.72    0.33   1-0.23721-0.72565-0.19627 0.28382 0.95142 0.62679
   0  -8  -5    3.45    0.31   1-0.71292-0.22405-0.47269-0.95469-0.51797-0.19587
   0  -8  -6    8.25    0.49   1-0.14829 0.34784 0.79009 0.24744 0.59477 0.90430
   0   8   6    8.16    0.49   1-0.23335-0.72859-0.26371 0.27874 0.93594 0.62565
   0  -8  -6    8.11    0.44   1-0.74270-0.24713-0.39649-0.94076-0.53960-0.23215
   0  -8  -7    8.18    0.60   1-0.15713 0.34589 0.76034 0.15536 0.63022 0.92532
   0   8   7    8.43    0.54   1-0.22887-0.73091-0.32397 0.28082 0.91796 0.62200
   0   8   7    7.89    0.53   1-0.29478-0.79736-0.93125-0.32605-0.21417-0.50783
   0  -8  -7    7.79    0.51   1-0.76613-0.26386-0.32123-0.92777-0.55663-0.26382
   0  -8  -8   15.06    0.83   1-0.16322 0.34668 0.73811 0.07078 0.65464 0.93530
   0   8   8   14.40    0.79   1-0.22389-0.73274-0.37878 0.28838 0.89799 0.61638
   0   8   8   14.60    0.81   1-0.31414-0.82344-0.92152-0.25406-0.22824-0.50733
   0  -8  -8   12.94    0.81   1-0.78385-0.27487-0.24745-0.91627-0.56950-0.29134
   0   9 -11    3.67    0.39   1-0.23921-0.67559-0.14918-0.64570 0.95943 0.35586
   0  -9  11    4.04    0.53   1-0.04390 0.39345-0.98339-0.48664 0.17607 0.77997
   0  -9  11    3.45    0.54   1-0.71632-0.27630 0.46478 0.95734-0.52043 0.08449
   0   9 -11    3.95    0.68   1-0.09943-0.53977 0.99241 0.49980-0.07224-0.67737
   0   9 -10    7.72    0.51   1-0.23682-0.68000-0.20423-0.63840 0.94984 0.36061
   0  -9  10    8.57    0.54   1-0.03313 0.41089-0.99057-0.55616 0.13288 0.72239
   0  -9  10    8.93    0.55   1-0.68250-0.23584 0.53693 0.96719-0.49586 0.09434
   0   9 -10    8.99    0.87   1-0.07069-0.51760 0.99617 0.56585-0.05136-0.64179
   0   9  -9    4.66    0.50   1-0.23343-0.68342-0.26248-0.63430 0.93627 0.36137
   0  -9   9    6.05    0.48   1-0.01875 0.43195-0.99699-0.62491 0.07520 0.65031
   0  -9   9    5.95    0.36   1-0.64233-0.18903 0.60795 0.97592-0.46668 0.10881
   0   9  -9    6.09    0.42   1-0.03600-0.48949 0.99900 0.63097-0.02616-0.60188
   0   9  -8    3.14    0.34   1-0.22879-0.68558-0.32494-0.63440 0.91764 0.35708
   0  -9   8    3.48    0.43   1 0.00018 0.45770-1.00000-0.69024-0.00073 0.56042
   0  -9   8    3.39    0.31   1-0.59559-0.13564 0.67676 0.98244-0.43272 0.12805
   0   9  -8    3.36    0.46   1 0.00484-0.45521 0.99998 0.69424 0.00351-0.55750
   0   9  -7    3.11    0.32   1-0.22247-0.68606-0.39286-0.63996 0.89228 0.34606
   0  -9   7    3.31    0.36   1 0.02406 0.48824-0.99503-0.74760-0.09652 0.45022
   0  -9   7    3.18    0.30   1-0.54228-0.07568 0.74208 0.98546-0.39399 0.15207
   0   9  -7    3.61    0.35   1 0.05186-0.41476 0.99794 0.75449 0.03768-0.50863
   0   9  -6    1.29    0.26   1-0.21382-0.68422-0.46773-0.65248 0.85761 0.32573
   0  -9   6    1.34    0.27   1 0.05357 0.52441-0.97517-0.79005-0.21486 0.31748
   0  -9   6    1.31    0.26   1-0.48278-0.00953 0.80242 0.98351-0.35076 0.18058
   0   9  -5    2.41    0.26   1-0.08875-0.56604 0.93027 0.80832 0.35596-0.16186
   0   9  -5    2.18    0.40   1-0.20207-0.67944-0.54981-0.67262 0.81047 0.29315
   0  -9   5    2.33    0.28   1-0.41798 0.06177 0.85618 0.97504-0.30368 0.21321
   0   9  -4    2.84    0.26   1-0.12702-0.61119 0.85106 0.79145 0.50946 0.00606
   0   9  -4    2.60    0.33   1-0.18544-0.66953-0.64221-0.70266 0.74375 0.24077
   0  -9   4    2.41    0.36   1-0.34891 0.13741 0.90221 0.95878-0.25350 0.24869
   0   9  -3    9.54    0.38   1-0.16469-0.65574 0.73249 0.73522 0.66054 0.17158
   0   9  -3    9.16    0.41   1-0.16231-0.65314-0.74150-0.73961 0.65101 0.16235
   0  -9   3    8.53    0.39   1-0.28804 0.20430-0.93447-0.93814-0.20927 0.27955
   0  -9   3    8.49    0.47   1-0.27735 0.21555 0.93939 0.93367-0.20150 0.28598
   0   9  -2   13.23    1.04   1-0.19677-0.69471 0.58173 0.64679 0.78921 0.31468
   0   9  -2   13.38    0.59   1-0.13124-0.62880-0.84005-0.77581 0.52638 0.05206
   0  -9   2   13.82    0.62   1-0.35378 0.14527-0.89931-0.96525-0.25704 0.21721
   0  -9   2   12.33    0.53   1-0.20525 0.29422 0.96728 0.89926-0.14912 0.32366
   0   9  -1   15.85    0.66   1-0.21976-0.72425 0.41805 0.54584 0.88143 0.42132
   0   9  -1   15.40    0.64   1-0.09237-0.59646-0.92422-0.79764 0.37050-0.08941
   0  -9   1   16.22    0.68   1-0.41856 0.08721-0.85575-0.98396-0.30410 0.15557
   0  -9   1   14.27    0.69   1-0.13465 0.37138 0.98605 0.85574-0.09783 0.36024
   0   9   0   19.66    0.79   1-0.23346-0.74479 0.26211 0.45223 0.93637 0.49067
   0   9   0   19.30    0.78   1-0.04899-0.55976-0.97927-0.79035 0.19651-0.24900
   0  -9   0   19.47    0.77   1-0.48062 0.03187-0.80440-0.99487-0.34919 0.09591
   0  -9   0   18.48    0.82   1-0.06743 0.44517 0.99651 0.80391-0.04899 0.39437
   0   9   1   20.04    0.84   1-0.24001-0.75819 0.12545 0.37790 0.96262 0.53135
   0   9   1   19.73    0.86   1-0.00615-0.52365-0.99967-0.74854 0.02469-0.40678
   0  -9  -1   20.43    0.87   1-0.53849-0.01927-0.74629-0.99904-0.39124 0.03930
   0  -9  -1   20.03    0.93   1-0.00512 0.51406 0.99997 0.74508-0.00372 0.42495
   0   9   2   21.01    1.00   1-0.24190-0.76673 0.01190 0.32598 0.97022 0.55304
   0   9   2   20.21    0.99   1 0.03235-0.49180-0.99101-0.67755-0.12977-0.54684
   0  -9  -2   20.78    1.01   1-0.59109-0.06516-0.68276-0.99778-0.42945-0.01348
   0  -9  -2   19.74    0.99   1 0.05124 0.57700 0.99799 0.68080 0.03722 0.45119
   0   9   3   20.19    1.03   1-0.24104-0.77267-0.08498 0.29144 0.96678 0.56394
   0   9   3   18.92    0.98   1 0.06429-0.46653-0.96403-0.58826-0.25786-0.66052
   0  -9  -3   20.94    1.02   1-0.63778-0.10512-0.61523-0.99252-0.46337-0.06197
   0  -9  -4   12.68    0.64   1-0.08944 0.44978 0.92913 0.49007 0.35874 0.74667
   0   9   4   12.23    0.69   1-0.23850-0.77694-0.16743 0.27135 0.95659 0.56809
   0  -9  -4   12.38    0.66   1-0.67827-0.13890-0.54506-0.98461-0.49279-0.10596
   0  -9  -5    8.74    0.55   1-0.10865 0.43746 0.89347 0.39207 0.43577 0.80925
   0   9   5    8.70    0.56   1-0.23491-0.78015-0.23898 0.26216 0.94218 0.56801
   0  -9  -5    7.60    0.52   1-0.71342-0.16763-0.47153-0.97485-0.51833-0.14681
   0  -9  -6    5.50    0.48   1-0.12302 0.42997 0.86103 0.29730 0.49343 0.85248
   0   9   6    5.23    0.40   1-0.23059-0.78263-0.30235 0.26113 0.92488 0.56505
   0  -9  -6    4.50    0.36   1-0.74171-0.18921-0.39932-0.96491-0.53888-0.18201
   0  -9  -7    5.24    0.54   1-0.13359 0.42628 0.83369 0.20762 0.53581 0.88043
   0   9   7    4.89    0.52   1-0.22574-0.78458-0.35955 0.26629 0.90540 0.55991
   0  -9  -7    4.36    0.47   1-0.76444-0.20524-0.32734-0.95521-0.55540-0.21318
   0  10 -10    4.80    0.60   1-0.23779-0.73777-0.18393-0.59705 0.95374 0.31496
   0 -10  10    5.45    0.66   1 0.00097 0.50192-0.99999-0.58656-0.00390 0.63561
   0 -10  10    5.49    0.55   1-0.66724-0.16357 0.56547 0.97433-0.48478 0.15465
   0  10 -10    4.71    0.61   1 0.00644-0.49742 0.99996 0.59104 0.00468-0.63500
   0  10  -9    5.87    0.47   1-0.23484-0.74162-0.24016-0.59093 0.94189 0.31746
   0 -10   9    6.84    0.50   1 0.01786 0.52547-0.99727-0.64617-0.07163 0.55348
   0 -10   9    6.68    0.38   1-0.62690-0.11658 0.63208 0.97865-0.45547 0.16925
   0  10  -9    6.73    0.44   1 0.04092-0.46952 0.99871 0.65208 0.02973-0.59525
   0  10  -8   12.11    0.79   1-0.23076-0.74435-0.30015-0.58857 0.92555 0.31545
   0 -10   8   13.34    0.75   1 0.03896 0.55324-0.98694-0.69816-0.15629 0.45440
   0 -10   8   12.80    0.63   1-0.58103-0.06407 0.69583 0.98010-0.42214 0.18786
   0  10  -7   20.64    1.14   1-0.22522-0.74561-0.36508-0.59115 0.90331 0.30755
   0 -10   7   22.12    1.10   1 0.06462 0.58556-0.96366-0.73720-0.25918 0.33711
   0 -10   7   20.16    0.94   1-0.52989-0.00628 0.75564 0.97761-0.38499 0.21030
   0  10  -6   23.85    1.03   1-0.09492-0.62219 0.91980 0.75660 0.38071-0.20106
   0  10  -6   21.38    1.13   1-0.21766-0.74486-0.43640-0.60011 0.87302 0.29159
   0 -10   6   21.23    0.94   1-0.47399 0.05626 0.81039 0.97007-0.34437 0.23620
   0  10  -5    8.33    0.49   1-0.12813-0.66228 0.84821 0.74734 0.51392-0.05342
   0  10  -5    7.22    0.53   1-0.20747-0.74162-0.51431-0.61613 0.83212 0.26528
   0 -10   5    6.91    0.38   1-0.41428 0.12243 0.85893 0.95639-0.30099 0.26517
   0  10  -4   29.10    1.34   1-0.16182-0.70285 0.74333 0.70480 0.64904 0.09613
   0  10  -4   26.88    1.37   1-0.19310-0.73398-0.60240-0.64186 0.77448 0.22197
   0 -10   4   26.41    1.23   1-0.35163 0.19165 0.90060 0.93576-0.25547 0.29598
   0  10  -3   24.74    1.20   1-0.19222-0.74013 0.60719 0.63099 0.77095 0.23247
   0  10  -3   22.45    1.49   1-0.17322-0.72083-0.69806-0.67517 0.69476 0.15659
   0 -10   3   22.65    1.12   1-0.33879 0.21049-0.90809-0.93292-0.24615 0.29213
   0 -10   3   21.42    1.04   1-0.28754 0.26232 0.93470 0.90758-0.20891 0.32784
   0  10  -2   13.98    0.73   1-0.21578-0.77024 0.45207 0.53865 0.86548 0.34142
   0  10  -2   13.30    0.73   1-0.14655-0.70090-0.79561-0.71037 0.58781 0.06397
   0 -10   2   14.24    0.78   1-0.39660 0.15940-0.87159-0.95869-0.28815 0.23556
   0 -10   2   12.84    0.70   1-0.22350 0.33293 0.96108 0.87166-0.16238 0.35966
   0  10  -1    6.39    0.36   1-0.23106-0.79236 0.29627 0.44518 0.92673 0.41709
   0  10  -1    6.45    0.37   1-0.11293-0.67377-0.88434-0.73677 0.45296-0.05646
   0 -10   1    6.41    0.37   1-0.45335 0.10936-0.82823-0.97761-0.32938 0.17975
   0 -10   1    5.91    0.40   1-0.16103 0.40197 0.97999 0.82827-0.11699 0.39034
   0  10   0    4.46    0.32   1-0.23902-0.80717 0.15440 0.36564 0.95866 0.46343
   0  10   0    4.51    0.34   1-0.07472-0.64223-0.95110-0.74119 0.29968-0.19533
   0 -10   0    4.87    0.35   1-0.50776 0.06167-0.77851-0.99015-0.36891 0.12565
   0 -10   0    4.66    0.39   1-0.10150 0.46807 0.99209 0.77809-0.07374 0.41889
   0  10   1    7.00    0.39   1-0.24179-0.81679 0.03261 0.30619 0.96977 0.48897
   0  10   1    6.55    0.40   1-0.03555-0.60974-0.98914-0.71690 0.14258-0.33803
   0 -10  -1    6.98    0.39   1-0.55874 0.01741-0.72319-0.99710-0.40595 0.07404
   0 -10  -1    6.56    0.44   1-0.04603 0.53011 0.99838 0.72208-0.03344 0.44449
   0  10   2    5.62    0.38   1-0.24136-0.82299-0.06799 0.26712 0.96805 0.50132
   0  10   2    5.46    0.47   1 0.00070-0.58021-0.99999-0.66556-0.00283-0.46944
   0 -10  -2    5.19    0.36   1-0.60547-0.02259-0.66323-0.99941-0.43990 0.02552
   0 -10  -2    4.58    0.51   1 0.00456 0.58727 0.99998 0.66139 0.00331 0.46654
   0  10   3    1.92    0.34   1-0.23901-0.82744-0.15451 0.24295 0.95864 0.50625
   0  10   3    1.87    0.34   1 0.03231-0.55526-0.99103-0.59428-0.12960-0.58181
   0 -10  -3    1.88    0.30   1-0.64740-0.05780-0.59968-0.99813-0.47036-0.01950
   0 -10  -3    1.52    0.35   1 0.04977 0.63906 0.99810 0.59722 0.03616 0.48468
   0  10   4    0.19    0.33   1-0.23549-0.83073-0.22887 0.23095 0.94454 0.50649
   0  10   4    0.07    0.32   1 0.05833-0.53591-0.97049-0.51141-0.23395-0.67174
   0 -10  -4   -0.03    0.27   1-0.68424-0.08792-0.53354-0.99426-0.49713-0.06084
   0  10   5    0.06    0.35   1-0.23122-0.83326-0.29414 0.22803 0.92737 0.50366
   0  10   5    0.09    0.33   1 0.07901-0.52189-0.94515-0.42375-0.31692-0.74031
   0 -10  -5   -0.06    0.28   1-0.71674-0.11402-0.46380-0.98845-0.52074-0.09980
   0 -11   8    7.72    0.70   1-0.57212 0.00185 0.70702 0.96988-0.41567 0.24356
   0 -11   7    5.83    0.46   1-0.52365 0.05697 0.76225 0.96281-0.38045 0.26406
   0 -11   6    2.44    0.38   1-0.47153 0.11573 0.81257 0.95084-0.34259 0.28721
   0 -11   5    2.40    0.31   1-0.41668 0.17699 0.85715 0.93321-0.30274 0.31268
   0 -11   4    0.50    0.35   1-0.33401 0.26549-0.91079-0.89452-0.24267 0.35963
   0 -11   4    0.51    0.28   1-0.35980 0.24044 0.89565 0.90942-0.26141 0.33931
   0 -11   3    0.36    0.26   1-0.38518 0.22105-0.87938-0.92538-0.27985 0.30789
   0 -11   3    0.46    0.29   1-0.30214 0.30467 0.92764 0.87911-0.21952 0.36650
   0 -11   2    0.42    0.27   1-0.43632 0.17662-0.84209-0.95036-0.31701 0.25615
   0 -11   2    0.33    0.29   1-0.24487 0.36851 0.95309 0.84227-0.17791 0.39340
   0 -11   1    4.65    0.35   1-0.48641 0.13325-0.79906-0.96960-0.35339 0.20519
   0 -11   1    3.77    0.39   1-0.18914 0.43081 0.97228 0.79917-0.13742 0.41918
   0 -11   0    4.19    0.35   1-0.53446 0.09192-0.75070-0.98351-0.38831 0.15571
   0 -11   0    3.87    0.51   1-0.13600 0.49053 0.98576 0.75036-0.09881 0.44309
   0 -11  -1    4.66    0.37   1-0.57964 0.05345-0.69760-0.99267-0.42113 0.10831
   0 -11  -1    4.38    0.42   1-0.08630 0.54680 0.99429 0.69659-0.06270 0.46449
   0 -11  -2    7.47    0.53   1-0.62131 0.01850-0.64046-0.99781-0.45141 0.06347
   0 -11  -2    7.31    0.51   1-0.04068 0.59898 0.99873 0.63874-0.02956 0.48293
   0 -11  -3    6.30    0.64   1-0.65899-0.01245-0.58007-0.99969-0.47878 0.02152
   0 -11  -3    6.14    0.70   1 0.00040 0.64664 1.00000 0.57771 0.00029 0.49808
   0 -12   3    2.14    0.33   1-0.42815 0.23502-0.84847-0.91564-0.31107 0.32612
   0 -12   3    1.94    0.34   1-0.32019 0.34358 0.91834 0.84842-0.23263 0.40265
   1 -12   1    0.92    0.29   1-0.49046 0.24499-0.79527-0.95512-0.35634 0.16650
   1 -12   1    1.01    0.35   1-0.23672 0.49896 0.95623 0.79341-0.17199 0.34859
   1 -12   2    4.46    0.46   1-0.44345 0.28528-0.83638-0.93396-0.32219 0.21522
   1 -12   2    4.48    0.55   1-0.28632 0.44280 0.93527 0.83475-0.20802 0.32727
   1 -12   3   12.54    0.65   1-0.39572 0.32629-0.87220-0.90751-0.28751 0.26447
   1 -12   3   10.45    0.66   1-0.33709 0.38546 0.90905 0.87082-0.24491 0.30508
   1 -12   4    7.63    0.72   1-0.34816 0.36714-0.90266-0.87570-0.25295 0.31360
   1 -12   4    7.32    0.64   1-0.38815 0.32783 0.87738 0.90144-0.28201 0.28269
   1 -12   5   10.35    0.56   1-0.30163 0.40694-0.92789-0.83866-0.21915 0.36197
   1 -12   5   10.39    0.56   1-0.43862 0.27104 0.84026 0.92667-0.31867 0.26038
   1 -11  -3    6.92    0.43   1-0.64175 0.06363-0.60889-0.99666-0.46625-0.05115
   1 -11  -3    6.60    0.47   1-0.01932 0.68570 0.99971 0.60913-0.01403 0.39846
   1 -11  -2   12.82    0.74   1-0.60081 0.09785-0.66968-0.99517-0.43651-0.00683
   1 -11  -2   12.56    0.81   1-0.06116 0.63728 0.99713 0.66884-0.04443 0.38277
   1 -11  -1    9.51    0.54   1-0.55580 0.13614-0.72663-0.98986-0.40382 0.04042
   1 -11  -1    8.71    0.57   1-0.10733 0.58454 0.99115 0.72516-0.07798 0.36393
   1 -11   0    8.25    0.41   1-0.50732 0.17790-0.77894-0.97990-0.36859 0.09022
   1 -11   0    8.21    0.47   1-0.15732 0.52798 0.98091 0.77720-0.11430 0.34231
   1 -11   1   15.39    0.83   1-0.45615 0.22236-0.82588-0.96457-0.33141 0.14197
   1 -11   1   14.63    0.88   1-0.21041 0.46832 0.96558 0.82417-0.15287 0.31845
   1 -11   2    4.10    0.43   1-0.40326 0.26853-0.86691-0.94333-0.29298 0.19497
   1 -11   2    3.70    0.37   1-0.26569 0.40647 0.94453 0.86541-0.19304 0.29299
   1 -11   3    5.29    0.42   1-0.34973 0.31534-0.90173-0.91588-0.25409 0.24843
   1 -11   3    4.42    0.37   1-0.32211 0.34348 0.91731 0.90049-0.23402 0.26670
   1 -11   4    8.62    0.54   1-0.29670 0.36165-0.93032-0.88220-0.21556 0.30153
   1 -11   4    8.28    0.54   1-0.37852 0.28050 0.88379 0.92925-0.27501 0.24042
   1 -11   5    1.71    0.30   1-0.43384 0.21881 0.84405 0.95186-0.31520 0.21463
   1 -11   6    0.96    0.29   1-0.48696 0.15904 0.79855 0.96866-0.35380 0.19075
   1 -11   7    0.40    0.28   1-0.53706 0.10230 0.74787 0.98027-0.39019 0.16907
   1 -11   8    1.66    0.30   1-0.58345 0.04926 0.69274 0.98744-0.42390 0.15008
   1 -10  -5    3.88    0.42   1-0.70496-0.04333-0.49060-0.98336-0.51218-0.17640
   1 -10  -4    4.21    0.36   1-0.66924-0.01408-0.56185-0.99072-0.48623-0.13515
   1 -10  -3    0.03    0.26   1-0.62891 0.01953-0.62903-0.99563-0.45693-0.09128
   1 -10  -3    0.23    0.32   1 0.02726 0.67532 0.99943 0.63024 0.01980 0.38304
   1 -10  -2   12.72    0.69   1-0.58324 0.05848-0.69300-0.99733-0.42375-0.04352
   1 -10  -2   11.12    0.65   1-0.01906 0.62243 0.99972 0.69283-0.01384 0.36409
   1 -10  -1    0.13    0.25   1-0.53266 0.10234-0.75265-0.99471-0.38700 0.00778
   1 -10  -1    0.07    0.43   1-0.07052 0.56439 0.99619 0.75159-0.05123 0.34141
   1 -10   0    0.22    0.24   1-0.47789 0.15039-0.80688-0.98667-0.34721 0.06214
   1 -10   0    0.26    0.29   1-0.12651 0.50184 0.98769 0.80539-0.09191 0.31543
   1 -10   1    1.03    0.26   1-0.41996 0.20160-0.85471-0.97223-0.30512 0.11881
   1 -10   1    0.80    0.30   1-0.18610 0.43568 0.97318 0.85316-0.13521 0.28685
   1 -10   2    9.61    0.56   1-0.36013 0.25471-0.89545-0.95070-0.26165 0.17685
   1 -10   2    8.49    0.43   1-0.24808 0.36712 0.95182 0.89410-0.18024 0.25652
  -1  10  -3    3.24    0.73   1-0.23537-0.84204 0.23107 0.22363 0.94403 0.49086
  -1  10  -3    3.03    0.75   1-0.23806-0.84477-0.17786-0.18604 0.95482 0.50174
   1 -10   3    2.75    0.30   1-0.29985 0.30827-0.92877-0.92175-0.21786 0.23521
   1 -10   3    2.41    0.31   1-0.31107 0.29756 0.92312 0.92769-0.22600 0.22546
  -1  10  -4    7.14    0.57   1-0.19676-0.79670 0.58180 0.51165 0.78917 0.32165
  -1  10  -4    6.41    0.70   1-0.23830-0.83816-0.17221-0.24275 0.95579 0.48841
   1 -10   4    6.44    0.38   1-0.37357 0.22849 0.88700 0.95386-0.27142 0.19475
  -1  10  -5   18.12    0.95   1-0.14546-0.73852 0.79902 0.66654 0.58343 0.10149
  -1  10  -5   15.58    1.05   1-0.23925-0.83230-0.14796-0.28085 0.95961 0.47790
   1 -10   5   16.73    0.85   1-0.43423 0.16141 0.84374 0.97297-0.31548 0.16512
  -1  10  -6   17.51    0.88   1-0.09628-0.68245 0.91738 0.72257 0.38617-0.11020
  -1  10  -6   15.34    1.03   1-0.24021-0.82645-0.11862-0.31387 0.96344 0.46739
   1 -10   6   16.51    0.79   1-0.49170 0.09729 0.79410 0.98562-0.35724 0.13808
  -1  10  -7   17.67    1.31   1-0.24100-0.82044-0.08697-0.34457 0.96661 0.45623
   1 -10   7   19.06    0.95   1 0.05498 0.63494-0.97382-0.71588-0.22052 0.29043
   1 -10   7   19.44    0.92   1-0.54507 0.03727 0.73896 0.99277-0.39601 0.11402
  -1  10  -8   14.97    1.00   1-0.24157-0.81420-0.05394-0.37390 0.96888 0.44415
   1 -10   8   15.26    0.90   1 0.02266 0.59596-0.99559-0.67533-0.09091 0.43445
   1 -10   8   15.51    0.80   1-0.59366-0.01796 0.67935 0.99546-0.43132 0.09343
  -1  10  -8   15.86    0.84   1 0.03955-0.53623 0.99880 0.68276 0.02873-0.49626
  -1  10  -9   17.51    1.14   1-0.24187-0.80770-0.01996-0.40227 0.97010 0.43103
   1 -10   9   18.95    1.06   1-0.00198 0.56464-0.99996-0.61738 0.00795 0.54773
   1 -10   9   18.66    0.97   1-0.63709-0.06803 0.61633 0.99473-0.46287 0.07659
  -1  10  -9   18.81    1.04   1 0.00091-0.56830 0.99999 0.62167 0.00066-0.53903
  -1  10 -10   11.90    0.78   1-0.24189-0.80091 0.01475-0.42990 0.97018 0.41678
   1 -10  10   12.97    0.73   1-0.02068 0.53914-0.99633-0.55138 0.08295 0.63662
   1 -10  10   12.79    0.57   1-0.67519-0.11278 0.55087 0.99158-0.49055 0.06363
  -1  10 -10   13.17    0.63   1-0.03234-0.59499 0.99920 0.55857-0.02349-0.57790
   1  -9  -7    0.57    0.35   1-0.15064 0.46813 0.78244 0.18799 0.60421 0.86342
  -1   9   7    0.56    0.36   1-0.20555-0.82275-0.52733 0.06655 0.82441 0.56448
   1  -9  -7    0.52    0.41   1-0.75794-0.13984-0.34966-0.94563-0.55068-0.29361
   1  -9  -6    3.71    0.47   1-0.13987 0.47202 0.81590 0.28378 0.56101 0.83466
  -1   9   6    3.79    0.49   1-0.21044-0.82091-0.49327 0.03827 0.84403 0.56976
   1  -9  -6    2.85    0.43   1-0.73265-0.12125-0.42409-0.95780-0.53230-0.26059
   1  -9  -5    2.08    0.35   1-0.12415 0.48086 0.85826 0.38848 0.49795 0.78603
  -1   9   5    2.15    0.35   1-0.21495-0.81923-0.45879 0.01081 0.86215 0.57335
   1  -9  -5    1.57    0.40   1-0.70130-0.09659-0.49855-0.96998-0.50952-0.22316
   1  -9  -4    4.21    0.40   1-0.10133 0.49680 0.90805 0.50060 0.40641 0.70892
  -1   9   4    4.23    0.46   1-0.21936-0.81683-0.42165-0.01440 0.87981 0.57668
   1  -9  -4    3.87    0.41   1-0.66251-0.06429-0.57391-0.98161-0.48134-0.17972
  -1   9   3    5.15    0.38   1-0.22359-0.81426-0.38180-0.03690 0.89678 0.57931
  -1   9   3    4.69    0.34   1 0.06836-0.52147-0.95923-0.61494-0.27420-0.59153
   1  -9  -3    4.82    0.43   1-0.61799-0.02649-0.64535-0.99078-0.44900-0.13280
  -1   9   2   26.31    1.14   1-0.22774-0.81161-0.33730-0.05475 0.91343 0.58162
  -1   9   2   24.05    1.11   1 0.02145-0.56171-0.99605-0.71408-0.08605-0.41780
   1  -9  -2   26.22    1.16   1-0.56694 0.01783-0.71337-0.99654-0.41190-0.08114
   1  -9  -2   23.74    1.05   1 0.02399 0.60853 0.99956 0.71406 0.01743 0.34611
  -1   9   1   17.65    0.75   1-0.23198-0.80905-0.28363-0.06343 0.93044 0.58429
  -1   9   1   16.48    0.83   1-0.04149-0.61798-0.98518-0.76545 0.16643-0.17936
   1  -9  -1   18.10    0.74   1-0.50981 0.06824-0.77645-0.99735-0.37040-0.02506
   1  -9  -1   17.44    0.80   1-0.03369 0.54426 0.99913 0.77593-0.02448 0.31890
  -1   9   0   33.49    1.21   1-0.23662-0.80689-0.20815-0.05031 0.94904 0.58855
  -1   9   0   32.72    1.17   1-0.11601-0.68583-0.87752-0.72012 0.46529 0.10510
   1  -9   0   34.49    1.22   1-0.44752 0.12382-0.83306-0.99169-0.32514 0.03476
   1  -9   0   32.85    1.20   1-0.09687 0.47452 0.99280 0.83189-0.07038 0.28770
  -1   9  -1   25.46    2.22   1-0.24131-0.80479-0.07064 0.02484 0.96787 0.59303
  -1   9  -1   24.08    2.23   1-0.18159-0.74496-0.66071-0.56561 0.72833 0.35371
   1  -9   1   23.81    0.89   1-0.38142 0.18320-0.88188-0.97824-0.27712 0.09735
   1  -9   1   22.34    0.89   1-0.16430 0.40051 0.97916 0.88054-0.11937 0.25342
  -1   9  -2   23.96    1.98   1-0.23699-0.79366 0.20075 0.23451 0.95054 0.56134
  -1   9  -2   23.02    1.99   1-0.21548-0.77211-0.45458-0.42183 0.86424 0.47528
   1  -9   2   21.65    0.83   1-0.31326 0.24464-0.92198-0.95607-0.22760 0.16144
   1  -9   2   21.01    0.83   1-0.23434 0.32391 0.95712 0.92080-0.17026 0.21724
  -1   9  -3   31.33    1.16   1-0.20351-0.75332 0.54065 0.51208 0.81625 0.41264
  -1   9  -3   30.73    1.37   1-0.22740-0.77725-0.34125-0.37047 0.91205 0.50854
   1  -9   3   29.86    1.05   1-0.30507 0.24660 0.92617 0.95214-0.22165 0.18055
  -1   9  -4    6.74    0.34   1-0.14691-0.68999 0.79449 0.70326 0.58923 0.17124
  -1   9  -4    6.15    0.60   1-0.23285-0.77590-0.27123-0.36281 0.93392 0.51608
   1  -9   4    6.33    0.37   1-0.37453 0.17057 0.88638 0.97464-0.27211 0.14479
  -1   9  -5   19.65    0.78   1-0.08858-0.62478 0.93054 0.77697 0.35531-0.07710
  -1   9  -5   17.97    0.95   1-0.23608-0.77232-0.21833-0.37226 0.94688 0.51471
   1  -9   5   18.06    0.74   1-0.44098 0.09764 0.83837 0.98901-0.32039 0.11098
  -1   9  -6   21.02    1.25   1-0.23828-0.76772-0.17269-0.38898 0.95571 0.50920
   1  -9   6   22.99    1.05   1 0.03964 0.56950-0.98648-0.76988-0.15901 0.28800
   1  -9   6   22.42    0.95   1-0.50284 0.02913 0.78337 0.99630-0.36533 0.08076
  -1   9  -7    2.05    0.32   1-0.23985-0.76248-0.13060-0.40924 0.96198 0.50113
   1  -9   7    2.59    0.40   1 0.00249 0.52569-0.99994-0.72102-0.01001 0.45140
   1  -9   7    2.32    0.29   1-0.55915-0.03381 0.72271 0.99793-0.40624 0.05456
  -1   9  -7    2.35    0.42   1 0.00815-0.51724 0.99994 0.72480 0.00592-0.45510
  -1   9  -8    2.43    0.47   1-0.24093-0.75676-0.09039-0.43139 0.96632 0.49113
   1  -9   8    2.73    0.32   1-0.02508 0.49134-0.99461-0.65333 0.10059 0.57596
   1  -9   8    2.69    0.30   1-0.60933-0.09064 0.65782 0.99534-0.44270 0.03282
  -1   9  -8    2.68    0.34   1-0.03746-0.55629 0.99892 0.66149-0.02722-0.50295
  -1   9  -9    0.33    0.32   1-0.24160-0.75062-0.05122-0.45457 0.96902 0.47949
   1  -9   9    0.15    0.34   1-0.04488 0.46486-0.98263-0.57902 0.18002 0.66979
  -1   9 -10    1.94    0.41   1-0.24190-0.74412-0.01261-0.47832 0.97021 0.46635
   1  -9  10    2.18    0.36   1-0.05903 0.44404-0.96977-0.50382 0.23676 0.74093
  -1   9 -10    2.15    0.35   1-0.10953-0.61522 0.99079 0.52877-0.07957-0.58472
  -1   9 -11    0.07    0.34   1-0.24185-0.73687 0.02369-0.50353 0.97002 0.45107
   1  -9  11    0.16    0.35   1-0.06894 0.42746-0.95853-0.43025 0.27651 0.79508
   1  -8  -9   10.74    0.70   1-0.18399 0.39169 0.64925-0.04878 0.73797 0.91880
  -1   8   9   10.17    0.63   1-0.19975-0.77364-0.56413 0.13346 0.80115 0.61940
  -1   8   9    8.85    0.55   1-0.31111-0.88598-0.92309-0.22521-0.22604-0.40535
   1  -8  -9    9.15    0.55   1-0.79407-0.21948-0.19128-0.89048-0.57693-0.39858
   1  -8  -8    0.91    0.34   1-0.18103 0.38777 0.66334 0.02764 0.72608 0.92133
  -1   8   8    0.86    0.33   1-0.20510-0.77226-0.53026 0.10498 0.82264 0.62656
  -1   8   8    0.78    0.31   1-0.29549-0.86364-0.93090-0.29529-0.21468-0.40856
   1  -8  -8    0.58    0.42   1-0.77984-0.21195-0.26612-0.90305-0.56658-0.37359
   1  -8  -7   46.31    0.89   1-0.17600 0.38591 0.68606 0.11268 0.70593 0.91562
  -1   8   7   44.92    1.00   1-0.21017-0.77060-0.49519 0.07771 0.84297 0.63255
   1  -8  -7   40.26    1.94   1-0.75998-0.19879-0.34283-0.91749-0.55216-0.34451
   1  -8  -6   24.96    1.06   1-0.16809 0.38695 0.71919 0.20815 0.67417 0.89829
  -1   8   6   24.75    1.08   1-0.21489-0.76916-0.45933 0.05158 0.86187 0.63695
   1  -8  -6   21.69    1.04   1-0.73382-0.17933-0.42100-0.93338-0.53315-0.31086
   1  -8  -5   14.54    0.77   1-0.15591 0.39224 0.76460 0.31590 0.62535 0.86391
  -1   8   5   14.15    0.79   1-0.21949-0.76696-0.42052 0.02803 0.88033 0.64107
   1  -8  -5   12.94    0.76   1-0.70065-0.15287-0.49994-0.95004-0.50905-0.27211
   1  -8  -4   16.01    0.74   1-0.13728 0.40399 0.82338 0.43701 0.55062 0.80361
  -1   8   4   15.90    0.68   1-0.22391-0.76458-0.37859 0.00761 0.89806 0.64447
   1  -8  -4   15.03    0.74   1-0.65883-0.11756-0.58034-0.96688-0.47867-0.22650
   1  -8  -3   10.17    0.40   1-0.10864 0.42575 0.89348 0.56945 0.43574 0.70317
  -1   8   3   10.02    0.48   1-0.22822-0.76209-0.33172-0.00787 0.91535 0.64742
   1  -8  -3    9.77    0.44   1-0.60977-0.07521-0.65719-0.98145-0.44302-0.17629
  -1   8   2   16.48    0.67   1-0.23250-0.75957-0.27628-0.01478 0.93252 0.65025
  -1   8   2   15.06    0.67   1 0.06457-0.46184-0.96372-0.70272-0.25898-0.54118
   1  -8  -2   16.46    0.65   1-0.55253-0.02469-0.73044-0.99245-0.40143-0.12013
  -1   8   1    2.59    0.26   1-0.23683-0.75709-0.20399-0.00484 0.94989 0.65328
  -1   8   1    2.31    0.27   1-0.00017-0.51993-1.00000-0.80132 0.00072-0.29588
   1  -8  -1    2.46    0.27   1-0.48756 0.03355-0.79799-0.99773-0.35423-0.05835
   1  -8  -1    2.21    0.40   1 0.00334 0.52435 0.99999 0.79819 0.00242 0.29655
  -1   8   0   24.08    0.94   1-0.24085-0.75432-0.09363 0.04316 0.96603 0.65508
  -1   8   0   21.51    0.87   1-0.08342-0.59648-0.93866-0.80226 0.33458 0.02389
   1  -8   0   24.06    0.90   1-0.41602 0.09838-0.85765-0.99511-0.30225 0.00819
   1  -8   0   22.27    0.92   1-0.06867 0.44576 0.99638 0.85688-0.04989 0.25893
  -1   8  -1    0.34    0.18   1-0.24058-0.74726 0.10504 0.18000 0.96492 0.63967
  -1   8  -1    0.32    0.16   1-0.16141-0.66798-0.74487-0.67076 0.64738 0.32228
   1  -8   1    0.10    0.29   1-0.33980 0.16787-0.90751-0.98270-0.24688 0.07813
   1  -8   1    0.38    0.32   1-0.14582 0.36204 0.98362 0.90640-0.10594 0.21758
  -1   8  -2    0.06    0.15   1-0.21814-0.71798 0.43233 0.44497 0.87492 0.53525
  -1   8  -2    0.10    0.14   1-0.20466-0.70450-0.53321-0.52145 0.82085 0.48142
  -1   8  -3    0.97    0.18   1-0.15962-0.65272 0.75143 0.70146 0.64020 0.28616
  -1   8  -3    1.01    0.22   1-0.22180-0.71485-0.39925-0.44952 0.88960 0.53564
   1  -8   3    0.98    0.24   1-0.30572 0.18900 0.92584 0.97322-0.22211 0.13082
  -1   8  -4   18.96    0.71   1-0.08864-0.57486 0.93045 0.81814 0.35552-0.01293
  -1   8  -4   17.63    0.85   1-0.22974-0.71598-0.31325-0.42587 0.92145 0.55316
   1  -8   4   17.66    0.72   1-0.38308 0.10506 0.88078 0.99044-0.27833 0.08931
  -1   8  -5    5.05    0.42   1-0.23424-0.71368-0.24995-0.42492 0.93949 0.55686
   1  -8   5    5.51    0.34   1 0.02815 0.50791-0.99320-0.81795-0.11291 0.27014
   1  -8   5    5.21    0.37   1-0.45565 0.02596 0.82631 0.99835-0.33104 0.05110
  -1   8  -5    5.88    0.38   1 0.04230-0.43928 0.99863 0.82667 0.03073-0.35162
  -1   8  -6    7.37    0.45   1-0.23715-0.70979-0.19744-0.43477 0.95119 0.55422
   1  -8   6    7.66    0.39   1-0.01619 0.45682-0.99775-0.76015 0.06496 0.46203
   1  -8   6    7.10    0.42   1-0.52159-0.04662 0.76441 0.99875-0.37896 0.01790
  -1   8  -6    7.34    0.41   1-0.01977-0.49478 0.99970 0.76545-0.01436-0.41142
  -1   8  -7   19.49    0.91   1-0.23916-0.70499-0.15062-0.45030 0.95922 0.54791
   1  -8   7   20.88    0.87   1-0.04713 0.41920-0.98083-0.68089 0.18906 0.60053
   1  -8   7   20.29    0.78   1-0.58008-0.11176 0.69705 0.99368-0.42145-0.00987
  -1   8  -7   20.46    0.86   1-0.07404-0.54248 0.99580 0.69926-0.05379-0.46555
  -1   8  -8   25.06    1.19   1-0.24053-0.69955-0.10702-0.46905 0.96472 0.53907
   1  -8   8   26.58    1.09   1-0.06848 0.39118-0.95909-0.59682 0.27468 0.70055
   1  -8   8   26.64    1.05   1-0.63079-0.16912 0.62614 0.98507-0.45829-0.03200
  -1   8  -8   27.66    1.11   1-0.12032-0.58220 0.98887 0.63004-0.08742-0.51389
  -1   8  -9   22.50    1.24   1-0.24140-0.69362-0.06535-0.48974 0.96822 0.52823
   1  -8   9   25.27    1.26   1-0.08310 0.36989-0.93914-0.51454 0.33330 0.77357
   1  -8   9   24.72    1.16   1-0.67388-0.21885 0.55332 0.97454-0.48960-0.04859
  -1   8  -9   25.39    1.23   1-0.15890-0.61420 0.98052 0.55939-0.11544-0.55662
  -1   8 -10   18.05    1.00   1-0.24184-0.68726-0.02486-0.51161 0.96999 0.51567
   1  -8  10   20.41    0.95   1-0.09296 0.35336-0.92322-0.43628 0.37285 0.82751
   1  -8  10   19.73    0.87   1-0.70979-0.26141 0.47984 0.96336-0.51569-0.05996
  -1   8 -10   20.34    0.93   1-0.19028-0.63902 0.97194 0.48852-0.13825-0.59413
  -1   8 -11   21.48    1.11   1-0.24189-0.68050 0.01489-0.53420 0.97018 0.50152
   1  -8  11   24.65    0.76   1-0.09938 0.34027-0.91172-0.36245 0.39860 0.86766
   1  -8  11   24.04    1.00   1-0.73911-0.29738 0.40662 0.95243-0.53699-0.06655
  -1   8 -11   25.67    0.80   1-0.21514-0.65730 0.96399 0.41827-0.15630-0.62689
  -1   8 -12   12.99    0.75   1-0.24159-0.67294 0.05229-0.55838 0.96896 0.48512
   1  -8  12   14.44    0.74   1-0.10323 0.32974-0.90437-0.29277 0.41406 0.89752
   1  -8  12   14.53    0.67   1-0.76248-0.32739 0.33427 0.94238-0.55397-0.06881
  -1   8 -12   15.27    0.69   1-0.23412-0.66971 0.95721 0.34920-0.17010-0.65539
   1  -7 -10    3.69    0.47   1-0.20200 0.32371 0.55023-0.18905 0.81020 0.92707
  -1   7  10    3.59    0.53   1-0.19738-0.72123-0.57817 0.16078 0.79167 0.67377
  -1   7  10    3.43    0.46   1-0.38354-0.90818-0.88048-0.14149-0.27865-0.39393
   1  -7 -10    3.42    0.58   1-0.80526-0.28089-0.09619-0.83634-0.58505-0.47077
   1  -7  -9    3.06    0.36   1-0.20166 0.31716 0.55236-0.12459 0.80884 0.94014
  -1   7   9    3.00    0.35   1-0.20285-0.71996-0.54485 0.13175 0.81361 0.68138
  -1   7   9    2.87    0.36   1-0.37357-0.89149-0.88700-0.21028-0.27141-0.40126
   1  -7  -9    2.68    0.47   1-0.79722-0.27955-0.17012-0.84799-0.57921-0.45028
   1  -7  -8    9.87    0.62   1-0.20019 0.31176 0.56144-0.05317 0.80293 0.94867
  -1   7   8   10.51    0.63   1-0.20803-0.71841-0.51040 0.10385 0.83438 0.68781
  -1   7   8    9.56    0.57   1-0.35857-0.86978-0.89640-0.28195-0.26052-0.40494
   1  -7  -8    9.07    0.59   1-0.78395-0.27299-0.24695-0.86255-0.56957-0.42600
   1  -7  -7    1.14    0.37   1-0.19718 0.30788 0.57935 0.02706 0.79086 0.95103
  -1   7   7    1.17    0.28   1-0.21285-0.71713-0.47525 0.07697 0.85371 0.69267
  -1   7   7    0.98    0.37   1-0.33776-0.84224-0.90868-0.35649-0.24539-0.40439
   1  -7  -7    1.00    0.28   1-0.76463-0.26037-0.32664-0.87997-0.55554-0.39731
   1  -7  -6    0.93    0.24   1-0.19196 0.30622 0.60856 0.11860 0.76993 0.94454
  -1   7   6    0.92    0.26   1-0.21754-0.71502-0.43748 0.05239 0.87251 0.69713
  -1   7   6    0.71    0.25   1-0.31018-0.80795-0.92357-0.43366-0.22536-0.39893
   1  -7  -6    0.65    0.25   1-0.73829-0.24072-0.40889-0.89994-0.53640-0.36352
   1  -7  -5    1.82    0.28   1-0.18336 0.30793 0.65228 0.22466 0.73545 0.92449
  -1   7   5    1.85    0.27   1-0.22203-0.71270-0.39708 0.03043 0.89051 0.70080
   1  -7  -5    1.43    0.33   1-0.70384-0.21298-0.49304-0.92182-0.51137-0.32384
   1  -7  -4    5.26    0.35   1-0.16931 0.31510 0.71425 0.34897 0.67909 0.88256
  -1   7   4    5.85    0.39   1-0.22636-0.71023-0.35279 0.01237 0.90790 0.70385
   1  -7  -4    5.33    0.39   1-0.65923-0.17490-0.57966-0.94503-0.47896-0.27625
   1  -7  -3    2.14    0.22   1-0.14601 0.33152 0.79730 0.49434 0.58565 0.80356
  -1   7   3    2.02    0.25   1-0.23061-0.70767-0.30220 0.00061 0.92492 0.70653
   1  -7  -3    2.17    0.26   1-0.60534-0.12773-0.66341-0.96652-0.43981-0.22253
   1  -7  -2   10.39    0.40   1-0.10673 0.36392 0.89740 0.65678 0.42810 0.66045
  -1   7   2   10.57    0.44   1-0.23482-0.70509-0.24037 0.00008 0.94184 0.70911
   1  -7  -2   10.81    0.43   1-0.54092-0.07003-0.74360-0.98444-0.39300-0.16115
  -1   7   1   11.52    0.47   1-0.23897-0.70243-0.15568 0.02242 0.95846 0.71139
  -1   7   1   10.21    0.48   1 0.04098-0.42200-0.98554-0.80785-0.16438-0.41144
   1  -7  -1   11.66    0.52   1-0.46633-0.00215-0.81715-0.99572-0.33881-0.09239
   1  -7  -1   10.46    0.48   1 0.04088 0.50493 0.99872 0.81832 0.02970 0.27456
  -1   7   0   51.13    1.62   1-0.24188-0.69854-0.01718 0.09857 0.97015 0.70874
  -1   7   0   47.71    1.54   1-0.05494-0.51125-0.97386-0.85845 0.22037-0.04080
   1  -7   0   51.36    1.66   1-0.38308 0.07436-0.88078-0.99708-0.27833-0.01733
   1  -7   0   48.25    1.58   1-0.04235 0.41512 0.99862 0.88052-0.03076 0.22879
  -1   7  -1   35.97    1.19   1-0.23453-0.68440 0.24524 0.29909 0.94066 0.66493
  -1   7  -1   35.34    1.19   1-0.15099-0.60063-0.78130-0.72822 0.60561 0.33003
   1  -7   1   34.57    1.18   1-0.29395 0.15678-0.93165-0.98568-0.21356 0.06199
   1  -7   1   33.58    1.23   1-0.13190 0.31900 0.98661 0.93080-0.09583 0.17843
  -1   7  -2   65.50    1.97   1-0.18709-0.63022 0.63396 0.62524 0.75038 0.46030
  -1   7  -2   65.54    2.05   1-0.20188-0.64494-0.55097-0.56021 0.80973 0.51981
   1  -7   2   58.23    1.83   1-0.22424 0.22009 0.96081 0.96729-0.16292 0.12605
  -1   7  -3   51.07    1.59   1-0.10128-0.53753 0.90813 0.83708 0.40623 0.10172
  -1   7  -3   47.91    1.64   1-0.22073-0.65697-0.40924-0.48054 0.88532 0.58090
   1  -7   3   46.41    1.52   1-0.31535 0.12241 0.92090 0.98967-0.22911 0.07456
  -1   7  -4   45.54    1.59   1-0.22924-0.65868-0.31941-0.45307 0.91946 0.60071
   1  -7   4   46.69    1.61   1 0.02215 0.45182-0.99579-0.86188-0.08886 0.23023
   1  -7   4   48.18    1.64   1-0.40153 0.02966 0.86813 0.99920-0.29172 0.02665
  -1   7  -4   48.09    1.58   1 0.03211-0.39908 0.99921 0.86814 0.02333-0.29505
  -1   7  -5   35.80    1.42   1-0.23400-0.65664-0.25369-0.44971 0.93855 0.60545
   1  -7   5   37.67    1.25   1-0.03308 0.38986-0.99060-0.79434 0.13268 0.46585
   1  -7   5   39.05    1.23   1-0.48010-0.05550 0.80487 0.99833-0.34881-0.01589
  -1   7  -5   39.64    1.30   1-0.04314-0.46777 0.99857 0.80521-0.03134-0.36443
  -1   7  -6   11.65    0.57   1-0.23705-0.65288-0.19957-0.45794 0.95077 0.60334
   1  -7   6   12.22    0.47   1-0.06892 0.34733-0.95854-0.69995 0.27645 0.62402
   1  -7   6   12.61    0.45   1-0.54921-0.13125 0.73426 0.99001-0.39902-0.05138
  -1   7  -6   12.71    0.48   1-0.10852-0.52658 0.99096 0.73531-0.07885-0.42664
  -1   7  -7   38.24    1.36   1-0.23912-0.64815-0.15163-0.47235 0.95907 0.59730
   1  -7   7   41.17    1.29   1-0.09202 0.31756-0.92482-0.60389 0.36909 0.73106
   1  -7   7   40.62    1.23   1-0.60843-0.19712 0.65908 0.97713-0.44205-0.07969
  -1   7  -7   41.64    1.29   1-0.16367-0.57516 0.97931 0.66137-0.11892-0.48142
  -1   7  -8   34.26    1.32   1-0.24052-0.64275-0.10726-0.49033 0.96469 0.58859
   1  -7   8   36.27    1.23   1-0.10693 0.29598-0.89699-0.51373 0.42890 0.80527
   1  -7   8   36.54    1.58   1-0.65803-0.25337 0.58174 0.96208-0.47808-0.10101
  -1   7  -8   35.98    1.78   1-0.20901-0.61393 0.96604 0.58581-0.15185-0.52906
  -1   7  -9    2.05    0.29   1-0.24140-0.63682-0.06505-0.51048 0.96824 0.57779
   1  -7   9    2.06    0.29   1-0.11648 0.27976-0.87644-0.43085 0.46719 0.85795
  -1   7  -9    2.02    0.30   1-0.24539-0.64374 0.95288 0.51035-0.17829-0.57020
  -1   7 -10    3.92    0.35   1-0.24185-0.63046-0.02421-0.53200 0.97001 0.56523
   1  -7  10    4.25    0.44   1-0.12237 0.26719-0.86262-0.35469 0.49082 0.89598
  -1   7 -11    0.15    0.27   1-0.24189-0.62370 0.01576-0.55437 0.97017 0.55105
   1  -7  11    0.23    0.28   1-0.12567 0.25723-0.85448-0.28422 0.50404 0.92360
  -1   7 -11   -0.00    0.30   1-0.29538-0.68059 0.93096 0.36384-0.21461-0.63593
  -1   7 -12    1.62    0.32   1-0.24157-0.61611 0.05335-0.57845 0.96891 0.53459
   1  -7  12    1.77    0.34   1-0.12731 0.24840-0.85031-0.21758 0.51064 0.94390
  -1   7 -12    1.78    0.51   1-0.31094-0.68958 0.92318 0.29377-0.22591-0.66194
  -1   7 -13    0.14    0.43   1-0.24088-0.60857 0.09252-0.60160 0.96613 0.51739
   1  -7  13    0.42    0.32   1-0.12720 0.24178-0.85059-0.15552 0.51019 0.95778
   1  -6 -11    0.48    0.33   1-0.21418 0.26104 0.46495-0.31574 0.85903 0.91223
  -1   6  11    0.32    0.30   1-0.19360-0.66739-0.59963 0.18067 0.77650 0.72245
  -1   6  11    0.27    0.34   1-0.44992-0.92434-0.83108-0.05099-0.32689-0.37814
   1  -6 -11    0.78    0.55   1-0.80899-0.33484 0.00719-0.77389-0.58776-0.53755
   1  -6 -10    5.22    0.40   1-0.21531 0.25306 0.45595-0.26241 0.86356 0.93118
  -1   6  10    5.69    0.48   1-0.19916-0.66623-0.56764 0.15032 0.79882 0.73043
  -1   6  10    4.76    0.41   1-0.44581-0.91351-0.83446-0.11664-0.32390-0.38972
   1  -6 -10    5.46    0.46   1-0.80737-0.33992-0.06364-0.78246-0.58659-0.52172
   1  -6  -9    6.11    0.40   1-0.21581 0.24571 0.45189-0.20413 0.86557 0.94760
  -1   6   9    6.66    0.39   1-0.20443-0.66475-0.53472 0.12089 0.81992 0.73720
  -1   6   9    5.86    0.40   1-0.43734-0.89832-0.84128-0.18573-0.31775-0.39814
   1  -6  -9    6.22    0.43   1-0.80126-0.34052-0.13806-0.79460-0.58215-0.50264
   1  -6  -8   15.95    0.83   1-0.21553 0.23914 0.45416-0.13954 0.86445 0.96090
  -1   6   8   17.16    0.89   1-0.20941-0.66301-0.50068 0.09257 0.83991 0.74286
  -1   6   8   15.88    0.81   1-0.42373-0.87799-0.85186-0.25857-0.30785-0.40282
   1  -6  -8   16.79    0.88   1-0.78985-0.33580-0.21636-0.81062-0.57386-0.47970
   1  -6  -7   19.52    0.79   1-0.21421 0.23361 0.46468-0.06668 0.85917 0.97004
  -1   6   7   20.26    0.81   1-0.21406-0.66154-0.46588 0.06530 0.85856 0.74706
  -1   6   7   18.48    0.77   1-0.40397-0.85151-0.86640-0.33539-0.29350-0.40303
   1  -6  -7   19.23    0.83   1-0.77207-0.32472-0.29874-0.83073-0.56094-0.45213
   1  -6  -6    2.80    0.27   1-0.21139 0.22959 0.48627 0.01722 0.84785 0.97313
  -1   6   6    2.72    0.36   1-0.21857-0.65925-0.42855 0.04028 0.87667 0.75083
  -1   6   6    2.70    0.28   1-0.37679-0.81762-0.88491-0.41616-0.27375-0.39786
   1  -6  -6    2.54    0.28   1-0.74659-0.30594-0.38518-0.85490-0.54243-0.41897
   1  -6  -5  123.46    1.70   1-0.20622 0.22822 0.52283 0.11629 0.82711 0.96663
  -1   6   5  125.81    1.71   1-0.22291-0.65678-0.38857 0.01790 0.89404 0.75386
  -1   6   5  116.28    3.39   1-0.34069-0.77480-0.90700-0.50052-0.24753-0.38620
   1  -6  -5  124.16    1.77   1-0.71183-0.27788-0.47521-0.88265-0.51717-0.37906
   1  -6  -4   58.66    1.71   1-0.19694 0.23062 0.58076 0.23655 0.78989 0.94384
  -1   6   4   61.14    1.82   1-0.22710-0.65416-0.34461-0.00048 0.91086 0.75634
  -1   6   4   53.93    1.61   1-0.29396-0.72135-0.93164-0.58743-0.21358-0.36683
   1  -6  -4   59.71    1.83   1-0.66507-0.23769-0.56937-0.91358-0.48320-0.32995
   1  -6  -3   30.63    1.02   1-0.18005 0.24062 0.66786 0.38599 0.72217 0.89056
  -1   6   3   30.63    1.08   1-0.23122-0.65149-0.29401-0.01224 0.92740 0.75855
   1  -6  -3   32.19    1.11   1-0.60630-0.18563-0.66208-0.94402-0.44050-0.27268
   1  -6  -2   51.23    1.21   1-0.14795 0.26585 0.79118 0.57164 0.59340 0.77623
  -1   6   2   51.55    1.28   1-0.23537-0.64883-0.23109-0.01167 0.94403 0.76084
   1  -6  -2   53.22    1.31   1-0.53354-0.11960-0.75170-0.97137-0.38764-0.20525
  -1   6   1   16.30    0.51   1-0.23949-0.64615-0.14122 0.01583 0.96056 0.76304
   1  -6  -1   16.99    0.53   1-0.44685-0.03962-0.83361-0.99102-0.32465-0.12769
  -1   6   0   47.71    1.35   1-0.24187-0.64172 0.02054 0.11525 0.97009 0.75822
  -1   6   0   43.43    1.23   1-0.02879-0.42835-0.99289-0.89847 0.11547-0.09620
   1  -6   0   48.20    1.45   1-0.34820 0.05230-0.90263-0.99777-0.25298-0.04145
   1  -6   0   43.88    1.30   1-0.01864 0.38187 0.99973 0.90302-0.01354 0.19675
  -1   6  -1   11.88    0.46   1-0.22463-0.61768 0.37120 0.40392 0.90096 0.67476
  -1   6  -1   11.57    0.47   1-0.15245-0.54533-0.77645-0.74437 0.61144 0.38537
   1  -6   1   11.65    0.49   1-0.12468 0.26926 0.98805 0.95363-0.09058 0.13441
  -1   6  -2   31.66    0.95   1-0.13732-0.52359 0.82328 0.79348 0.55076 0.31019
  -1   6  -2   31.91    1.04   1-0.20696-0.59323-0.51778-0.54801 0.83009 0.58970
   1  -6   2   30.32    0.97   1-0.23301 0.15436 0.95762 0.98550-0.16929 0.07041
  -1   6  -3    5.41    0.33   1-0.22376-0.60320-0.38013-0.47248 0.89745 0.64257
   1  -6   3    5.34    0.34   1 0.02616 0.40574-0.99413-0.90156-0.10495 0.15020
   1  -6   3    5.37    0.37   1-0.33746 0.04334 0.90884 0.99901-0.24518 0.00922
  -1   6  -3    5.72    0.35   1 0.03330-0.34750 0.99915 0.90897 0.02420-0.23021
  -1   6  -4    1.93    0.21   1-0.23108-0.60372-0.29589-0.45059 0.92684 0.65763
   1  -6   4    1.93    0.20   1-0.04815 0.32471-0.97999-0.82507 0.19312 0.46239
   1  -6   4    1.92    0.23   1-0.43307-0.05884 0.84465 0.99722-0.31464-0.04567
  -1   6  -4    2.00    0.30   1-0.05999-0.43423 0.99724 0.84478-0.04358-0.31270
  -1   6  -5    0.47    0.18   1-0.23521-0.60104-0.23392-0.45098 0.94337 0.65982
   1  -6   5    0.52    0.16   1-0.09117 0.27501-0.92625-0.70900 0.36569 0.64936
   1  -6   5    0.53    0.25   1-0.51642-0.14884 0.76975 0.98461-0.37520-0.09151
  -1   6  -5    0.54    0.28   1-0.14039-0.50806 0.98482 0.77006-0.10200-0.38582
  -1   6  -6   21.03    0.82   1-0.23786-0.59689-0.18231-0.46172 0.95403 0.65614
   1  -6   6   21.94    0.65   1-0.11616 0.24335-0.87717-0.59758 0.46591 0.76398
   1  -6   6   22.12    0.63   1-0.58663-0.22569 0.68861 0.96577-0.42621-0.12780
  -1   6  -6   21.75    0.69   1-0.20707-0.56817 0.96668 0.68963-0.15044-0.44897
  -1   6  -7    7.59    0.41   1-0.23966-0.59189-0.13617-0.47793 0.96125 0.64902
   1  -6   7    7.58    0.36   1-0.13121 0.22138-0.84012-0.49814 0.52628 0.83835
   1  -6   7    7.68    0.35   1-0.64416-0.28986 0.60499 0.94445-0.46801-0.15488
  -1   6  -7    7.54    1.16   1-0.26070-0.61523 0.94665 0.60731-0.18941-0.50265
  -1   6  -8    4.19    0.38   1-0.24087-0.58629-0.09316-0.49728 0.96607 0.63950
   1  -6   8    4.32    0.37   1-0.14003 0.20584-0.81545-0.41112 0.56163 0.88803
   1  -6   8    4.13    0.29   1-0.69028-0.34263 0.52152 0.92327-0.50151-0.17367
  -1   6  -8    4.16    0.32   1-0.30276-0.65072 0.92733 0.52569-0.21996-0.54790
  -1   6  -9   16.30    0.74   1-0.24159-0.58021-0.05206-0.51853 0.96898 0.62807
   1  -6   9   16.81    0.69   1-0.14505 0.19409-0.80031-0.33364 0.58176 0.92250
   1  -6   9   17.20    0.71   1-0.72655-0.38556 0.43983 0.90388-0.52787-0.18531
  -1   6  -9   16.69    1.13   1-0.33491-0.67630 0.91028 0.44635-0.24333-0.58598
  -1   6 -10   26.72    1.23   1-0.24190-0.57371-0.01214-0.54096 0.97022 0.61498
   1  -6  10   27.59    1.11   1-0.14752 0.18488-0.79254-0.26351 0.59170 0.94677
   1  -6  10   28.05    1.08   1-0.75452-0.42017 0.36079 0.88713-0.54819-0.19092
  -1   6 -10   29.58    1.17   1-0.35879-0.69361 0.89627 0.37005-0.26067-0.61803
  -1   6 -11   22.65    1.13   1-0.24184-0.56641 0.02523-0.56536 0.96998 0.59960
   1  -6  11   23.12    1.09   1-0.14819 0.17748-0.79040-0.19903 0.59438 0.96378
   1  -6  11   24.38    1.12   1-0.77552-0.44781 0.28475 0.87338-0.56345-0.19146
  -1   6 -11   25.59    1.20   1-0.37576-0.70401 0.88558 0.29707-0.27300-0.64506
  -1   6 -12   17.14    0.90   1-0.24142-0.55915 0.06397-0.58895 0.96830 0.58351
   1  -6  12   18.38    0.88   1-0.14750 0.17143-0.79260-0.13888 0.59161 0.97535
   1  -6  12   19.04    0.90   1-0.79081-0.47078 0.21090 0.86210-0.57456-0.18743
  -1   6 -12   20.39    0.99   1-0.38697-0.70865 0.87818 0.22737-0.28115-0.66791
  -1   6 -13   21.09    1.11   1-0.24064-0.55152 0.10248-0.61277 0.96518 0.56597
   1  -6  13   22.64    0.63   1-0.14574 0.16646-0.79815-0.08208 0.58455 0.98262
   1  -6  13   23.59    0.67   1-0.80095-0.48763 0.14078 0.85426-0.58193-0.18015
  -1   6 -13   22.73    0.82   1-0.39331-0.70842 0.87386 0.16076-0.28576-0.68723
   1  -5 -11   12.24    0.73   1-0.22418 0.19422 0.37589-0.38367 0.89913 0.90280
  -1   5  11   12.42    0.70   1-0.19422-0.61123-0.59619 0.16312 0.77898 0.77445
  -1   5  11   10.94    0.69   1-0.51036-0.92783-0.77590-0.01697-0.37080-0.37259
   1  -5 -11   11.99    0.77   1-0.80800-0.39077 0.05010-0.70965-0.58704-0.58624
   1  -5 -10   13.75    0.74   1-0.22564 0.18591 0.36061-0.33663 0.90500 0.92310
  -1   5  10   14.16    0.75   1-0.19955-0.60983-0.56530 0.13166 0.80037 0.78151
  -1   5  10   13.20    0.72   1-0.50829-0.91904-0.77798-0.08132-0.36929-0.38566
   1  -5 -10   14.10    0.78   1-0.80886-0.39833-0.01936-0.71685-0.58767-0.57222
   1  -5  -9   13.17    0.82   1-0.22668 0.17803 0.34933-0.28557 0.90916 0.94167
  -1   5   9   13.61    0.71   1-0.20459-0.60814-0.53365 0.10096 0.82058 0.78738
  -1   5   9   13.46    0.73   1-0.50205-0.90608-0.78415-0.14975-0.36476-0.39570
   1  -5  -9   14.02    0.83   1-0.80550-0.40167-0.09312-0.72834-0.58523-0.55513
   1  -5  -8   11.06    0.51   1-0.22722 0.17063 0.34324-0.22933 0.91134 0.95827
  -1   5   8   11.42    0.50   1-0.20935-0.60617-0.50110 0.07116 0.83968 0.79214
  -1   5   8   10.98    0.46   1-0.49075-0.88807-0.79500-0.22288-0.35655-0.40206
   1  -5  -8   11.26    0.54   1-0.79698-0.39986-0.17179-0.74473-0.57904-0.53430
   1  -5  -7   10.86    0.55   1-0.22714 0.16386 0.34409-0.16615 0.91104 0.97238
  -1   5   7   11.15    0.51   1-0.21379-0.60446-0.46800 0.04214 0.85747 0.79551
  -1   5   7   10.60    0.46   1-0.47319-0.86378-0.81110-0.30125-0.34379-0.40387
   1  -5  -7   11.02    0.60   1-0.78206-0.39164-0.25596-0.76663-0.56820-0.50881
   1  -5  -6   34.20    1.18   1-0.22620 0.15796 0.35455-0.09336 0.90726 0.98302
  -1   5   6   32.79    1.09   1-0.21808-0.60195-0.43285 0.01494 0.87468 0.79838
  -1   5   6   31.61    1.03   1-0.44773-0.83161-0.83289-0.38531-0.32529-0.39994
   1  -5  -6   33.96    1.22   1-0.75901-0.37529-0.34610-0.79449-0.55145-0.47741
   1  -5  -5    3.60    0.27   1-0.22388 0.15343 0.37887-0.00670 0.89795 0.98813
  -1   5   5    3.85    0.29   1-0.22218-0.59925-0.39562-0.01018 0.89113 0.80049
  -1   5   5    3.27    0.32   1-0.41223-0.78939-0.86044-0.47512-0.29950-0.38872
   1  -5  -5    3.77    0.28   1-0.72559-0.34856-0.44227-0.82839-0.52717-0.43848
   1  -5  -4    4.25    0.30   1-0.21909 0.15138 0.42408 0.10082 0.87872 0.98332
  -1   5   4    4.17    0.32   1-0.22614-0.59640-0.35523-0.03214 0.90701 0.80203
  -1   5   4    3.96    0.27   1-0.36404-0.73448-0.89303-0.56998-0.26449-0.36829
   1  -5  -4    4.33    0.28   1-0.67813-0.30769-0.54533-0.86838-0.49269-0.38889
   1  -5  -3    4.78    0.30   1-0.20920 0.15441 0.50215 0.24123 0.83908 0.95810
  -1   5   3    5.13    0.32   1-0.23004-0.59350-0.30946-0.04873 0.92266 0.80335
  -1   5   3    4.49    0.30   1-0.30019-0.66391-0.92860-0.66783-0.21810-0.33647
   1  -5  -3    5.06    0.35   1-0.61500-0.25128-0.64969-0.91047-0.44682-0.32846
   1  -5  -2    5.40    0.30   1-0.18732 0.16961 0.63277 0.43431 0.75133 0.88464
  -1   5   2    5.45    0.34   1-0.23403-0.59069-0.25319-0.05481 0.93867 0.80502
   1  -5  -2    5.18    0.30   1-0.53275-0.17575-0.75255-0.95106-0.38707-0.25413
   1  -5  -1    0.83    0.13   1-0.13300 0.21706 0.83531 0.69919 0.53344 0.68118
  -1   5   1    0.83    0.18   1-0.23834-0.58819-0.17143-0.03540 0.95593 0.80794
   1  -5  -1    0.85    0.17   1-0.43036-0.08007-0.84676-0.98300-0.31267-0.16517
  -1   5   0   24.19    0.70   1-0.24192-0.58497-0.00296 0.07070 0.97029 0.80796
  -1   5   0   21.51    0.65   1-0.00400-0.34681-0.99986-0.92644 0.01604-0.14633
   1  -5   0   22.40    0.69   1-0.31040 0.03316-0.92346-0.99743-0.22552-0.06344
   1  -5   0   23.06    0.75   1 0.00105 0.34461 0.99999 0.92469 0.00076 0.16180
  -1   5  -1   18.47    0.60   1-0.20946-0.54570 0.50033 0.51193 0.84011 0.66342
  -1   5  -1   18.44    0.63   1-0.17318-0.50940-0.69824-0.68711 0.69459 0.51804
   1  -5   1   17.64    0.61   1-0.12796 0.20903 0.98741 0.97439-0.09297 0.08277
  -1   5  -2   68.90    1.61   1-0.21908-0.54857-0.42416-0.47538 0.87868 0.68780
   1  -5   2   65.74    1.51   1 0.05480 0.38428-0.97399-0.92276-0.21982-0.02862
   1  -5   2   65.90    1.52   1-0.25738 0.07304 0.94804 0.99732-0.18700 0.00344
  -1   5  -2   67.59    1.58   1 0.05282-0.27759 0.99786 0.94858 0.03837-0.15206
  -1   5  -3   59.03    1.43   1-0.22974-0.55238-0.31330-0.42669 0.92144 0.71610
   1  -5   3   59.50    1.46   1-0.06054 0.26224-0.96817-0.85460 0.24282 0.44819
   1  -5   3   60.92    1.44   1-0.37725-0.05340 0.88461 0.99619-0.27409-0.06894
  -1   5  -3   60.07    1.46   1-0.06658-0.39043 0.99660 0.88503-0.04837-0.25352
  -1   5  -4   81.92    2.23   1-0.23452-0.55036-0.24533-0.42108 0.94064 0.72096
   1  -5   4   84.65    2.16   1-0.11517 0.20094-0.87940-0.70350 0.46192 0.68169
   1  -5   4   83.43    2.12   1-0.48116-0.16394 0.80391 0.97788-0.34958-0.12983
  -1   5  -4   86.61    2.23   1-0.16861-0.48589 0.97804 0.80417-0.12250-0.34235
  -1   5  -5   73.69    1.97   1-0.23737-0.54640-0.19303-0.43112 0.95204 0.71803
   1  -5   5   78.36    2.00   1-0.14204 0.16725-0.80948-0.57121 0.56969 0.80357
   1  -5   5   78.10    2.03   1-0.56632-0.25575 0.71413 0.95040-0.41145-0.17699
  -1   5  -5   76.54    2.01   1-0.25112-0.56184 0.95060 0.71444-0.18245-0.41701
  -1   5  -6   76.50    1.78   1-0.23926-0.54149-0.14768-0.44813 0.95965 0.71130
   1  -5   6   80.17    1.80   1-0.15594 0.14661-0.76451-0.46389 0.62545 0.87367
   1  -5   6   77.31    1.69   1-0.63378-0.32986 0.62151 0.92008-0.46047-0.21129
  -1   5  -6   78.38    1.74   1-0.31529-0.61944 0.92092 0.62247-0.22907-0.47834
  -1   5  -7   23.30    0.90   1-0.24056-0.53598-0.10592-0.46873 0.96483 0.70214
   1  -5   7   23.78    0.87   1-0.16332 0.13250-0.73771-0.37474 0.65506 0.91761
   1  -5   7   24.91    0.88   1-0.68595-0.38867 0.53017 0.89104-0.49837-0.23447
  -1   5  -7   24.23    0.88   1-0.36379-0.66137 0.89318 0.53244-0.26431-0.52828
  -1   5  -8   22.43    0.86   1-0.24139-0.53001-0.06617-0.49133 0.96816 0.69114
   1  -5   8   22.92    0.82   1-0.16699 0.12210-0.72355-0.29823 0.66976 0.94665
   1  -5   8   23.52    0.81   1-0.72557-0.43494 0.44232 0.86547-0.52715-0.24854
  -1   5  -8   23.46    0.87   1-0.39958-0.69058 0.86951 0.44647-0.29031-0.56899
  -1   5  -9   55.03    1.67   1-0.24183-0.52364-0.02760-0.51512 0.96992 0.67856
   1  -5   9   53.24    1.56   1-0.16832 0.11403-0.71823-0.23056 0.67513 0.96635
   1  -5   9   55.45    1.59   1-0.75513-0.47114 0.35884 0.84429-0.54863-0.25530
  -1   5  -9   58.01    1.68   1-0.42572-0.70970 0.85034 0.36489-0.30930-0.60263
  -1   5 -10   32.13    1.24   1-0.24190-0.51692 0.01025-0.53960 0.97024 0.66454
   1  -5  10   33.22    1.15   1-0.16808 0.10754-0.71922-0.16920 0.67414 0.97969
   1  -5  10   34.73    1.15   1-0.77667-0.49934 0.27990 0.82764-0.56429-0.25624
  -1   5 -10   36.99    1.26   1-0.44342-0.72076 0.83640 0.28866-0.32216-0.63021
  -1   5 -11    2.65    0.31   1-0.24166-0.50942 0.04599-0.56572 0.96926 0.64841
   1  -5  11    2.80    0.31   1-0.16667 0.10222-0.72479-0.11242 0.66850 0.98838
   1  -5  11    2.63    0.31   1-0.79192-0.52212 0.20444 0.81469-0.57537-0.25230
  -1   5 -11    2.84    0.35   1-0.45475-0.72545 0.82705 0.21701-0.33040-0.65316
  -1   5 -12    3.85    0.43   1-0.24108-0.50199 0.08327-0.59077 0.96692 0.63165
   1  -5  12    3.95    0.34   1-0.16436 0.09779-0.73375-0.05904 0.65923 0.99345
   1  -5  12    4.31    0.39   1-0.80175-0.53864 0.13365 0.80618-0.58251-0.24479
  -1   5 -12    3.87    0.51   1-0.46092-0.72497 0.82182 0.14949-0.33488-0.67235
  -1   5 -13    0.42    0.28   1-0.24015-0.49422 0.12049-0.61588 0.96322 0.61353
   1  -5  13    0.64    0.28   1-0.16130 0.09412-0.74525-0.00819 0.64696 0.99552
   1  -5  13    0.36    0.34   1-0.80723-0.55082 0.06630 0.80110-0.58649-0.23412
  -1   5 -14    1.40    0.32   1-0.23889-0.48610 0.15776-0.64095 0.95814 0.59403
   1  -5  14    1.18    0.42   1-0.15760 0.09109-0.75867 0.04074 0.63211 0.99500
   1  -4 -12    0.07    0.29   1-0.22982 0.13861 0.31231-0.48847 0.92176 0.86149
  -1   4  12    0.05    0.27   1-0.18812-0.55508-0.62874 0.17193 0.75451 0.81383
  -1   4  12   -0.06    0.40   1-0.56598-0.93322-0.71454 0.08548-0.41120-0.34897
   1  -4 -12   -0.33    0.52   1-0.79763-0.43062 0.16715-0.63355-0.57951-0.64278
   1  -4 -11    6.59    0.40   1-0.23166 0.12992 0.28805-0.45040 0.92917 0.88332
  -1   4  11    6.58    0.38   1-0.19351-0.55374-0.60011 0.13820 0.77614 0.82113
  -1   4  11    6.38    0.53   1-0.56960-0.93013-0.71012 0.02763-0.41384-0.36618
   1  -4 -11    6.65    0.47   1-0.80457-0.44427 0.10462-0.63380-0.58455-0.63318
   1  -4 -10    0.98    0.37   1-0.23320 0.12153 0.26601-0.41010 0.93533 0.90390
  -1   4  10    0.85    0.35   1-0.19859-0.55209-0.57108 0.10489 0.79650 0.82715
  -1   4  10    0.91    0.42   1-0.57009-0.92390-0.70952-0.03403-0.41419-0.38110
   1  -4 -10    0.90    0.35   1-0.80842-0.45482 0.03812-0.63803-0.58735-0.62133
   1  -4  -9    0.87    0.32   1-0.23444 0.11345 0.24678-0.36700 0.94028 0.92327
  -1   4   9    0.63    0.24   1-0.20336-0.55013-0.54162 0.07200 0.81565 0.83196
  -1   4   9    0.56    0.37   1-0.56683-0.91392-0.71351-0.10028-0.41182-0.39330
   1  -4  -9    0.82    0.32   1-0.80857-0.46166-0.03316-0.64705-0.58746-0.60678
   1  -4  -8    8.59    0.42   1-0.23536 0.10568 0.23119-0.32026 0.94400 0.94141
  -1   4   8    8.37    0.39   1-0.20784-0.54788-0.51170 0.03956 0.83363 0.83561
  -1   4   8    8.12    0.42   1-0.55890-0.89927-0.72300-0.17204-0.40606-0.40212
   1  -4  -8    8.74    0.45   1-0.80408-0.46388-0.11023-0.66184-0.58420-0.58887
   1  -4  -7   18.67    0.59   1-0.23596 0.09823 0.22052-0.26859 0.94640 0.95823
  -1   4   7   19.89    0.55   1-0.21205-0.54536-0.48129 0.00763 0.85052 0.83816
  -1   4   7   19.34    0.55   1-0.54498-0.87864-0.73905-0.25037-0.39595-0.40657
   1  -4  -7   19.74    0.60   1-0.79361-0.46011-0.19421-0.68355-0.57659-0.56661
   1  -4  -6   33.79    1.21   1-0.23616 0.09118 0.21683-0.20995 0.94721 0.97344
  -1   4   6   35.12    1.18   1-0.21595-0.54302-0.45074-0.02399 0.86613 0.83937
  -1   4   6   33.34    1.16   1-0.52312-0.85005-0.76281-0.33639-0.38007-0.40526
   1  -4  -6   38.12    1.27   1-0.77513-0.44833-0.28634-0.71341-0.56317-0.53855
   1  -4  -5   30.45    0.89   1-0.23579 0.08470 0.22356-0.14089 0.94573 0.98639
  -1   4   5   31.33    0.91   1-0.21966-0.53993-0.41895-0.05455 0.88103 0.83993
  -1   4   5   29.78    0.83   1-0.49048-0.81069-0.79525-0.43110-0.35635-0.39612
   1  -4  -5   31.74    0.91   1-0.74572-0.42562-0.38774-0.75253-0.54180-0.50252
   1  -4  -4    8.38    0.41   1-0.23443 0.07922 0.24691-0.05521 0.94025 0.99532
  -1   4   4    8.40    0.40   1-0.22316-0.53662-0.38609-0.08404 0.89505 0.83962
  -1   4   4    8.11    0.37   1-0.44308-0.75658-0.83668-0.53480-0.32191-0.37625
   1  -4  -4    8.66    0.42   1-0.70118-0.38778-0.49880-0.80132-0.50944-0.45552
   1  -4  -3  329.18    5.91   1-0.23084 0.07597 0.29919 0.05939 0.92584 0.99533
  -1   4   3  334.65    6.46   1-0.22648-0.53314-0.35150-0.11181 0.90837 0.83860
  -1   4   3  330.56    5.95   1-0.37570-0.68248-0.88562-0.64601-0.27296-0.34187
   1  -4  -3  342.17    6.52   1-0.63501-0.32823-0.61959-0.85920-0.46136-0.39245
   1  -4  -2  135.85    2.66   1-0.22091 0.07904 0.40760 0.23014 0.88603 0.96994
  -1   4   2  133.32    2.66   1-0.22972-0.52957-0.31355-0.13621 0.92136 0.83725
   1  -4  -2  139.54    2.76   1-0.54268-0.24262-0.74164-0.91898-0.39428-0.31080
   1  -4  -1   63.80    1.02   1-0.18654 0.10656 0.63671 0.52157 0.74819 0.84652
  -1   4   1   63.27    1.13   1-0.23316-0.52621-0.26664-0.15166 0.93516 0.83671
   1  -4  -1   65.62    1.12   1-0.41929-0.12595-0.85521-0.97028-0.30463-0.20658
  -1   4  -2   93.31    1.40   1-0.23335-0.50599-0.26371-0.33579 0.93594 0.79448
   1  -4   2   94.10    1.40   1-0.06663 0.20607-0.96131-0.88908 0.26725 0.40872
   1  -4   2   93.10    1.41   1-0.30652-0.03306 0.92544 0.99612-0.22270-0.08152
  -1   4  -2   95.29    1.47   1-0.05494-0.32841 0.99769 0.92701-0.03991-0.18110
  -1   4  -3   30.77    0.85   1-0.23646-0.50230-0.21120-0.34563 0.94840 0.79260
   1  -4   3   31.96    0.83   1-0.14395 0.12202-0.80370-0.66914 0.57735 0.73304
   1  -4   3   31.47    0.84   1-0.44218-0.17533 0.83741 0.97050-0.32126-0.16545
  -1   4  -3   32.84    0.89   1-0.19099-0.45788 0.97173 0.83876-0.13876-0.29465
  -1   4  -4   27.62    0.83   1-0.23838-0.49741-0.17041-0.36719 0.95610 0.78596
   1  -4   4   28.57    0.80   1-0.17064 0.08859-0.70883-0.51192 0.68441 0.85444
   1  -4   4   28.56    0.77   1-0.54920-0.28899 0.73427 0.92966-0.39901-0.22849
  -1   4  -4   28.15    0.78   1-0.29700-0.55733 0.93017 0.73490-0.21578-0.38638
  -1   4  -5   20.05    0.66   1-0.23976-0.49199-0.13321-0.39235 0.96164 0.77717
   1  -4   5   19.59    0.62   1-0.18182 0.07068-0.65964-0.40038 0.72925 0.91361
   1  -4   5   19.44    0.60   1-0.62953-0.37597 0.62808 0.88576-0.45738-0.27214
  -1   4  -5   19.81    0.63   1-0.37507-0.62883 0.88603 0.62847-0.27250-0.45780
  -1   4  -6    5.66    0.38   1-0.24077-0.48619-0.09747-0.41896 0.96567 0.76686
   1  -4   6    5.48    0.36   1-0.18668 0.05909-0.63602-0.31441 0.74874 0.94744
   1  -4   6    5.58    0.31   1-0.68817-0.44126 0.52575 0.84573-0.49999-0.30003
  -1   4  -6    5.23    0.31   1-0.43114-0.67805 0.84616 0.52619-0.31324-0.51319
  -1   4  -7    0.08    0.18   1-0.24145-0.48007-0.06238-0.44622 0.96840 0.75525
   1  -4   7    0.04    0.17   1-0.18838 0.05066-0.62741-0.24345 0.75555 0.96858
  -1   4  -8   17.27    0.62   1-0.24183-0.47364-0.02755-0.47375 0.96992 0.74243
   1  -4   8   17.26    0.56   1-0.18823 0.04407-0.62816-0.18185 0.75496 0.98233
   1  -4   8   16.56    0.61   1-0.76031-0.52669 0.34172 0.78628-0.55239-0.32301
  -1   4  -8   17.65    0.58   1-0.49631-0.72993 0.78971 0.34514-0.36059-0.58997
  -1   4  -9    7.40    0.45   1-0.24191-0.46692 0.00721-0.50134 0.97026 0.72844
   1  -4   9    7.22    0.43   1-0.18687 0.03870-0.63505-0.12639 0.74952 0.99122
   1  -4   9    7.18    0.43   1-0.78117-0.55419 0.26010 0.76696-0.56755-0.32345
  -1   4  -9    8.08    0.46   1-0.51355-0.74052 0.77268 0.26582-0.37311-0.61721
  -1   4 -10    1.13    0.25   1-0.24172-0.45951 0.04035-0.53015 0.96950 0.71258
   1  -4  10    1.30    0.34   1-0.18464 0.03420-0.64613-0.07512 0.74054 0.99658
   1  -4  10    1.10    0.53   1-0.79525-0.57566 0.18367 0.75298-0.57778-0.31878
  -1   4 -10    0.69    0.55   1-0.52392-0.74424 0.76198 0.19282-0.38065-0.63946
  -1   4 -11    9.29    0.51   1-0.24123-0.45217 0.07532-0.55752 0.96753 0.69620
   1  -4  11    9.92    0.43   1-0.18171 0.03040-0.66016-0.02680 0.72880 0.99917
   1  -4  11    9.22    1.20   1-0.80383-0.59094 0.11303 0.74461-0.58401-0.31037
  -1   4 -11    8.96    1.40   1-0.52898-0.74266 0.75661 0.12516-0.38433-0.65786
  -1   4 -12   19.27    0.97   1-0.24044-0.44453 0.11047-0.58470 0.96435 0.67860
   1  -4  12   20.02    0.96   1-0.17820 0.02717-0.67631 0.01939 0.71473 0.99944
   1  -4  12   18.73    1.29   1-0.80813-0.60194 0.04664 0.74050-0.58714-0.29884
  -1   4 -12   19.02    1.30   1-0.52983-0.73686 0.75570 0.06196-0.38494-0.67319
  -1   4 -13   16.47    0.87   1-0.23933-0.43658 0.14585-0.61165 0.95991 0.65974
   1  -4  13   17.04    0.86   1-0.17418 0.02446-0.69398 0.06407 0.69860 0.99764
   1  -4  13   16.99    0.97   1-0.80891-0.60942-0.01618 0.73993-0.58770-0.28476
  -1   4 -13   16.96    1.08   1-0.52720-0.72759 0.75850 0.00246-0.38303-0.68600
  -1   4 -14   12.62    0.76   1-0.23790-0.42830 0.18150-0.63833 0.95418 0.63959
   1  -4  14   13.66    0.66   1-0.16968 0.02223-0.71276 0.10764 0.68056 0.99394
   1  -4  14   13.56    0.86   1-0.80667-0.61388-0.07607 0.74233-0.58608-0.26848
  -1   4 -14   13.45    0.94   1-0.52162-0.71536 0.76437-0.05395-0.37898-0.69666
   1  -3 -13    3.36    0.51   1-0.23333 0.08513 0.26408-0.57791 0.93585 0.81164
  -1   3  13    3.53    0.42   1-0.18091-0.49783-0.66389 0.17813 0.72561 0.84878
  -1   3  13    3.65    0.46   1-0.61219-0.92920-0.65375 0.18738-0.44478-0.31852
   1  -3 -13    3.75    0.46   1-0.77535-0.45917 0.28543-0.55678-0.56333-0.69220
   1  -3 -12    8.54    0.44   1-0.23526 0.07635 0.23293-0.54673 0.94360 0.83381
  -1   3  12    8.77    0.64   1-0.18636-0.49654-0.63761 0.14206 0.74746 0.85630
  -1   3  12    8.86    0.63   1-0.62041-0.93071-0.64178 0.13708-0.45076-0.33907
   1  -3 -12    9.56    0.58   1-0.78753-0.47744 0.22891-0.55045-0.57217-0.68486
   1  -3 -11   20.21    0.95   1-0.23689 0.06788 0.20277-0.51455 0.95013 0.85476
  -1   3  11   19.97    0.88   1-0.19146-0.49491-0.61123 0.10609 0.76793 0.86243
  -1   3  11   19.29    0.93   1-0.62638-0.92996-0.63287 0.08372-0.45509-0.35797
   1  -3 -11   22.65    1.08   1-0.79704-0.49366 0.17139-0.54570-0.57908-0.67712
   1  -3 -10   25.59    1.15   1-0.23824 0.05968 0.17379-0.48119 0.95552 0.87457
  -1   3  10   26.76    1.06   1-0.19623-0.49295-0.58483 0.07014 0.78705 0.86722
  -1   3  10   23.76    0.99   1-0.62977-0.92663-0.62771 0.02661-0.45755-0.37501
   1  -3 -10   26.07    1.08   1-0.80410-0.50742 0.11001-0.54481-0.58421-0.66760
   1  -3  -9   30.63    1.13   1-0.23932 0.05176 0.14625-0.44641 0.95986 0.89332
  -1   3   9   30.98    1.06   1-0.20067-0.49065-0.55851 0.03411 0.80485 0.87068
  -1   3   9   27.07    0.99   1-0.63007-0.92022-0.62724-0.03518-0.45778-0.38980
   1  -3  -9   29.11    1.08   1-0.80824-0.51825 0.04380-0.54874-0.58722-0.65596
   1  -3  -8   35.24    1.26   1-0.24015 0.04407 0.12052-0.40980 0.96322 0.91110
  -1   3   8   34.23    1.16   1-0.20477-0.48803-0.53243-0.00215 0.82132 0.87282
  -1   3   8   33.36    1.18   1-0.62651-0.90993-0.63268-0.10289-0.45518-0.40178
   1  -3  -8   35.82    1.26   1-0.80868-0.52540-0.02850-0.55879-0.58754-0.64163
   1  -3  -7   38.11    1.41   1-0.24077 0.03660 0.09722-0.37077 0.96569 0.92799
  -1   3   7   41.27    1.37   1-0.20855-0.48506-0.50681-0.03888 0.83644 0.87361
  -1   3   7   40.70    1.36   1-0.61780-0.89451-0.64563-0.17810-0.44886-0.41002
   1  -3  -7   41.44    1.40   1-0.80422-0.52764-0.10864-0.57664-0.58430-0.62374
   1  -3  -6   26.86    0.88   1-0.24119 0.02934 0.07733-0.32833 0.96738 0.94410
  -1   3   6   27.43    0.72   1-0.21196-0.48175-0.48200-0.07642 0.85013 0.87296
  -1   3   6   28.17    0.81   1-0.60194-0.87193-0.66813-0.26287-0.43733-0.41307
   1  -3  -6   29.07    0.86   1-0.79286-0.52298-0.19880-0.60453-0.57605-0.60084
   1  -3  -5   31.70    1.00   1-0.24144 0.02224 0.06260-0.28073 0.96839 0.95952
  -1   3   5   32.65    1.00   1-0.21493-0.47839-0.45898-0.11562 0.86205 0.87049
  -1   3   5   32.04    0.99   1-0.57561-0.83888-0.70268-0.35970-0.41820-0.40851
   1  -3  -5   33.21    1.03   1-0.77130-0.50812-0.30175-0.64521-0.56038-0.57053
   1  -3  -4   89.00    1.92   1-0.24153 0.01530 0.05630-0.22469 0.96875 0.97430
  -1   3   4   92.65    1.96   1-0.21746-0.47413-0.43810-0.15710 0.87222 0.86632
  -1   3   4   92.75    1.93   1-0.53340-0.78995-0.75186-0.47114-0.38754-0.39241
   1  -3  -4   97.45    2.09   1-0.73402-0.47755-0.42046-0.70165-0.53330-0.52880
   1  -3  -3   10.86    0.43   1-0.24140 0.00859 0.06559-0.15308 0.96820 0.98817
  -1   3   3   10.57    0.46   1-0.21930-0.46915-0.42222-0.20357 0.87956 0.85933
  -1   3   3   10.95    0.44   1-0.46666-0.71650-0.81686-0.59841-0.33905-0.35850
   1  -3  -3   11.89    0.45   1-0.67125-0.42142-0.55817-0.77662-0.48769-0.46824
   1  -3  -2   14.70    0.50   1-0.24047 0.00267 0.10917-0.04717 0.96449 0.99888
  -1   3   2   15.03    0.54   1-0.21979-0.46285-0.41776-0.26147 0.88156 0.84699
  -1   3   2   14.64    0.51   1-0.36306-0.60618-0.89364-0.73746-0.26378-0.29780
   1  -3  -2   15.92    0.58   1-0.57107-0.32795-0.70832-0.86450-0.41490-0.38088
   1  -3  -1   11.12    0.43   1-0.23387 0.00242 0.25575 0.16174 0.93802 0.98683
  -1   3   1   11.45    0.47   1-0.21616-0.45241-0.44900-0.35506 0.86698 0.81807
   1  -3  -1   11.66    0.46   1-0.41906-0.18266-0.85538-0.94929-0.30446-0.25587
  -1   3   0    0.05    0.05   1-0.14340-0.37280-0.80535-0.77386 0.57517 0.51200
   1  -3   0    1.57    0.19   1 0.01326 0.24291 0.99986 0.96736 0.00963 0.07214
  -1   3  -1    0.00    0.05   1-0.23472-0.45733 0.24202 0.21137 0.94144 0.86380
   1  -3   1    0.33    0.09   1-0.02738 0.19524-0.99357-0.96268 0.10982 0.18739
   1  -3   1    0.28    0.18   1-0.20462 0.01845 0.96748 0.99727-0.14866-0.07145
  -1   3  -1    0.35    0.18   1-0.00530-0.22838 0.99997 0.97018-0.00385-0.08106
  -1   3  -2   33.47    0.89   1-0.24156-0.45740-0.05441-0.14753 0.96885 0.87693
   1  -3   2   35.06    0.91   1-0.18497 0.03095-0.64449-0.55128 0.74189 0.83373
   1  -3   2   32.83    0.92   1-0.39604-0.17953 0.87198 0.96406-0.28774-0.19582
  -1   3  -2   33.20    0.95   1-0.20212-0.41862 0.96828 0.87620-0.14684-0.23876
  -1   3  -3   19.39    0.64   1-0.24110-0.45013-0.08217-0.23764 0.96701 0.86075
   1  -3   3   21.01    0.64   1-0.20383 0.00535-0.53859-0.38303 0.81753 0.92371
   1  -3   3   19.51    0.61   1-0.53901-0.32918 0.74571 0.90021-0.39162-0.28504
  -1   3  -3   20.44    0.69   1-0.34722-0.55716 0.90321 0.74883-0.25227-0.35889
  -1   3  -4   48.23    0.98   1-0.24123-0.44346-0.07552-0.29335 0.96752 0.84692
   1  -3   4   51.29    0.98   1-0.20874-0.00628-0.50542-0.28751 0.83724 0.95775
   1  -3   4   48.58    0.89   1-0.63633-0.43314 0.61751 0.83431-0.46232-0.34103
  -1   3  -4   50.21    0.94   1-0.44482-0.64801 0.83527 0.61847-0.32318-0.44447
  -1   3  -5   77.02    1.72   1-0.24152-0.43695-0.05732-0.33750 0.96869 0.83376
   1  -3   5   77.56    1.72   1-0.20963-0.01391-0.49907-0.21882 0.84081 0.97566
   1  -3   5   79.33    1.71   1-0.70076-0.50421 0.49972 0.77881-0.50913-0.37312
  -1   3  -5   80.35    1.76   1-0.50739-0.70394 0.77887 0.49978-0.36864-0.50465
  -1   3  -6   74.97    1.98   1-0.24178-0.43040-0.03373-0.37626 0.96974 0.82047
   1  -3   6   75.27    1.98   1-0.20875-0.01976-0.50533-0.16273 0.83728 0.98647
   1  -3   6   71.34    1.82   1-0.74321-0.55331 0.39504 0.73642-0.53997-0.38925
  -1   3  -6   75.79    1.95   1-0.54713-0.73702 0.73663 0.39524-0.39751-0.54823
  -1   3  -7   74.57    1.84   1-0.24191-0.42373-0.00711-0.41200 0.97027 0.80666
   1  -3   7   76.49    1.70   1-0.20687-0.02460-0.51843-0.11347 0.82971 0.99323
   1  -3   7   74.69    1.64   1-0.77115-0.58790 0.30235 0.70602-0.56027-0.39483
  -1   3  -7   77.65    1.77   1-0.57193-0.75518 0.70726 0.30358-0.41553-0.58097
  -1   3  -8   80.10    2.45   1-0.24186-0.41688 0.02143-0.44580 0.97007 0.79212
   1  -3   8   85.01    2.51   1-0.20429-0.02876-0.53557-0.06827 0.81940 0.99725
   1  -3   8   82.34    2.44   1-0.78940-0.61333 0.21887 0.68496-0.57353-0.39324
  -1   3  -8   83.48    2.51   1-0.58674-0.76335 0.68847 0.22250-0.42629-0.60645
  -1   3  -9    6.16    0.35   1-0.24162-0.40944 0.04972-0.47957 0.96909 0.77611
   1  -3   9    6.16    0.34   1-0.20119-0.03239-0.55527-0.02562 0.80695 0.99914
   1  -3   9    6.17    0.37   1-0.80059-0.63122 0.14394 0.67230-0.58166-0.38673
  -1   3  -9    5.93    0.37   1-0.59461-0.76457 0.67808 0.14981-0.43201-0.62688
  -1   3 -10   31.80    1.18   1-0.24113-0.40211 0.08065-0.51098 0.96713 0.75973
   1  -3  10   32.97    1.08   1-0.19764-0.03558-0.57664 0.01536 0.79272 0.99924
   1  -3  10   29.85    1.45   1-0.80672-0.64405 0.07525 0.66589-0.58611-0.37653
  -1   3 -10   29.54    1.28   1-0.59742-0.76073 0.67430 0.08374-0.43405-0.64363
  -1   3 -11   48.72    1.66   1-0.24038-0.39451 0.11240-0.54156 0.96414 0.74233
   1  -3  11   49.86    1.61   1-0.19369-0.03836-0.59911 0.05523 0.77688 0.99773
   1  -3  11   44.22    1.80   1-0.80896-0.65299 0.01150 0.66441-0.58774-0.36351
  -1   3 -11   47.52    1.71   1-0.59636-0.75303 0.67573 0.02287-0.43328-0.65758
  -1   3 -12   19.24    0.97   1-0.23937-0.38665 0.14484-0.57145 0.96006 0.72383
   1  -3  12   20.71    0.98   1-0.18936-0.04076-0.62232 0.09438 0.75951 0.99470
   1  -3  12   19.62    1.41   1-0.80807-0.65880-0.04831 0.66687-0.58709-0.34821
  -1   3 -12   20.13    1.50   1-0.59221-0.74223 0.68128-0.03386-0.43026-0.66928
  -1   3 -13    3.68    0.44   1-0.23806-0.37849 0.17789-0.60073 0.95481 0.70417
   1  -3  13    3.74    0.42   1-0.18466-0.04279-0.64600 0.13304 0.74066 0.99018
  -1   3 -14    2.75    0.34   1-0.23644-0.37003 0.21151-0.62945 0.94834 0.68327
   1  -3  14    3.03    0.33   1-0.17960-0.04446-0.66997 0.17143 0.72033 0.98419
  -1   3 -14    2.99    1.32   1-0.57643-0.71316 0.70165-0.13809-0.41880-0.68725
   1  -2 -13    2.64    0.33   1-0.23735 0.02430 0.19338-0.62747 0.95197 0.77825
  -1   2  13    2.76    0.32   1-0.17813-0.43827-0.67660 0.14443 0.71447 0.88716
  -1   2  13    3.10    0.46   1-0.66088-0.92096-0.57677 0.24319-0.48016-0.30444
   1  -2 -13    2.62    0.46   1-0.75758-0.49841 0.35086-0.46993-0.55041-0.72851
   1  -2 -12    7.71    0.50   1-0.23891 0.01589 0.15729-0.60124 0.95821 0.79890
  -1   2  12    8.08    0.50   1-0.18326-0.43666-0.65280 0.10588 0.73502 0.89337
  -1   2  12    8.49    0.55   1-0.67081-0.92417-0.55899 0.19871-0.48737-0.32622
   1  -2 -12    8.26    0.53   1-0.77102-0.51849 0.30286-0.45564-0.56017-0.72356
   1  -2 -11    8.29    0.44   1-0.24013 0.00782 0.12136-0.57483 0.96312 0.81823
  -1   2  11    8.57    0.41   1-0.18801-0.43468-0.62931 0.06703 0.75406 0.89808
  -1   2  11    8.59    0.44   1-0.67897-0.92561-0.54372 0.15170-0.49330-0.34672
   1  -2 -11    9.18    0.64   1-0.78282-0.53695 0.25239-0.44382-0.56875-0.71742
   1  -2 -10    0.23    0.33   1-0.24103 0.00007 0.08554-0.54832 0.96673 0.83626
  -1   2  10    0.07    0.22   1-0.19238-0.43232-0.60630 0.02768 0.77161 0.90129
  -1   2  10    0.10    0.26   1-0.68520-0.92512-0.53164 0.10151-0.49783-0.36582
   1  -2 -10    0.09    0.26   1-0.79321-0.55345 0.19664-0.43685-0.57630-0.70911
   1  -2  -9   27.66    0.99   1-0.24162-0.00735 0.04974-0.52179 0.96909 0.85303
  -1   2   9   27.17    0.90   1-0.19637-0.42957-0.58406-0.01242 0.78759 0.90294
  -1   2   9   25.14    0.89   1-0.68921-0.92241-0.52368 0.04721-0.50074-0.38330
   1  -2  -9   28.16    0.98   1-0.80117-0.56811 0.13890-0.43232-0.58208-0.70024
   1  -2  -8    0.93    0.23   1-0.24189-0.01482 0.01512-0.49425 0.97018 0.86918
  -1   2   8    0.81    0.27   1-0.19994-0.42641-0.56298-0.05368 0.80192 0.90293
  -1   2   8    0.70    0.24   1-0.69047-0.91695-0.52114-0.01251-0.50165-0.39879
   1  -2  -8    0.94    0.37   1-0.80669-0.58033 0.07575-0.43319-0.58609-0.68960
   1  -2  -7    2.39    0.26   1-0.24186-0.02159-0.02105-0.46807 0.97008 0.88342
  -1   2   7    2.43    0.25   1-0.20304-0.42278-0.54366-0.09671 0.81437 0.90105
  -1   2   7    2.18    0.26   1-0.68810-0.90786-0.52590-0.07954-0.49993-0.41164
   1  -2  -7    2.10    0.35   1-0.80900-0.58934 0.00528-0.44139-0.58777-0.67663
   1  -2  -6    8.78    0.44   1-0.24151-0.02805-0.05777-0.44244 0.96867 0.89635
  -1   2   6    8.82    0.41   1-0.20559-0.41859-0.52706-0.14247 0.82458 0.89692
  -1   2   6    8.54    0.42   1-0.68051-0.89356-0.54077-0.15668-0.49442-0.42070
   1  -2  -6    8.37    0.46   1-0.80671-0.59375-0.07540-0.45980-0.58611-0.66032
   1  -2  -5   50.83    1.36   1-0.24081-0.03415-0.09552-0.41784 0.96585 0.90787
  -1   2   5   53.12    1.27   1-0.20739-0.41366-0.51486-0.19261 0.83180 0.88981
  -1   2   5   52.47    1.27   1-0.66477-0.87109-0.56991-0.24809-0.48298-0.42383
   1  -2  -5   53.78    1.34   1-0.79714-0.59088-0.17070-0.49283-0.57915-0.63872
   1  -2  -4   50.97    1.00   1-0.23970-0.03984-0.13521-0.39517 0.96138 0.91774
  -1   2   4   51.05    1.00   1-0.20806-0.40760-0.51020-0.25031 0.83450 0.87817
  -1   2   4   52.55    0.93   1-0.63506-0.83467-0.61951-0.35996-0.46140-0.41682
   1  -2  -4   51.92    0.96   1-0.77490-0.57534-0.28732-0.54718-0.56299-0.60791
   1  -2  -3   32.10    0.90   1-0.23802-0.04496-0.17883-0.37644 0.95465 0.92534
  -1   2   3   32.23    0.84   1-0.20666-0.39947-0.51986-0.32232 0.82887 0.85821
  -1   2   3   31.64    0.83   1-0.57950-0.77239-0.69778-0.50050-0.42103-0.39102
   1  -2  -3   33.36    0.92   1-0.72854-0.53569-0.43478-0.63237-0.52932-0.55958
   1  -2  -2   10.69    0.44   1-0.23533-0.04908-0.23182-0.36707 0.94386 0.92889
  -1   2   2   11.17    0.45   1-0.20023-0.38630-0.56121-0.42602 0.80308 0.81808
  -1   2   2   11.04    0.44   1-0.47372-0.65990-0.81062-0.67561-0.34418-0.32874
   1  -2  -2   11.32    0.44   1-0.63272-0.44655-0.62316-0.75818-0.45970-0.47513
   1  -2  -1  511.96    4.49   1-0.22949-0.05015-0.31633-0.38917 0.92047 0.91979
  -1   2   1  510.97    4.49   1-0.17440-0.35374-0.69303-0.62018 0.69949 0.70016
   1  -2   0  201.86    2.27   1-0.18507-0.01246-0.64400-0.65449 0.74229 0.75595
  -1   2  -1  122.49    1.55   1-0.20784-0.37362 0.51177 0.45999 0.83360 0.80548
   1  -2   1  122.11    1.67   1-0.24161-0.07577-0.05006 0.00174 0.96907 0.99712
   1  -2   1  127.83    1.82   1-0.33332-0.16720 0.91117 0.96236-0.24217-0.21422
  -1   2  -3   34.69    0.89   1-0.24150-0.39360 0.05848-0.11795 0.96863 0.91168
   1  -2   3   34.67    0.92   1-0.23343-0.08120-0.26254-0.08602 0.93625 0.99297
   1  -2   3   35.30    0.90   1-0.66429-0.51146 0.57077 0.74668-0.48263-0.42528
  -1   2  -3   34.21    0.86   1-0.53268-0.68550 0.75263 0.57672-0.38701-0.44436
  -1   2  -4   90.26    1.36   1-0.24180-0.38704 0.03143-0.20733 0.96981 0.89844
   1  -2   4   92.27    1.34   1-0.23010-0.08467-0.30871-0.06985 0.92290 0.99395
   1  -2   4   91.92    1.33   1-0.72925-0.58308 0.43295 0.67116-0.52983-0.45777
  -1   2  -4   94.55    1.35   1-0.59811-0.74429 0.67336 0.43515-0.43455-0.50662
  -1   2  -5   47.43    1.21   1-0.24181-0.38021 0.02940-0.27170 0.96987 0.88408
   1  -2   5   49.54    1.25   1-0.22679-0.08816-0.34811-0.04689 0.90960 0.99500
   1  -2   5   47.39    1.14   1-0.76612-0.62659 0.32130 0.62180-0.55661-0.46983
  -1   2  -5   51.38    1.24   1-0.63337-0.77290 0.62215 0.32166-0.46017-0.54695
  -1   2  -6   23.64    0.73   1-0.24173-0.37328 0.03952-0.32391 0.96953 0.86933
   1  -2   6   23.54    0.68   1-0.22336-0.09154-0.38412-0.02054 0.89585 0.99558
   1  -2   6   21.99    0.66   1-0.78769-0.65514 0.22805 0.59092-0.57229-0.47072
  -1   2  -6   24.85    1.11   1-0.65233-0.78522 0.59146 0.22866-0.47395-0.57544
  -1   2  -7   26.52    0.86   1-0.24153-0.36623 0.05652-0.36924 0.96874 0.85412
   1  -2   7   26.89    0.83   1-0.21975-0.09474-0.41813 0.00779 0.88140 0.99547
   1  -2   7   24.92    0.79   1-0.80003-0.67418 0.14862 0.57377-0.58125-0.46503
  -1   2  -7   22.88    2.97   1-0.66180-0.78804 0.57516 0.15007-0.48083-0.59704
  -1   2  -8    6.46    0.39   1-0.24118-0.35904 0.07783-0.41026 0.96735 0.83831
   1  -2   8    6.48    0.34   1-0.21594-0.09772-0.45082 0.03746 0.86610 0.99450
  -1   2  -9    0.19    0.20   1-0.24065-0.35166 0.10207-0.44835 0.96522 0.82177
   1  -2   9    0.31    0.20   1-0.21192-0.09990-0.48231 0.06833 0.84997 0.99264
  -1   2 -10    8.62    0.41   1-0.23991-0.34408 0.12843-0.48432 0.96226 0.80438
   1  -2  10    9.22    0.41   1-0.20762-0.10233-0.51327 0.09972 0.83273 0.98973
  -1   2 -11    4.48    0.33   1-0.23894-0.33625 0.15640-0.51868 0.95835 0.78606
   1  -2  11    4.59    0.33   1-0.20305-0.10450-0.54358 0.13175 0.81441 0.98575
  -1   2 -12    0.33    0.32   1-0.23771-0.32818 0.18566-0.55176 0.95342 0.76671
   1  -2  12    0.21    0.34   1-0.19821-0.10639-0.57334 0.16434 0.79497 0.98064
  -1   2 -13    4.39    0.36   1-0.23621-0.31983 0.21598-0.58377 0.94739 0.74626
   1  -2  13    4.62    0.35   1-0.19306-0.10797-0.60259 0.19744 0.77434 0.97434
  -1   2 -14    9.04    0.54   1-0.23441-0.31118 0.24721-0.61487 0.94017 0.72463
   1  -2  14    9.27    0.48   1-0.18760-0.10925-0.63136 0.23103 0.75245 0.96679
   1  -2  14    9.05    1.02   1-0.78430-0.70536-0.24526 0.61579-0.56983-0.35107
  -1   2 -14   10.00    1.36   1-0.62463-0.70434 0.63551-0.22563-0.45382-0.67304
   1  -1 -14    0.85    0.43   1-0.23850-0.02681 0.16750-0.69457 0.95658 0.71892
  -1   1  14    0.79    0.30   1-0.16885-0.37894-0.71611 0.14628 0.67724 0.91378
  -1   1  14    0.77    0.30   1-0.69194-0.90179-0.51814 0.34293-0.50272-0.26298
   1  -1 -14    0.75    0.31   1-0.71719-0.50839 0.46272-0.39897-0.52107-0.76312
   1  -1 -13    4.11    0.36   1-0.23995-0.03511 0.12714-0.67259 0.96242 0.73917
  -1   1  13    4.31    0.35   1-0.17399-0.37735-0.69477 0.10527 0.69786 0.92006
  -1   1  13    4.80    0.46   1-0.70462-0.90757-0.49133 0.30765-0.51194-0.28577
   1  -1 -13    4.58    0.46   1-0.73281-0.53066 0.42367-0.37572-0.53242-0.75975
   1  -1 -12    4.82    0.44   1-0.24101-0.04302 0.08638-0.65102 0.96666 0.75783
  -1   1  12    5.34    0.36   1-0.17872-0.37534-0.67395 0.06373 0.71682 0.92469
  -1   1  12    5.41    0.37   1-0.71571-0.91195-0.46621 0.27050-0.51999-0.30847
   1  -1 -12    5.26    0.37   1-0.74714-0.55163 0.38355-0.35355-0.54283-0.75544
   1  -1 -11    8.48    0.43   1-0.24167-0.05053 0.04501-0.63006 0.96931 0.77489
  -1   1  11    8.50    0.41   1-0.18302-0.37291-0.65392 0.02141 0.73408 0.92761
  -1   1  11    8.35    0.42   1-0.72545-0.91499-0.44261 0.23183-0.52707-0.33020
   1  -1 -11    8.95    0.49   1-0.76021-0.57135 0.34206-0.33274-0.55232-0.75022
   1  -1 -10   18.65    0.81   1-0.24191-0.05804 0.00408-0.60895 0.97028 0.79107
  -1   1  10   19.73    0.79   1-0.18688-0.37004-0.63501-0.02201 0.74955 0.92875
  -1   1  10   19.73    0.81   1-0.73383-0.91667-0.42098 0.19118-0.53316-0.35093
   1  -1 -10   20.58    0.79   1-0.77204-0.58983 0.29883-0.31367-0.56092-0.74410
   1  -1  -9   39.51    1.37   1-0.24173-0.06465-0.03950-0.59019 0.96953 0.80466
  -1   1   9   39.24    1.30   1-0.19025-0.36667-0.61768-0.06703 0.76306 0.92793
  -1   1   9   38.88    1.32   1-0.74078-0.91692-0.40195 0.14793-0.53820-0.37063
   1  -1  -9   41.82    1.45   1-0.78263-0.60706 0.25328-0.29693-0.56861-0.73708
   1  -1  -8   54.33    1.82   1-0.24104-0.07077-0.08501-0.57334 0.96678 0.81624
  -1   1   8   55.17    1.72   1-0.19305-0.36274-0.60263-0.11433 0.77431 0.92484
  -1   1   8   52.97    1.69   1-0.74615-0.91559-0.38648 0.10113-0.54211-0.38918
   1  -1  -8   57.38    1.81   1-0.79226-0.62282 0.20246-0.28516-0.57561-0.72854
   1  -1  -7   60.83    1.49   1-0.23976-0.07629-0.13333-0.55931 0.96163 0.82543
  -1   1   7   63.63    1.48   1-0.19517-0.35813-0.59088-0.16493 0.78279 0.91898
   1  -1  -7   64.78    1.56   1-0.79996-0.63722 0.14916-0.27618-0.58120-0.71948
   1  -1  -6   69.73    1.96   1-0.23770-0.08103-0.18592-0.54955 0.95337 0.83151
  -1   1   6   68.96    1.84   1-0.19636-0.35258-0.58410-0.22050 0.78756 0.90942
   1  -1  -6   71.36    1.95   1-0.80579-0.64975 0.08916-0.27391-0.58544-0.70907
   1  -1  -5   89.43    2.03   1-0.23453-0.08467-0.24527-0.54654 0.94065 0.83313
  -1   1   5   90.96    1.94   1-0.19618-0.34567-0.58512-0.28387 0.78685 0.89438
  -1   1   5   85.71    1.86   1-0.74778-0.89712-0.38161-0.08081-0.54330-0.43431
   1  -1  -5   88.56    1.98   1-0.80887-0.65954 0.01856-0.28224-0.58768-0.69666
   1  -1  -4   55.17    1.02   1-0.22952-0.08646-0.31600-0.55493 0.92057 0.82739
  -1   1   4   58.41    1.03   1-0.19370-0.33646-0.59909-0.36019 0.77689 0.87008
  -1   1   4   56.89    1.05   1-0.73796-0.88059-0.40980-0.17127-0.53616-0.44182
   1  -1  -4   59.20    1.10   1-0.80702-0.66439-0.07012-0.30866-0.58633-0.68067
   1  -1  -3   79.35    1.30   1-0.22090-0.08465-0.40765-0.58422 0.88601 0.80716
  -1   1   3   80.97    1.27   1-0.18661-0.32264-0.63637-0.45982 0.74846 0.82732
  -1   1   3   81.88    1.21   1-0.71237-0.84830-0.47396-0.29771-0.51756-0.43788
   1  -1  -3   79.91    1.22   1-0.79382-0.65788-0.19291-0.36916-0.57674-0.65643
   1  -1  -2  195.48    2.09   1-0.20326-0.07397-0.54223-0.65644 0.81526 0.75074
  -1   1   2  191.94    2.11   1-0.16801-0.29731-0.71948-0.60528 0.67387 0.73840
  -1   1   2  185.53    2.00   1-0.64065-0.76988-0.61065-0.49680-0.46546-0.40057
   1  -1  -2  193.09    2.07   1-0.74578-0.61654-0.38758-0.50156-0.54184-0.60687
   1  -1  -1   30.86    0.82   1-0.15432-0.03184-0.77011-0.82191 0.61895 0.56872
  -1   1   1   32.62    0.82   1-0.11091-0.23338-0.88871-0.83692 0.44483 0.49507
  -1   1   1   31.34    0.87   1-0.40289-0.52541-0.86717-0.81558-0.29272-0.24240
   1  -1  -1   32.78    0.97   1-0.55451-0.43200-0.72815-0.77973-0.40287-0.45319
   1  -1   0   37.50    0.98   1 0.01192 0.12770-0.99878-0.98828-0.04784-0.08363
  -1   1   0   38.54    1.01   1 0.06742-0.04834-0.96037-0.97087-0.27042-0.23463
   1  -1   0   37.18    1.13   1-0.19420-0.07847 0.97075 0.98105-0.14109-0.17711
  -1   1   0   37.65    1.09   1-0.03225-0.14798 0.99920 0.98890-0.02343 0.01258
  -1   1  -1    6.26    0.34   1-0.18875-0.29773 0.62548 0.55258 0.75706 0.77846
   1  -1   1    6.33    0.32   1-0.21545-0.10648 0.45475 0.52766 0.86415 0.84275
   1  -1   1    5.97    0.33   1-0.60739-0.49829 0.66054 0.73327-0.44130-0.46261
  -1   1  -1    5.81    0.32   1-0.50932-0.61843 0.77694 0.70421-0.37005-0.34873
  -1   1  -2    0.63    0.14   1-0.22866-0.33079 0.32643 0.19120 0.91714 0.92412
   1  -1   2    0.66    0.12   1-0.24003-0.13790 0.12465 0.25988 0.96272 0.95574
   1  -1   2    0.66    0.18   1-0.73286-0.63041 0.42354 0.55857-0.53245-0.53905
  -1   1  -2    0.72    0.18   1-0.65772-0.76017 0.58228 0.44725-0.47786-0.47126
  -1   1  -3    2.92    0.22   1-0.23701-0.33229 0.20044 0.00288 0.95060 0.94317
   1  -1   3    3.07    0.23   1-0.24172-0.14629-0.04042 0.15712 0.96950 0.97668
   1  -1   3    2.79    0.22   1-0.77702-0.68121 0.27843 0.47575-0.56454-0.55642
  -1   1  -3    3.00    0.26   1-0.70684-0.80265 0.48643 0.28911-0.51355-0.52167
  -1   1  -4   15.49    0.54   1-0.23930-0.32773 0.14665-0.11324 0.95980 0.93795
   1  -1   4   15.82    0.53   1-0.23940-0.15078-0.14381 0.11609 0.96020 0.98172
   1  -1   4   16.05    0.59   1-0.79612-0.70709 0.17778 0.43744-0.57842-0.55556
  -1   1  -4   15.42    0.56   1-0.72579-0.81495 0.44177 0.18216-0.52731-0.55015
  -1   1  -5   14.51    0.54   1-0.23999-0.32158 0.12591-0.19631 0.96257 0.92630
   1  -1   5   14.89    0.53   1-0.23605-0.15423-0.21891 0.10334 0.94676 0.98261
   1  -1   5   14.46    0.59   1-0.80493-0.72260 0.10030 0.42223-0.58482-0.54731
  -1   1  -5   13.24    0.54   1-0.73281-0.81533 0.42367 0.10176-0.53242-0.56997
  -1   1  -6   24.18    0.73   1-0.24009-0.31483 0.12263-0.26192 0.96297 0.91228
   1  -1   6   25.31    0.73   1-0.23230-0.15728-0.27917 0.10543 0.93171 0.98190
   1  -1   6   23.19    0.73   1-0.80849-0.73287 0.03579 0.41999-0.58740-0.53525
  -1   1  -6   21.40    0.72   1-0.73396-0.80983 0.42063 0.03642-0.53325-0.58552
  -1   1  -7   59.96    1.65   1-0.23988-0.30777 0.12963-0.31725 0.96210 0.89700
   1  -1   7   63.25    1.71   1-0.22831-0.16009-0.33070 0.11626 0.91570 0.98023
   1  -1   7   56.99    2.01   1-0.80884-0.73991-0.02076 0.42571-0.58765-0.52085
  -1   1  -7   56.39    2.31   1-0.73162-0.80084 0.42681-0.01968-0.53155-0.59854
  -1   1  -8   45.30    1.21   1-0.23942-0.30046 0.14322-0.36599 0.96029 0.88077
   1  -1   8   46.31    1.16   1-0.22410-0.16269-0.37663 0.13268 0.89884 0.97771
   1  -1   8   45.82    1.55   1-0.80690-0.74468-0.07214 0.43660-0.58625-0.50480
  -1   1  -8   45.52    1.42   1-0.72688-0.78946 0.43900-0.06978-0.52811-0.60981
  -1   1  -9   48.13    1.58   1-0.23875-0.29294 0.16132-0.41022 0.95758 0.86365
   1  -1   9   48.65    1.52   1-0.21969-0.16508-0.41872 0.15295 0.88113 0.97434
   1  -1   9   47.27    1.61   1-0.80317-0.74764-0.11999 0.45102-0.58353-0.48744
  -1   1  -9   50.51    1.58   1-0.72029-0.77622 0.45531-0.11577-0.52332-0.61973
  -1   1 -10   58.39    1.84   1-0.23785-0.28519 0.18267-0.45121 0.95396 0.84561
   1  -1  10   60.55    1.71   1-0.21505-0.16724-0.45802 0.17600 0.86253 0.97007
   1  -1  10   56.97    1.89   1-0.79788-0.74905-0.16532 0.46796-0.57969-0.46895
  -1   1 -10   63.55    1.83   1-0.71212-0.76140 0.47454-0.15883-0.51738-0.62851
  -1   1 -11    0.60    0.25   1-0.23670-0.27720 0.20646-0.48975 0.94938 0.82661
   1  -1  11    0.80    0.33   1-0.21020-0.16843-0.49496 0.20137 0.84310 0.96492
  -1   1 -12   30.52    1.41   1-0.23531-0.26896 0.23218-0.52636 0.94378 0.80659
   1  -1  12   30.60    1.35   1-0.20507-0.17003-0.53050 0.22818 0.82249 0.95865
   1  -1  12   30.63    1.40   1-0.78312-0.74770-0.25094 0.50690-0.56897-0.42893
  -1   1 -12   32.85    1.46   1-0.69158-0.72757 0.51889-0.23908-0.50246-0.64302
  -1   1 -13   29.63    1.50   1-0.23363-0.26044 0.25944-0.56143 0.93707 0.78546
   1  -1  13   29.96    1.39   1-0.19965-0.17135-0.56469 0.25634 0.80078 0.95127
   1  -1  13   29.05    1.39   1-0.77375-0.74503-0.29201 0.52810-0.56216-0.40747
  -1   1 -13   31.33    1.51   1-0.67931-0.70865 0.54308-0.27717-0.49355-0.64882
  -1   1 -14    7.68    0.46   1-0.23167-0.25162 0.28800-0.59520 0.92918 0.76316
   1  -1  14    8.34    0.46   1-0.19394-0.17237-0.59773 0.28565 0.77787 0.94270
   1  -1  14    8.01    1.14   1-0.76304-0.74102-0.33228 0.55010-0.55438-0.38504
  -1   1 -14    8.75    1.25   1-0.66571-0.68841 0.56822-0.31433-0.48367-0.65366
   1   0 -14   10.23    0.54   1-0.24044-0.08557 0.11015-0.73080 0.96439 0.67720
  -1   0  14   11.14    0.54   1-0.16369-0.31699-0.73632 0.10508 0.65653 0.94258
  -1   0  14   10.89    0.57   1-0.72903-0.88176-0.43352 0.40640-0.52967-0.23943
   1   0 -14   11.66    0.57   1-0.68448-0.53269 0.53307-0.30720-0.49730-0.78858
   1   0 -13   18.21    0.96   1-0.24139-0.09336 0.06609-0.71252 0.96817 0.69540
  -1   0  13   19.82    0.97   1-0.16839-0.31497-0.71795 0.06109 0.67541 0.94713
  -1   0  13   18.56    0.91   1-0.74158-0.88761-0.39968 0.37798-0.53879-0.26320
   1   0 -13   19.44    1.00   1-0.69975-0.55461 0.50186-0.27611-0.50840-0.78495
   1   0 -12   26.72    1.28   1-0.24186-0.10068 0.02108-0.69520 0.97008 0.71172
  -1   0  12   27.68    1.29   1-0.17263-0.31247-0.70055 0.01615 0.69240 0.94978
  -1   0  12   28.81    1.29   1-0.75289-0.89221-0.36595 0.34943-0.54701-0.28607
   1   0 -12   30.44    1.36   1-0.71376-0.57527 0.47075-0.24494-0.51858-0.78042
   1   0 -11   13.93    0.65   1-0.24185-0.10797-0.02380-0.67816 0.97002 0.72693
  -1   0  11   13.97    0.62   1-0.17636-0.30947-0.68447-0.03012 0.70738 0.95042
  -1   0  11   13.73    0.76   1-0.76303-0.89565-0.33234 0.32077-0.55437-0.30808
   1   0 -11   14.93    0.74   1-0.72658-0.59473 0.43978-0.21361-0.52789-0.77502
   1   0 -10   20.94    0.82   1-0.24129-0.11421-0.07191-0.66391 0.96778 0.73903
  -1   0  10   21.20    0.76   1-0.17954-0.30592-0.67021-0.07820 0.72012 0.94883
  -1   0  10   21.73    0.78   1-0.77204-0.89795-0.29887 0.29197-0.56092-0.32927
   1   0 -10   22.20    0.95   1-0.73824-0.61304 0.40902-0.18207-0.53636-0.76877
   1   0  -9   13.91    0.52   1-0.24010-0.11982-0.12247-0.65212 0.96299 0.74857
  -1   0   9   14.10    0.48   1-0.18207-0.30172-0.65843-0.12878 0.73027 0.94465
  -1   0   9   14.77    1.10   1-0.77997-0.89918-0.26555 0.26301-0.56668-0.34968
   1   0  -9   15.04    0.50   1-0.74879-0.63024 0.37859-0.15021-0.54403-0.76172
   1   0  -8    0.48    0.27   1-0.23812-0.12465-0.17648-0.64377 0.95506 0.75499
  -1   0   8    0.65    0.28   1-0.18381-0.29672-0.65013-0.18282 0.73725 0.93729
  -1   0   8    0.59    0.22   1-0.78686-0.89938-0.23241 0.23388-0.57169-0.36934
   1   0  -7   83.51    2.19   1-0.23512-0.12845-0.23536-0.64030 0.94303 0.75730
  -1   0   7   85.37    2.20   1-0.18451-0.29069-0.64674-0.24179 0.74004 0.92576
  -1   0   7   88.50    2.26   1-0.79275-0.89856-0.19951 0.20450-0.57596-0.38826
   1   0  -7   90.10    2.29   1-0.76662-0.66136 0.31944-0.08477-0.55698-0.74525
   1   0  -6    0.34    0.17   1-0.23067-0.13080-0.30138-0.64397 0.92517 0.75378
  -1   0   6    0.51    0.23   1-0.18373-0.28317-0.65054-0.30793 0.73690 0.90828
  -1   0   6    0.50    0.26   1-0.79766-0.89677-0.16694 0.17480-0.57953-0.40648
   1   0  -6    0.46    0.18   1-0.77390-0.67528 0.29141-0.05050-0.56227-0.73582
   1   0  -5   10.49    0.43   1-0.22395-0.13089-0.37820-0.65844 0.89822 0.74116
  -1   0   5   10.48    0.44   1-0.18063-0.27334-0.66519-0.38493 0.72449 0.88153
  -1   0   5   10.11    0.47   1-0.80162-0.89403-0.13488 0.14459-0.58241-0.42401
   1   0  -5   10.95    0.51   1-0.78000-0.68803 0.26540-0.01422-0.56670-0.72553
   1   0  -4    3.19    0.24   1-0.21327-0.12702-0.47200-0.68988 0.85540 0.71268
  -1   0   4    3.26    0.27   1-0.17350-0.25948-0.69686-0.47895 0.69590 0.83861
  -1   0   4    2.98    0.30   1-0.80465-0.89036-0.10370 0.11349-0.58461-0.44086
   1   0  -4    3.15    0.30   1-0.78472-0.69940 0.24319 0.02586-0.57013-0.71425
   1   0  -3   99.36    1.49   1-0.78797-0.70895 0.22660 0.07167-0.57249-0.70159
   1   0  -2   46.47    0.91   1-0.15838-0.08587-0.75588-0.84909 0.63525 0.52122
  -1   0   2   46.91    0.87   1-0.12500-0.19739-0.85616-0.76302 0.50135 0.61548
   1   0  -2   45.71    1.16   1-0.78519-0.71316 0.24088 0.14814-0.57047-0.68516
   1   0   0    6.69    0.35   1 0.06125 0.12026-0.96741-0.93593-0.24567-0.33101
   1   0   0    7.41    0.39   1-0.78192-0.72301-0.25663-0.22474-0.56809-0.65325
  -1   0   0    5.61    0.37   1-0.80415-0.86307 0.10941 0.07752-0.58425-0.49909
  -1   0  -3  151.74    1.81   1-0.22811-0.26657 0.33299 0.11430 0.91491 0.95700
  -1   0  -3  143.99    1.96   1-0.79997-0.83878 0.14911-0.06959-0.58121-0.54000
  -1   0  -4  171.97    2.02   1-0.23346-0.26508 0.26212-0.01889 0.93636 0.96404
   1   0   4  182.28    2.02   1-0.24187-0.21005-0.01951 0.26143 0.97011 0.94208
  -1   0  -4  183.37    2.41   1-0.79582-0.82793 0.17985-0.10112-0.57819-0.55163
  -1   0  -5   41.39    1.02   1-0.23564-0.26041 0.22631-0.11703 0.94511 0.95837
   1   0   5   42.23    1.00   1-0.24026-0.21524-0.11691 0.22638 0.96364 0.94995
   1   0   5   43.61    1.09   1-0.80175-0.77635-0.13365 0.20960-0.58251-0.59442
  -1   0  -5   42.62    1.09   1-0.79074-0.81614 0.21136-0.13189-0.57450-0.56259
  -1   0  -6   46.65    1.24   1-0.23647-0.25439 0.21097-0.19471 0.94845 0.94729
   1   0   6   48.86    1.19   1-0.23732-0.21910-0.19411 0.21154 0.95183 0.95249
   1   0   6   48.35    1.27   1-0.79826-0.77956-0.16247 0.24305-0.57997-0.57724
  -1   0  -6   50.57    1.37   1-0.78456-0.80342 0.24399-0.16161-0.57002-0.57305
  -1   0  -7   40.96    1.24   1-0.23661-0.24768 0.20840-0.25960 0.94898 0.93341
   1   0   7   43.41    1.29   1-0.23368-0.22227-0.25870 0.20930 0.93726 0.95225
   1   0   7   43.23    1.72   1-0.79387-0.78186-0.19257 0.27522-0.57678-0.55940
  -1   0  -7   44.68    1.31   1-0.77755-0.78976 0.27617-0.19173-0.56492-0.58267
  -1   0  -8   19.98    0.67   1-0.23630-0.24052 0.21431-0.31602 0.94774 0.91775
   1   0   8   20.98    0.62   1-0.22961-0.22500-0.31494 0.21542 0.92091 0.95024
   1   0   8   21.89    0.65   1-0.78854-0.78324-0.22352 0.30655-0.57291-0.54088
  -1   0  -8   21.90    0.67   1-0.76957-0.77513 0.30844-0.22176-0.55912-0.59159
  -1   0  -9   19.70    0.62   1-0.23565-0.23303 0.22614-0.36653 0.94515 0.90074
   1   0   9   19.82    0.55   1-0.22519-0.22739-0.36534 0.22737 0.90322 0.94688
   1   0   9   19.23    1.38   1-0.78225-0.78365-0.25507 0.33727-0.56834-0.52166
  -1   0  -9   19.85    1.70   1-0.76060-0.75951 0.34074-0.25174-0.55260-0.59979
  -1   0 -10    5.02    0.34   1-0.23471-0.22524 0.24227-0.41273 0.94138 0.88255
   1   0  10    5.25    0.37   1-0.22048-0.22948-0.41149 0.24357 0.88433 0.94234
   1   0  10    4.88    0.34   1-0.77496-0.78306-0.28707 0.36755-0.56304-0.50171
  -1   0 -11    0.99    0.35   1-0.23349-0.21717 0.26166-0.45568 0.93649 0.86324
   1   0  11    0.87    0.25   1-0.21549-0.23130-0.45443 0.26299 0.86431 0.93666
   1   0  11    0.64    0.25   1-0.76663-0.78143-0.31942 0.39747-0.55699-0.48101
  -1   0 -11    0.84    0.27   1-0.73956-0.72519 0.40536-0.31172-0.53732-0.61394
  -1   0 -12    2.84    0.31   1-0.23198-0.20882 0.28359-0.49607 0.93045 0.84279
   1   0  12    3.25    0.40   1-0.21026-0.23201-0.49453 0.28514 0.84333 0.92997
   1   0  12    2.68    0.85   1-0.75722-0.77872-0.35205 0.42711-0.55015-0.45953
  -1   0 -12    3.01    0.82   1-0.72742-0.70640 0.43763-0.34174-0.52850-0.61984
  -1   0 -13    1.87    0.31   1-0.23019-0.20018 0.30758-0.53441 0.92325 0.82117
   1   0  13    1.94    0.30   1-0.20470-0.23318-0.53292 0.30910 0.82102 0.92199
  -1   0 -14    0.13    0.41   1-0.22809-0.19123 0.33327-0.57106 0.91482 0.79832
   1   0  14   -0.10    0.39   1-0.19883-0.23404-0.56964 0.33473 0.79747 0.91278
   1   1 -14    2.43    0.34   1-0.24151-0.14345 0.05820-0.76162 0.96865 0.63194
  -1  -1  14    2.46    0.43   1-0.15705-0.25357-0.76063 0.05977 0.62989 0.96546
   1   1 -13   -0.00    0.34   1-0.24190-0.15121 0.01234-0.74567 0.97022 0.64892
  -1  -1  13    0.10    0.27   1-0.16123-0.25102-0.74553 0.01252 0.64666 0.96789
   1   1 -12    0.88    0.28   1-0.24176-0.15787-0.03639-0.73206 0.96965 0.66268
  -1  -1  12    1.02    0.28   1-0.16485-0.24791-0.73186-0.03615 0.66120 0.96810
   1   1 -11    4.05    0.41   1-0.24100-0.16392-0.08700-0.72032 0.96661 0.67399
  -1  -1  11    4.13    0.33   1-0.16786-0.24419-0.72008-0.08672 0.67327 0.96584
   1   1 -10    8.66    0.42   1-0.23953-0.16926-0.14011-0.71107 0.96072 0.68243
  -1  -1  10    9.15    0.48   1-0.17016-0.23975-0.71081-0.13980 0.68248 0.96071
   1   1  -9   13.12    0.50   1-0.23720-0.17373-0.19657-0.70518 0.95136 0.68741
  -1  -1   9   13.21    0.51   1-0.17159-0.23445-0.70492-0.19626 0.68821 0.95210
  -1  -1   9   14.10    0.52   1-0.80321-0.86551-0.11955 0.38768-0.58357-0.31715
   1   1  -9   10.01    2.39   1-0.69622-0.63468 0.50930 0.00190-0.50584-0.77276
   1   1  -8   30.98    1.00   1-0.23375-0.17709-0.25757-0.70382 0.93755 0.68794
  -1  -1   8   29.80    0.91   1-0.17190-0.22803-0.70361-0.25729 0.68947 0.93904
  -1  -1   8   32.44    0.93   1-0.80724-0.86283-0.06620 0.37876-0.58649-0.33473
   1   1  -8   29.93    1.76   1-0.70086-0.64597 0.49948 0.05438-0.50920-0.76142
   1   1  -7   58.38    1.64   1-0.22880-0.17893-0.32483-0.70873 0.91767 0.68240
  -1  -1   7   61.00    1.66   1-0.17070-0.22009-0.70860-0.32464 0.68464 0.91987
  -1  -1   7   58.08    1.62   1-0.80899-0.85789-0.00711 0.37558-0.58776-0.35065
   1   1  -7   56.85    1.58   1-0.70239-0.65415 0.49619 0.11338-0.51032-0.74781
   1   1  -6   89.37    1.97   1-0.22163-0.17857-0.40089-0.72244 0.88891 0.66797
  -1  -1   6   93.58    1.98   1-0.16726-0.20993-0.72246-0.40084 0.67087 0.89176
   1   1  -6   90.45    1.96   1-0.69933-0.65773 0.50276 0.18225-0.50809-0.73087
   1   1  -5  109.29    1.53   1-0.21100-0.17507-0.48910-0.74837 0.84631 0.63975
  -1  -1   5  111.53    1.49   1-0.16031-0.19624-0.74890-0.48964 0.64299 0.84955
  -1  -1   5  104.76    1.50   1-0.80069-0.83618 0.14306 0.40121-0.58173-0.37391
   1   1  -5  111.53    1.48   1-0.68848-0.65352 0.52515 0.26692-0.50021-0.70827
   1   1  -4  115.22    1.48   1-0.19437-0.16517-0.59538-0.79230 0.77957 0.58734
  -1  -1   4  116.69    1.53   1-0.14733-0.17653-0.79315-0.59623 0.59093 0.78315
  -1  -1   4  111.64    1.52   1-0.78275-0.81106 0.25271 0.44864-0.56870-0.37535
   1   1  -4  114.64    1.50   1-0.66218-0.63387 0.57450 0.37857-0.48110-0.67444
   1   1  -3  155.51    1.80   1-0.16667-0.14420-0.72480-0.85937 0.66848 0.49059
  -1  -1   3  156.57    1.88   1-0.12308-0.14540-0.86089-0.72641 0.49366 0.67169
  -1  -1   3  148.15    1.72   1-0.73815-0.75981 0.40928 0.54291-0.53630-0.35766
   1   1  -3  149.82    1.72   1-0.59878-0.57712 0.67244 0.53881-0.43504-0.61367
   1   1  -2  106.31    1.48   1-0.11776-0.10212-0.87351-0.94565 0.47234 0.30871
  -1  -1   2  109.31    1.44   1-0.07770-0.09334-0.94701-0.87486 0.31164 0.47527
  -1  -1   2  108.40    1.46   1-0.60738-0.62239 0.66056 0.73190-0.44128-0.27737
   1   1  -2  105.99    1.49   1-0.42784-0.41288 0.84871 0.77722-0.31084-0.47480
   1   1  -1  127.02    1.61   1-0.03446-0.02549-0.98980-0.99961 0.13822-0.01100
  -1  -1   1  126.90    1.63   1 0.00225-0.00666-0.99995-0.99009-0.00905 0.14022
  -1  -1   1  125.48    2.06   1-0.20113-0.20952 0.96860 0.97779-0.14613 0.00312
   1   1  -1  125.80    2.02   1 0.02021 0.02860 0.99968 0.99049 0.01468-0.13456
   1   1   0  167.35    1.96   1-0.10643-0.10438 0.89802 0.95072 0.42687 0.29194
   1   1   0  167.85    1.96   1 0.07281 0.07507-0.95362-0.90116-0.29205-0.42692
  -1  -1   0  157.14    1.86   1-0.52792-0.52983-0.75774-0.81075-0.38356-0.24889
  -1  -1  -1   47.93    0.94   1-0.15531-0.15047 0.76670 0.65167 0.62292 0.74341
   1   1   1   48.86    0.89   1-0.18451-0.18935 0.64673 0.76176 0.74006 0.61956
   1   1   1   49.56    0.89   1-0.63169-0.63650-0.62476-0.50947-0.45895-0.57904
  -1  -1  -1   48.88    0.87   1-0.72110-0.71639-0.45334-0.56883-0.52391-0.40398
  -1  -1  -2   39.53    0.98   1-0.19702-0.18530 0.58029 0.40292 0.79021 0.89627
   1   1   2   41.58    0.94   1-0.22205-0.23355 0.39688 0.57436 0.89060 0.78457
   1   1   2   39.94    0.95   1-0.71283-0.72424-0.47290-0.29514-0.51790-0.62318
  -1  -1  -2   39.81    0.98   1-0.78003-0.76861-0.26528-0.44305-0.56672-0.46144
  -1  -1  -3    0.57    0.13   1-0.21577-0.19742 0.45220 0.21239 0.86541 0.95703
   1   1   3    0.63    0.13   1-0.23670-0.25505 0.20646 0.44627 0.94938 0.85777
   1   1   3    0.68    0.15   1-0.74236-0.76047-0.39747-0.15743-0.53935-0.62998
  -1  -1  -3    0.65    0.16   1-0.80078-0.78267-0.14228-0.38232-0.58180-0.49117
  -1  -1  -4    2.58    0.22   1-0.22443-0.19924 0.37325 0.07111 0.90017 0.97736
   1   1   4    2.81    0.22   1-0.24140-0.26660 0.06525 0.36740 0.96822 0.89103
   1   1   4    2.64    0.24   1-0.75434-0.77915-0.36138-0.05907-0.54806-0.62404
  -1  -1  -4    2.72    0.27   1-0.80791-0.78310-0.05212-0.35443-0.58698-0.51100
  -1  -1  -5    5.89    0.32   1-0.22863-0.19658 0.32689-0.03757 0.91698 0.97976
   1   1   5    6.03    0.32   1-0.24170-0.27349-0.04190 0.32244 0.96944 0.90622
   1   1   5    5.08    0.37   1-0.75871-0.79022-0.34712 0.01745-0.55123-0.61256
  -1  -1  -5    5.74    0.37   1-0.80885-0.77733 0.02003-0.34455-0.58766-0.52633
  -1  -1  -6    1.38    0.21   1-0.23064-0.19175 0.30171-0.12509 0.92507 0.97343
   1   1   6    1.41    0.20   1-0.23988-0.27847-0.12935 0.29734 0.96214 0.91325
   1   1   6    2.66    0.33   1-0.75905-0.79727-0.34596 0.08089-0.55148-0.59817
  -1  -1  -6    1.06    0.32   1-0.80633-0.76811 0.08143-0.34542-0.58583-0.53914
  -1  -1  -7    6.81    0.35   1-0.23147-0.18573 0.29066-0.19847 0.92840 0.96234
   1   1   7    7.30    0.35   1-0.23689-0.28228-0.20271 0.28633 0.95015 0.91560
   1   1   7    6.72    0.42   1-0.75687-0.80179-0.35319 0.13593-0.54990-0.58193
  -1  -1  -7    7.20    0.40   1-0.80150-0.75659 0.13593-0.35319-0.58232-0.55029
  -1  -1  -8   12.10    0.50   1-0.23157-0.17898 0.28939-0.26207 0.92877 0.94830
   1   1   8   13.36    0.52   1-0.23318-0.28537-0.26633 0.28507 0.93524 0.91503
   1   1   8   12.84    0.50   1-0.75284-0.80446-0.36611 0.18529-0.54697-0.56436
  -1  -1  -8   14.77    0.60   1-0.79493-0.74331 0.18576-0.36563-0.57755-0.56016
  -1  -1  -9   28.60    1.07   1-0.23114-0.17171 0.29513-0.31866 0.92707 0.93218
   1   1   9   29.58    1.03   1-0.22895-0.28795-0.32296 0.29079 0.91829 0.91242
   1   1   9   29.99    1.06   1-0.74730-0.80562-0.38305 0.23062-0.54295-0.54569
  -1  -1  -9   31.66    1.13   1-0.78688-0.72856 0.23228-0.38139-0.57170-0.56896
  -1  -1 -10   22.32    0.88   1-0.23031-0.16402 0.30608-0.37004 0.92372 0.91441
   1   1  10   23.01    0.84   1-0.22432-0.29012-0.37440 0.30170 0.89972 0.90818
   1   1  10   23.55    0.87   1-0.74043-0.80544-0.40294 0.27300-0.53795-0.52604
  -1  -1 -10   24.22    0.89   1-0.77724-0.71250 0.27748-0.39871-0.56470-0.57737
  -1  -1 -11   20.76    1.02   1-0.22911-0.15598 0.32102-0.41744 0.91894 0.89521
   1   1  11   21.73    1.06   1-0.21933-0.29194-0.42188 0.31658 0.87971 0.90252
   1   1  11   21.00    1.03   1-0.73228-0.80400-0.42507 0.31314-0.53203-0.50547
  -1  -1 -11   22.81    1.07   1-0.76654-0.69515 0.31975-0.41873-0.55692-0.58431
  -1  -1 -12   30.84    1.45   1-0.22758-0.14760 0.33909-0.46170 0.91280 0.87466
   1   1  12   32.72    0.69   1-0.21401-0.29342-0.46623 0.33458 0.85838 0.89551
   1   1  12   31.69    1.35   1-0.72290-0.80132-0.44893 0.35156-0.52522-0.48401
  -1  -1 -12   31.89    0.71   1-0.75458-0.67655 0.36059-0.44019-0.54824-0.59034
  -1  -1 -13    0.16    0.28   1-0.22573-0.13890 0.35969-0.50343 0.90535 0.85279
   1   1  13    0.21    0.38   1-0.20842-0.29368-0.50769 0.35533 0.83594 0.88740
   1   1  13    0.00    0.27   1-0.71228-0.79740-0.47416 0.38860-0.51750-0.46165
  -1  -1 -13    0.07    0.28   1-0.74137-0.65669 0.40028-0.46279-0.53864-0.59546
   1   2 -14   11.98    0.58   1-0.24189-0.20121 0.01367-0.78565 0.97020 0.58502
  -1  -2  14   12.24    0.57   1-0.14882-0.18857-0.78838 0.01103 0.59691 0.98199
  -1  -2  14   11.41    1.02   1-0.78220-0.82108-0.25533 0.54194-0.56830-0.17922
   1   2 -14   12.15    0.88   1-0.59476-0.55700 0.67788-0.11958-0.43212-0.82185
   1   2 -13   29.76    1.43   1-0.24176-0.20787-0.03646-0.77344 0.96965 0.59880
  -1  -2  13   30.43    1.39   1-0.15236-0.18537-0.77673-0.03967 0.61111 0.98186
  -1  -2  13   30.95    1.41   1-0.79180-0.82398-0.20518 0.52982-0.57527-0.20085
   1   2 -13   33.16    1.52   1-0.60580-0.57469 0.66277-0.07239-0.44014-0.81515
   1   2 -12   16.43    0.96   1-0.24097-0.21389-0.08836-0.76299 0.96649 0.60999
  -1  -2  12   17.26    0.89   1-0.15524-0.18151-0.76696-0.09224 0.62263 0.97905
  -1  -2  12   18.33    1.13   1-0.79953-0.82501-0.15267 0.52006-0.58089-0.22111
   1   2 -12   17.58    1.32   1-0.61470-0.59023 0.65013-0.02273-0.44660-0.80690
   1   2 -11   28.99    1.11   1-0.23945-0.21917-0.14255-0.75482 0.96038 0.61821
  -1  -2  11   29.60    1.09   1-0.15734-0.17689-0.75959-0.14723 0.63107 0.97315
  -1  -2  11   29.58    1.35   1-0.80519-0.82397-0.09710 0.51335-0.58500-0.23987
   1   2 -11   30.64    1.36   1-0.62118-0.60336 0.64066 0.03008-0.45131-0.79689
   1   2 -10   45.08    1.43   1-0.23704-0.22357-0.19973-0.74966 0.95074 0.62291
  -1  -2  10   45.26    1.36   1-0.15852-0.17134-0.75537-0.20536 0.63582 0.96357
  -1  -2  10   44.59    1.60   1-0.80844-0.82052-0.03754 0.51063-0.58737-0.25689
   1   2 -10   45.28    1.81   1-0.62478-0.61361 0.63528 0.08700-0.45393-0.78480
   1   2  -9   39.84    1.41   1-0.23354-0.22687-0.26085-0.74842 0.93670 0.62321
  -1  -2   9   40.21    1.26   1-0.15855-0.16463-0.75527-0.26760 0.63594 0.94935
  -1  -2   9   36.50    1.20   1-0.80871-0.81409 0.02732 0.51324-0.58756-0.27173
   1   2  -9   38.85    1.87   1-0.62476-0.62023 0.63532 0.14932-0.45391-0.77007
   1   2  -8   36.21    1.03   1-0.22860-0.22874-0.32716-0.75237 0.91689 0.61774
  -1  -2   8   36.34    1.02   1-0.15707-0.15641-0.76056-0.33524 0.62997 0.92905
  -1  -2   8   33.76    2.42   1-0.80500-0.80368 0.09944 0.52308-0.58487-0.28368
   1   2  -8   37.30    1.88   1-0.61987-0.62199 0.64259 0.21889-0.45036-0.75180
   1   2  -7   17.43    0.64   1-0.22168-0.22862-0.40038-0.76323 0.88912 0.60431
  -1  -2   7   17.07    0.64   1-0.15347-0.14608-0.77301-0.41004 0.61554 0.90029
  -1  -2   7   17.24    1.27   1-0.79556-0.78753 0.18161 0.54298-0.57801-0.29147
   1   2  -7   17.42    1.22   1-0.60797-0.61674 0.65973 0.29833-0.44171-0.72844
   1   2  -6    4.84    0.30   1-0.21191-0.22603-0.48233-0.78296 0.84996 0.57955
  -1  -2   6    4.63    0.29   1-0.14678-0.13266-0.79491-0.49429 0.58870 0.85911
  -1  -2   6    4.40    0.33   1-0.77674-0.76133 0.27960 0.57871-0.56434-0.29233
   1   2  -6    4.74    0.29   1-0.58522-0.60063 0.69045 0.39134-0.42519-0.69719
   1   2  -5  161.77    3.18   1-0.19761-0.21846-0.57686-0.81513 0.79257 0.53650
  -1  -2   5  160.47    3.11   1-0.13529-0.11444-0.82900-0.59073 0.54263 0.79871
  -1  -2   5  154.94    2.96   1-0.74277-0.72071 0.39631 0.63312-0.53965-0.28236
   1   2  -5  160.06    3.08   1-0.54443-0.56649 0.73968 0.50286-0.39555-0.65284
   1   2  -4    0.38    0.13   1-0.17599-0.20357-0.68614-0.86206 0.70585 0.46411
  -1  -2   4    0.12    0.12   1-0.11588-0.08812-0.87780-0.70198 0.46478 0.70671
  -1  -2   4    0.12    0.11   1-0.68045-0.65174 0.54089 0.71541-0.49438-0.25180
   1   2  -4    0.07    0.16   1-0.47183-0.50054 0.81231 0.63779-0.34280-0.58538
   1   2  -3   18.92    0.59   1-0.14216-0.17648-0.80911-0.92268 0.57019 0.34278
  -1  -2   3   19.02    0.62   1-0.08375-0.04932-0.93815-0.82466 0.33593 0.56346
  -1  -2   3   18.95    0.60   1-0.56408-0.52873 0.71682 0.82905-0.40983-0.18197
   1   2  -3   18.69    0.65   1-0.34266-0.37809 0.90586 0.79348-0.24896-0.47689
   1   2  -2    0.43    0.12   1-0.08901-0.13012-0.92984-0.98100 0.35701 0.14388
  -1  -2   2    0.41    0.14   1-0.03176 0.00934-0.99134-0.94018 0.12739 0.34052
  -1  -2   2    0.33    0.14   1-0.35488-0.31288 0.89865 0.94874-0.25783-0.04461
   1   2  -2    0.40    0.16   1-0.12502-0.16701 0.98798 0.93789-0.09083-0.30405
   1   2  -1   75.50    1.18   1-0.01306-0.06084-0.99853-0.98736 0.05240-0.14632
  -1  -2   1   76.49    1.25   1 0.04257 0.09042-0.98438-0.99550-0.17077 0.02804
  -1  -2   1   75.71    1.23   1-0.04550 0.00305 0.99841 0.98621-0.03306 0.16545
   1   2   0   17.12    0.56   1-0.12359-0.17839 0.85965 0.93343 0.49569 0.31125
   1   2   0   16.72    0.56   1 0.07147 0.01697-0.95535-0.88191-0.28668-0.47110
  -1  -2   0   16.81    0.55   1-0.44156-0.38652-0.83791-0.91209-0.32081-0.13669
  -1  -2  -1   29.06    0.77   1-0.13858-0.07689 0.81966 0.68355 0.55582 0.72583
   1   2   1   29.80    0.78   1-0.18390-0.24559 0.64972 0.78583 0.73758 0.56757
   1   2   1   30.29    0.85   1-0.46522-0.52698-0.81811-0.68166-0.33800-0.50755
  -1  -2  -1   31.90    0.86   1-0.61631-0.55455-0.64780-0.78425-0.44777-0.27822
  -1  -2  -2   62.78    1.00   1-0.17895-0.11038 0.67291 0.47446 0.71774 0.87332
   1   2   2   63.90    0.99   1-0.21762-0.28593 0.43680 0.63540 0.87283 0.71728
   1   2   2   61.87    1.10   1-0.57865-0.64712-0.69886-0.50014-0.42041-0.57539
  -1  -2  -2   65.99    1.09   1-0.71196-0.64362-0.47491-0.67400-0.51727-0.36257
  -1  -2  -3   84.56    1.19   1-0.20085-0.12540 0.55739 0.29661 0.80558 0.94672
   1   2   3   87.71    1.26   1-0.23360-0.30876 0.26000 0.52094 0.93692 0.79578
   1   2   3   87.63    1.25   1-0.63914-0.71434-0.61306-0.35208-0.46436-0.60477
  -1  -2  -3   87.93    1.35   1-0.76188-0.68684-0.33635-0.59771-0.55353-0.41349
  -1  -2  -4   93.70    1.94   1-0.21260-0.13058 0.47718 0.15391 0.85269 0.97941
   1   2   4   97.74    1.99   1-0.24018-0.32219 0.11980 0.44306 0.96330 0.83658
   1   2   4   98.72    2.05   1-0.67198-0.75389-0.55683-0.23358-0.48822-0.61406
  -1  -2  -4   98.51    2.07   1-0.78834-0.70661-0.22459-0.54823-0.57276-0.44736
  -1  -2  -5   92.11    1.96   1-0.21901-0.13015 0.42474 0.03914 0.87842 0.99072
   1   2   5   94.67    2.00   1-0.24191-0.33049 0.00892 0.39430 0.97025 0.85749
   1   2   5   93.15    1.99   1-0.68990-0.77854-0.52227-0.13675-0.50124-0.61251
  -1  -2  -5   97.07    2.06   1-0.80193-0.71350-0.13199-0.51791-0.58264-0.47189
  -1  -2  -6   76.08    1.98   1-0.22252-0.12681 0.39236-0.05556 0.89248 0.99036
   1   2   6   78.54    2.02   1-0.24107-0.33645-0.08365 0.36408 0.96689 0.86846
   1   2   6   73.52    1.95   1-0.69968-0.79482-0.50201-0.05383-0.50835-0.60445
  -1  -2  -6   77.34    2.04   1-0.80788-0.71274-0.05285-0.50104-0.58696-0.49086
  -1  -2  -7   31.28    1.11   1-0.22433-0.12177 0.37435-0.13591 0.89974 0.98320
   1   2   7   31.89    1.11   1-0.23871-0.34090-0.16220 0.34788 0.95744 0.87335
   1   2   7   27.53    1.02   1-0.70350-0.80533-0.49379 0.01666-0.51112-0.59257
  -1  -2  -7   30.24    1.11   1-0.80890-0.70706 0.01673-0.49373-0.58770-0.50624
  -1  -2  -8   19.86    0.63   1-0.22506-0.11566 0.36676-0.20583 0.90267 0.97172
   1   2   8   20.56    0.75   1-0.23540-0.34439-0.23063 0.34181 0.94413 0.87438
   1   2   8   17.91    0.61   1-0.70362-0.81216-0.49352 0.07921-0.51121-0.57802
  -1  -2  -8   19.99    0.69   1-0.80646-0.69792 0.07937-0.49336-0.58593-0.51912
  -1  -2  -9   24.36    0.91   1-0.22504-0.10879 0.36691-0.26801 0.90262 0.95725
   1   2   9   27.06    0.90   1-0.23141-0.34720-0.29157 0.34322 0.92813 0.87272
   1   2   9   25.23    0.92   1-0.70102-0.81626-0.49915 0.13585-0.50932-0.56147
  -1  -2  -9   27.10    0.96   1-0.80140-0.68616 0.13684-0.49816-0.58225-0.53009
  -1  -2 -10   13.33    0.63   1-0.22446-0.10136 0.37294-0.32430 0.90029 0.94050
   1   2  10   14.11    0.65   1-0.22690-0.34950-0.34685 0.35030 0.91005 0.86898
   1   2  10   13.36    0.65   1-0.69624-0.81818-0.50928 0.18799-0.50584-0.54335
  -1  -2 -10   14.07    0.65   1-0.79422-0.67228 0.19037-0.50690-0.57703-0.53952
  -1  -2 -11   10.10    0.61   1-0.22341-0.09347 0.38355-0.37603 0.89608 0.92188
   1   2  11   10.06    0.57   1-0.22196-0.35137-0.39772 0.36178 0.89025 0.86351
   1   2  11   10.01    0.60   1-0.68921-0.81815-0.52368 0.23545-0.50074-0.52458
  -1  -2 -11   10.38    0.62   1-0.78495-0.65654 0.24208-0.51781-0.57030-0.54846
  -1  -2 -12    2.54    0.33   1-0.22195-0.08516 0.39780-0.42411 0.89021 0.90159
   1   2  12    2.45    0.31   1-0.21663-0.35284-0.44510 0.37675 0.86887 0.85647
   1   2  12    2.39    0.33   1-0.68092-0.81658-0.53999 0.28141-0.49471-0.50398
  -1  -2 -12    2.50    0.33   1-0.77420-0.63915 0.29018-0.53201-0.56249-0.55536
  -1  -2 -13    1.20    0.43   1-0.22010-0.07646 0.41501-0.46924 0.88279 0.87975
   1   2  13    1.23    0.36   1-0.21100-0.35303-0.48918 0.39483 0.84627 0.84821
   1   2  13    0.98    0.31   1-0.67107-0.81344-0.55852 0.32515-0.48756-0.48225
  -1  -2 -13    1.27    0.44   1-0.76188-0.62019 0.33632-0.54816-0.55354-0.56113
   1   3 -14    6.83    0.42   1-0.24184-0.25795-0.02604-0.80434 0.96996 0.53524
  -1  -3  14    7.00    0.50   1-0.13890-0.12187-0.81872-0.04030 0.55712 0.99172
  -1  -3  14    5.93    1.40   1-0.79779-0.77975-0.16598 0.60997-0.57963-0.14114
   1   3 -14    6.68    1.04   1-0.53798-0.55724 0.74685-0.02920-0.39087-0.82983
   1   3 -13    2.07    0.43   1-0.24117-0.26409-0.07849-0.79443 0.96730 0.54692
  -1  -3  13    2.00    0.31   1-0.14168-0.11791-0.81056-0.09449 0.56825 0.98851
   1   3 -12    7.95    0.52   1-0.23977-0.26949-0.13294-0.78653 0.96168 0.55563
  -1  -3  12    8.64    0.54   1-0.14364-0.11313-0.80464-0.15092 0.57611 0.98205
  -1  -3  12    7.72    1.32   1-0.80811-0.77667-0.04715 0.60424-0.58713-0.17793
   1   3 -12    7.22    1.17   1-0.54964-0.58219 0.73376 0.08229-0.39934-0.80887
   1   3 -11    0.23    0.25   1-0.23751-0.27404-0.18996-0.78119 0.95262 0.56092
  -1  -3  11    0.29    0.24   1-0.14464-0.10741-0.80156-0.21019 0.58014 0.97174
   1   3 -10    0.50    0.33   1-0.23422-0.27755-0.25026-0.77914 0.93941 0.56205
  -1  -3  10    0.58    0.24   1-0.14447-0.10050-0.80208-0.27306 0.57946 0.95673
   1   3 -10    0.30    0.27   1-0.54697-0.59281 0.73681 0.20993-0.39739-0.77749
   1   3  -9    2.78    0.28   1-0.22962-0.27975-0.31478-0.78130 0.92097 0.55794
  -1  -3   9    1.74    0.25   1-0.14281-0.09211-0.80716-0.34048 0.57279 0.93572
   1   3  -9    1.88    0.27   1-0.53783-0.59031 0.74702 0.28244-0.39075-0.75614
   1   3  -8   14.03    0.52   1-0.22330-0.28023-0.38471-0.78888 0.89561 0.54692
  -1  -3   8   14.06    0.54   1-0.13916-0.08173-0.81797-0.41365 0.55816 0.90675
  -1  -3   8   15.10    0.56   1-0.78280-0.72366 0.25250 0.65478-0.56873-0.21807
   1   3  -8   15.10    0.55   1-0.52109-0.58022 0.76493 0.36265-0.37859-0.72926
   1   3  -7   14.33    0.51   1-0.21461-0.27835-0.46156-0.80338 0.86075 0.52640
  -1  -3   7   14.66    0.47   1-0.13276-0.06860-0.83594-0.49397 0.53250 0.86676
  -1  -3   7   14.62    0.48   1-0.75823-0.69245 0.34870 0.68869-0.55089-0.21494
   1   3  -7   15.23    0.48   1-0.49365-0.55944 0.79224 0.45225-0.35866-0.69461
   1   3  -6   34.54    1.04   1-0.20259-0.27349-0.54650-0.82613 0.81258 0.49265
  -1  -3   6   33.53    1.04   1-0.12225-0.05108-0.86291-0.58342 0.49033 0.81055
  -1  -3   6   34.08    1.00   1-0.71920-0.64677 0.45793 0.73563-0.52253-0.20129
   1   3  -6   33.69    1.02   1-0.45070-0.52313 0.83044 0.55274-0.32745-0.64869
   1   3  -5   70.59    1.59   1-0.18542-0.26305-0.64230-0.85958 0.74368 0.43809
  -1  -3   5   70.25    1.56   1-0.10603-0.02820-0.89882-0.68165 0.42529 0.73112
  -1  -3   5   73.21    1.62   1-0.65808-0.57901 0.58165 0.79705-0.47812-0.17160
   1   3  -5   69.87    1.58   1-0.38487-0.46411 0.87958 0.66402-0.27962-0.58623
   1   3  -4   97.98    2.02   1-0.16046-0.24483-0.74835-0.90327 0.64360 0.35234
  -1  -3   4   96.24    2.06   1-0.08102 0.00348-0.94224-0.78741 0.32498 0.61641
  -1  -3   4   96.18    2.01   1-0.56362-0.47790 0.71738 0.87049-0.40949-0.11769
   1   3  -4   94.18    2.10   1-0.28640-0.37221 0.93523 0.78196-0.20808-0.49998
   1   3  -3  124.37    1.60   1-0.12380-0.21499-0.85912-0.95162 0.49656 0.21952
  -1  -3   3  124.89    1.66   1-0.04332 0.04785-0.98383-0.89133 0.17378 0.45081
  -1  -3   3  121.81    1.53   1-0.42330-0.33092 0.85218 0.94317-0.30755-0.03035
   1   3  -3  127.31    1.80   1-0.14527-0.23765 0.98374 0.89276-0.10554-0.38274
   1   3  -2  117.70    1.51   1-0.07173-0.16958-0.95503-0.98519 0.28769 0.02506
  -1  -3   2  118.29    1.55   1 0.01002 0.10795-0.99914-0.96891-0.04020 0.22257
  -1  -3   2  116.34    1.56   1-0.23213-0.13317 0.95795 0.98663-0.16865 0.09383
   1   3  -2  119.74    1.67   1 0.03832-0.06062 0.99887 0.97018 0.02784-0.23464
   1   3  -1  120.38    1.55   1-0.00531-0.10991-0.99975-0.96766 0.02131-0.22705
  -1  -3   1  121.02    1.54   1 0.07551 0.18011-0.95003-0.98213-0.30286-0.05449
  -1  -3   1  115.98    1.65   1-0.01130 0.09421 0.99990 0.96629-0.00821 0.23956
   1   3   0  108.18    1.41   1-0.13974-0.25141 0.81627 0.91113 0.56050 0.32654
   1   3   0  106.81    1.50   1 0.06411-0.04715-0.96424-0.86982-0.25714-0.49110
  -1  -3   0  106.45    1.42   1-0.42360-0.31162-0.85196-0.94730-0.30776-0.07418
  -1  -3  -1   87.65    1.23   1-0.12139-0.00284 0.86499 0.70780 0.48687 0.70640
   1   3   1   92.34    1.28   1-0.18746-0.30601 0.63208 0.78927 0.75188 0.53235
   1   3   1   92.42    1.34   1-0.35380-0.47250-0.89930-0.74168-0.25705-0.47606
  -1  -3  -1   93.53    1.38   1-0.56347-0.44477-0.71756-0.87517-0.40939-0.19038
  -1  -3  -2   53.52    0.90   1-0.16007-0.03465 0.74977 0.53024 0.64204 0.84713
   1   3   2   54.98    0.91   1-0.21652-0.34165 0.44601 0.66574 0.86843 0.66336
   1   3   2   54.71    0.99   1-0.46415-0.58957-0.81904-0.59916-0.33723-0.54166
  -1  -3  -2   57.12    1.07   1-0.65892-0.53350-0.58020-0.80008-0.47873-0.27429
  -1  -3  -3   39.43    0.94   1-0.18399-0.05168 0.64927 0.36741 0.73795 0.92861
   1   3   3   39.76    0.91   1-0.23196-0.36394 0.28398 0.56604 0.93034 0.73969
   1   3   3   39.35    0.93   1-0.53602-0.66816-0.74900-0.46685-0.38944-0.57931
  -1  -3  -3   41.48    0.98   1-0.72147-0.58951-0.45244-0.73514-0.52418-0.33471
  -1  -3  -4   23.75    0.70   1-0.19835-0.05916 0.57246 0.22827 0.79557 0.97179
   1   3   4   23.81    0.66   1-0.23921-0.37803 0.14927 0.49366 0.95942 0.78318
   1   3   4   23.17    0.66   1-0.58197-0.72083-0.69463-0.35021-0.42282-0.59812
  -1  -3  -4   25.71    0.72   1-0.76051-0.62185-0.34104-0.68601-0.55254-0.37772
  -1  -3  -5    4.23    0.28   1-0.20696-0.06129 0.51778 0.11105 0.83010 0.99192
   1   3   5    4.55    0.29   1-0.24175-0.38742 0.03754 0.44427 0.96961 0.80778
   1   3   5    4.39    0.30   1-0.61107-0.75664-0.65534-0.24865-0.44396-0.60469
  -1  -3  -5    4.63    0.31   1-0.78471-0.63935-0.24326-0.65050-0.57012-0.40996
  -1  -3  -6    3.26    0.26   1-0.21211-0.05959 0.48086 0.01181 0.85074 0.99815
   1   3   6    3.12    0.26   1-0.24155-0.39374-0.05506 0.41371 0.96882 0.82085
   1   3   6    3.03    0.28   1-0.62910-0.78140-0.62873-0.15977-0.45707-0.60322
  -1  -3  -6    3.37    0.30   1-0.79901-0.64695-0.15676-0.62627-0.58051-0.43499
  -1  -3  -7    4.47    0.30   1-0.21510-0.05573 0.45763-0.07375 0.86273 0.99571
   1   3   7    4.51    0.30   1-0.23967-0.39866-0.13607 0.39506 0.96127 0.82764
   1   3   7    4.41    0.33   1-0.63964-0.79865-0.61228-0.08105-0.46472-0.59630
  -1  -3  -7    4.56    0.41   1-0.80647-0.64771-0.07926-0.61105-0.58593-0.45506
  -1  -3  -8    0.04    0.21   1-0.21666-0.05044 0.44485-0.14886 0.86900 0.98756
   1   3   8    0.22    0.21   1-0.23667-0.40246-0.20721 0.38627 0.94923 0.82994
   1   3   8    0.14    0.24   1-0.64485-0.81058-0.60386-0.01036-0.46851-0.58552
  -1  -3  -8    0.11    0.38   1-0.80898-0.64352-0.00886-0.60293-0.58776-0.47153
  -1  -3  -9    2.46    0.29   1-0.21722-0.04416 0.44013-0.21591 0.87125 0.97541
   1   3   9    2.51    0.28   1-0.23287-0.40547-0.27084 0.38499 0.93402 0.82907
   1   3   9    2.11    0.31   1-0.64611-0.81856-0.60180 0.05396-0.46943-0.57187
  -1  -3  -9    2.05    0.34   1-0.80775-0.63559 0.05590-0.60043-0.58686-0.48529
  -1  -3 -10    5.96    0.38   1-0.21704-0.03712 0.44170-0.27667 0.87050 0.96024
   1   3  10    6.05    0.41   1-0.22848-0.40788-0.32867 0.38951 0.91638 0.82577
   1   3  10    5.32    0.39   1-0.64428-0.82345-0.60479 0.11324-0.46810-0.55596
  -1  -3 -10    6.41    0.44   1-0.80353-0.62467 0.11620-0.60240-0.58380-0.49687
  -1  -3 -11    9.49    0.57   1-0.21625-0.02949 0.44827-0.33244 0.86734 0.94266
   1   3  11    9.66    0.55   1-0.22358-0.40979-0.38191 0.39863 0.89674 0.82046
   1   3  11    9.73    0.59   1-0.63991-0.82579-0.61184 0.16845-0.46492-0.53821
  -1  -3 -11   10.17    0.71   1-0.79683-0.61127 0.17289-0.60798-0.57893-0.50665
  -1  -3 -12    9.31    0.60   1-0.21494-0.02134 0.45886-0.38417 0.86211 0.92301
   1   3  12    8.47    0.58   1-0.21824-0.41125-0.43147 0.41142 0.87532 0.81338
   1   3  12    9.43    0.61   1-0.63334-0.82595-0.62219 0.22037-0.46015-0.51888
  -1  -3 -12   10.05    0.65   1-0.78796-0.59569 0.22666-0.61649-0.57248-0.51485
   1   4 -14    3.41    0.37   1-0.24149-0.31441-0.05917-0.81643 0.96859 0.48433
  -1  -4  14    4.11    0.37   1-0.12718-0.05336-0.85066-0.09323 0.51009 0.99421
  -1  -4  14    3.60    0.81   1-0.80643-0.73147-0.07983 0.67479-0.58590-0.09799
   1   4 -14    3.59    0.62   1-0.47441-0.55068 0.81001 0.05536-0.34468-0.83287
   1   4 -13    6.49    0.41   1-0.24036-0.32007-0.11343-0.80833 0.96403 0.49411
  -1  -4  13    6.68    0.41   1-0.12905-0.04850-0.84583-0.15075 0.51759 0.98738
  -1  -4  13    6.66    0.44   1-0.80891-0.72725-0.01559 0.67675-0.58771-0.11445
   1   4 -13    6.73    0.44   1-0.47734-0.56026 0.80737 0.11502-0.34681-0.82028
   1   4 -12   21.07    1.11   1-0.23840-0.32493-0.16982-0.80237 0.95620 0.50061
  -1  -4  12   21.83    0.96   1-0.12993-0.04265-0.84351-0.21078 0.52115 0.97660
  -1  -4  12   20.74    1.01   1-0.80790-0.71954 0.05240 0.68248-0.58697-0.12836
   1   4 -12   21.83    1.08   1-0.47645-0.56601 0.80818 0.17812-0.34616-0.80492
   1   4 -11   42.41    1.62   1-0.23549-0.32882-0.22891-0.79911 0.94453 0.50328
  -1  -4  11   43.93    1.61   1-0.12964-0.03562-0.84428-0.27390 0.51998 0.96109
  -1  -4  11   44.48    1.65   1-0.80267-0.70761 0.12495 0.69275-0.58317-0.13921
   1   4 -11   46.46    1.72   1-0.47095-0.56716 0.81308 0.24532-0.34217-0.78621
   1   4 -10   21.68    0.85   1-0.23142-0.33155-0.29140-0.79924 0.92818 0.50127
  -1  -4  10   22.34    0.83   1-0.12789-0.02714-0.84882-0.34079 0.51296 0.93974
  -1  -4  10   22.94    0.85   1-0.79218-0.69041 0.20295 0.70848-0.57555-0.14623
   1   4 -10   23.90    0.91   1-0.45977-0.56263 0.82281 0.31734-0.33404-0.76337
   1   4  -9   42.36    1.45   1-0.22587-0.33280-0.35815-0.80363 0.90592 0.49335
  -1  -4   9   41.75    1.37   1-0.12408-0.01619-0.85843-0.41292 0.49769 0.91062
  -1  -4   9   42.79    1.39   1-0.77454-0.66504 0.28879 0.73196-0.56274-0.14813
   1   4  -9   44.48    1.45   1-0.44134-0.55084 0.83809 0.39492-0.32065-0.73526
   1   4  -8   54.02    1.75   1-0.21839-0.33212-0.43019-0.81332 0.87591 0.47768
  -1  -4   8   54.64    1.62   1-0.11800-0.00344-0.87295-0.48978 0.47330 0.87183
  -1  -4   8   53.29    1.57   1-0.74809-0.63194 0.38070 0.76158-0.54352-0.14362
   1   4  -8   54.27    1.64   1-0.41321-0.52970 0.85972 0.47867-0.30021-0.70020
   1   4  -7   71.97    1.74   1-0.20837-0.32932-0.50803-0.82901 0.83575 0.45197
  -1  -4   7   73.73    1.64   1-0.10857 0.01266-0.89363-0.57279 0.43547 0.81960
  -1  -4   7   74.56    1.64   1-0.70938-0.58659 0.48076 0.79934-0.51540-0.13022
   1   4  -7   74.02    1.66   1-0.37291-0.49597 0.88742 0.56867-0.27093-0.65621
   1   4  -6   41.43    1.20   1-0.19459-0.32227-0.59411-0.85275 0.78048 0.41104
  -1  -4   6   41.94    1.20   1-0.09448 0.03342-0.92057-0.66206 0.37896 0.74869
  -1  -4   6   42.19    1.18   1-0.65402-0.52458 0.58860 0.84489-0.47517-0.10471
   1   4  -6   42.49    1.24   1-0.31617-0.44580 0.92046 0.66400-0.22971-0.60028
   1   4  -5   17.60    0.60   1-0.17553-0.30994-0.68812-0.88441 0.70403 0.34892
  -1  -4   5   17.54    0.59   1-0.07389 0.06069-0.95220-0.75603 0.29637 0.65171
  -1  -4   5   16.62    0.58   1-0.57649-0.44040 0.70158 0.89557-0.41884-0.06310
   1   4  -5   17.15    0.63   1-0.23837-0.37457 0.95560 0.76143-0.17319-0.52905
   1   4  -4   22.76    0.65   1-0.14893-0.29008-0.78803-0.92196 0.59734 0.25657
  -1  -4   4   22.93    0.69   1-0.04445 0.09680-0.98297-0.84913 0.17829 0.51923
  -1  -4   4   22.28    0.69   1-0.47131-0.32858 0.81277 0.94447-0.34243-0.00139
   1   4  -4   23.33    0.76   1-0.13549-0.27826 0.98587 0.85400-0.09844-0.43960
   1   4  -3  108.19    2.20   1-0.11206-0.25999-0.88624-0.95775 0.44945 0.12291
  -1  -4   3  106.80    2.19   1-0.00400 0.14402-0.99986-0.92829 0.01608 0.34281
  -1  -4   3  106.65    2.25   1-0.33666-0.18732 0.90930 0.97888-0.24460 0.08185
   1   4  -3  107.19    2.40   1-0.00703-0.15637 0.99996 0.93038-0.00511-0.33156
   1   4  -2    2.89    0.26   1-0.06339-0.21800-0.96505-0.97422 0.25426-0.05787
  -1  -4   2    2.93    0.23   1 0.04709 0.20179-0.98086-0.97162-0.18890 0.12341
  -1  -4   2    3.08    0.25   1-0.17751-0.02160 0.97562 0.98291-0.12897 0.18277
   1   4  -1    7.33    0.35   1-0.10383-0.26547 0.90319 0.95679 0.41647 0.11856
   1   4  -1    7.44    0.35   1-0.00555-0.16691-0.99973-0.94665 0.02227-0.27564
  -1  -4   1    7.22    0.35   1-0.28950-0.12729-0.93377-0.98801-0.21033 0.08726
  -1  -4   1    6.92    0.39   1-0.01012 0.15235 0.99992 0.94491-0.00735 0.28968
   1   4   0    1.23    0.19   1-0.15500-0.32352 0.76777 0.88371 0.62168 0.33820
   1   4   0    1.19    0.18   1 0.05325-0.11476-0.97547-0.86007-0.21359-0.49709
  -1  -4   0    1.17    0.17   1-0.42727-0.25835-0.84915-0.96566-0.31043-0.02740
  -1  -4  -1   14.31    0.50   1-0.10360 0.07179 0.90364 0.72537 0.41555 0.68459
   1   4   1   14.80    0.48   1-0.19329-0.36869 0.60136 0.77963 0.77524 0.50619
  -1  -4  -1   15.27    0.52   1-0.54068-0.36503-0.74387-0.92264-0.39283-0.12436
  -1  -4  -2    5.44    0.31   1-0.14052 0.04176 0.81401 0.57340 0.56359 0.81820
   1   4   2    5.85    0.31   1-0.21781-0.39975 0.43518 0.67604 0.87359 0.61899
   1   4   2    5.80    0.31   1-0.37138-0.55375-0.88840-0.64735-0.26982-0.52372
  -1  -4  -2    6.09    0.31   1-0.62732-0.44495-0.63145-0.87249-0.45577-0.20188
  -1  -4  -3   20.19    0.63   1-0.16561 0.02355 0.72894 0.42600 0.66423 0.90441
   1   4   3   20.94    0.64   1-0.23177-0.42056 0.28658 0.58976 0.92959 0.68941
   1   4   3   20.74    0.67   1-0.44381-0.63289-0.83609-0.53277-0.32245-0.56177
  -1  -4  -3   21.76    0.69   1-0.69044-0.50135-0.52120-0.82451-0.50163-0.26231
  -1  -4  -4   44.28    1.08   1-0.18205 0.01399 0.65855 0.29327 0.73018 0.95592
   1   4   4   45.39    1.11   1-0.23884-0.43448 0.15899 0.52451 0.95795 0.73219
   1   4   4   43.90    1.09   1-0.49523-0.69103-0.79074-0.42516-0.35980-0.58455
  -1  -4  -4   45.81    1.18   1-0.73568-0.54010-0.41601-0.78231-0.53450-0.31027
  -1  -4  -5   19.43    0.53   1-0.19269 0.01024 0.60463 0.17702 0.77284 0.98415
   1   4   5   19.44    0.52   1-0.24161-0.44410 0.05029 0.47814 0.96906 0.75772
   1   4   5   18.66    0.52   1-0.53105-0.73357-0.75439-0.32653-0.38583-0.59601
  -1  -4  -5   20.24    0.59   1-0.76629-0.56401-0.32067-0.74924-0.55674-0.34715
  -1  -4  -6   37.50    1.29   1-0.19951 0.01029 0.56555 0.07561 0.80021 0.99708
   1   4   6   39.86    1.23   1-0.24171-0.45070-0.04154 0.44827 0.96945 0.77195
   1   4   6   39.19    1.24   1-0.55551-0.76474-0.72698-0.23686-0.40360-0.59921
  -1  -4  -6   40.87    1.29   1-0.78668-0.57770-0.23331-0.72415-0.57156-0.37662
  -1  -4  -7   41.90    1.42   1-0.20379 0.01289 0.53883-0.01344 0.81738 0.99982
   1   4   7   42.91    1.40   1-0.24008-0.45587-0.12304 0.42913 0.96292 0.77975
   1   4   7   43.12    1.44   1-0.57161-0.78757-0.70765-0.15526-0.41530-0.59634
  -1  -4  -7   47.30    1.57   1-0.79948-0.58380-0.15308-0.70620-0.58085-0.40056
  -1  -4  -8   29.85    1.07   1-0.20633 0.01724 0.52208-0.09252 0.82755 0.99556
   1   4   8   30.97    1.06   1-0.23726-0.45986-0.19527 0.41925 0.95161 0.78278
   1   4   8   29.84    1.06   1-0.58147-0.80415-0.69527-0.08061-0.42246-0.58893
  -1  -4  -8   31.04    1.16   1-0.80648-0.58410-0.07898-0.69437-0.58594-0.42030
  -1  -4  -9   14.88    0.70   1-0.20758 0.02229 0.51351-0.16365 0.83259 0.98626
   1   4   9   15.64    0.74   1-0.23358-0.46298-0.26028 0.41660 0.93685 0.78236
   1   4   9   14.09    0.69   1-0.58653-0.81592-0.68875-0.01182-0.42614-0.57803
  -1  -4  -9   15.18    0.81   1-0.80897-0.57989-0.01005-0.68772-0.58775-0.43676
  -1  -4 -10    7.64    0.41   1-0.20791 0.02881 0.51123-0.22827 0.83391 0.97316
   1   4  10    7.63    0.39   1-0.22923-0.46544-0.31957 0.41966 0.91941 0.77926
   1   4  10    6.77    0.43   1-0.58777-0.82388-0.68713 0.05205-0.42704-0.56436
  -1  -4 -10    6.97    0.48   1-0.80781-0.57203 0.05453-0.68539-0.58691-0.45056
  -1  -4 -11   12.26    0.64   1-0.20749 0.03608 0.51417-0.28766 0.83221 0.95705
   1   4  11   12.40    0.62   1-0.22433-0.46734-0.37428 0.42730 0.89976 0.77395
   1   4  11   11.80    0.65   1-0.58586-0.82869-0.68962 0.11184-0.42565-0.54841
  -1  -4 -11   12.49    0.70   1-0.80360-0.56111 0.11550-0.68670-0.58385-0.46215
  -1  -4 -12    6.75    0.61   1-0.20646 0.04464 0.52118-0.34276 0.82809 0.93835
   1   4  12    6.77    0.66   1-0.21895-0.46876-0.42527 0.43866 0.87817 0.76670
   1   4  12    6.93    0.71   1-0.58127-0.83082-0.69552 0.16820-0.42232-0.53050
  -1  -4 -12    7.39    0.78   1-0.79675-0.54757 0.17343-0.69104-0.57887-0.47183
   1   5 -14    8.64    0.62   1-0.24103-0.37075-0.08542-0.82164 0.96674 0.43295
  -1  -5  14    9.08    0.54   1-0.11332 0.01795-0.88350-0.14732 0.45450 0.98892
  -1  -5  14    9.02    0.66   1-0.80901-0.67713 0.00083 0.73413-0.58778-0.05045
   1   5 -14    9.41    0.67   1-0.40508-0.53911 0.86561 0.13221-0.29431-0.83179
   1   5 -13    9.11    0.58   1-0.23950-0.37602-0.14100-0.81486 0.96060 0.44114
  -1  -5  13    9.97    0.57   1-0.11415 0.02379-0.88166-0.20781 0.45785 0.97787
  -1  -5  13   10.06    0.61   1-0.80703-0.66844 0.07000 0.74103-0.58634-0.06366
   1   5 -13   10.76    0.70   1-0.40347-0.54406 0.86676 0.19565-0.29313-0.81591
   1   5 -12   12.59    0.71   1-0.23709-0.38042-0.19876-0.81026 0.95093 0.44581
  -1  -5  12   12.18    0.66   1-0.11381 0.03081-0.88242-0.27090 0.45648 0.96211
  -1  -5  12   13.00    0.71   1-0.80071-0.65542 0.14290 0.75165-0.58175-0.07372
   1   5 -12   13.20    0.75   1-0.39729-0.54446 0.87111 0.26229-0.28865-0.79672
   1   5 -11    3.76    0.43   1-0.23365-0.38378-0.25923-0.80838 0.93712 0.44633
  -1  -5  11    4.05    0.34   1-0.11205 0.03924-0.88625-0.33707 0.44943 0.94065
  -1  -5  11    3.86    0.34   1-0.78918-0.63719 0.22006 0.76653-0.57337-0.07999
   1   5 -11    4.51    0.37   1-0.38570-0.53943 0.87903 0.33251-0.28022-0.77359
   1   5 -10   14.09    0.68   1-0.22894-0.38587-0.32307-0.80987 0.91826 0.44181
  -1  -5  10   14.61    0.64   1-0.10853 0.04943-0.89370-0.40685 0.43532 0.91215
  -1  -5  10   14.86    0.63   1-0.77089-0.61102 0.30333 0.78739-0.56009-0.08153
   1   5 -10   15.55    0.67   1-0.36753-0.52783 0.89085 0.40662-0.26702-0.74568
   1   5  -9    0.49    0.22   1-0.22266-0.38639-0.39103-0.81547 0.89303 0.43092
  -1  -5   9    0.31    0.31   1-0.10278 0.06186-0.90525-0.48073 0.41224 0.87467
  -1  -5   9    0.38    0.20   1-0.74482-0.57830 0.39038 0.81214-0.54114-0.07730
   1   5  -9    0.34    0.31   1-0.34128-0.50815 0.90666 0.48473-0.24795-0.71190
   1   5  -8    0.05    0.19   1-0.21431-0.38485-0.46394-0.82603 0.85955 0.41178
  -1  -5   8    0.05    0.20   1-0.09412 0.07719-0.92120-0.55902 0.37751 0.82555
  -1  -5   8    0.00    0.18   1-0.70859-0.53543 0.48255 0.84201-0.51482-0.06569
   1   5  -8    0.03    0.20   1-0.30504-0.47849 0.92619 0.56654-0.22162-0.67087
   1   5  -7    0.23    0.18   1-0.20332-0.38105-0.54186-0.84185 0.81550 0.38220
  -1  -5   7    0.12    0.26   1-0.08163 0.09635-0.94134-0.64149 0.32741 0.76104
  -1  -5   7    0.04    0.24   1-0.65956-0.47975 0.57908 0.87625-0.47920-0.04479
   1   5  -7    0.13    0.20   1-0.25655-0.43656 0.94838 0.65103-0.18639-0.62093
   1   5  -6   15.39    0.48   1-0.18849-0.37295-0.62682-0.86446 0.75601 0.33705
  -1  -5   6   15.53    0.51   1-0.06406 0.12059-0.96429-0.72677 0.25696 0.67620
  -1  -5   6   15.63    0.47   1-0.59477-0.40831 0.67787 0.91275-0.43212-0.01243
   1   5  -6   15.76    0.53   1-0.19340-0.37998 0.97100 0.73594-0.14051-0.56034
   1   5  -5   11.91    0.42   1-0.16852-0.35971-0.71746-0.89275 0.67590 0.27127
  -1  -5   5   11.13    0.44   1-0.03992 0.15141-0.98628-0.81110 0.16012 0.56495
  -1  -5   5   11.33    0.42   1-0.51147-0.31837 0.77479 0.94737-0.37160 0.03337
   1   5  -5   12.03    0.46   1-0.11365-0.30681 0.99008 0.81731-0.08257-0.48770
   1   5  -4   24.49    0.75   1-0.14164-0.33956-0.81067-0.92362 0.56809 0.17780
  -1  -5   4   24.92    0.75   1-0.00774 0.19026-0.99948-0.88663 0.03107 0.42151
  -1  -5   4   24.66    0.76   1-0.40877-0.20904 0.86295 0.97343-0.29699 0.09343
   1   5  -4   25.91    0.84   1-0.01693-0.21666 0.99978 0.88930-0.01230-0.40272
   1   5  -3   49.21    1.35   1-0.10611-0.31080-0.89866-0.94918 0.42560 0.04956
  -1  -5   3   49.12    1.36   1 0.03290 0.23769-0.99070-0.94011-0.13198 0.24428
  -1  -5   3   48.99    1.38   1-0.28803-0.08173 0.93447 0.98265-0.20926 0.16645
   1   5  -2   54.91    1.50   1-0.06163-0.27299-0.96700-0.95518 0.24720-0.11443
  -1  -5   2   56.32    1.55   1-0.15589 0.05697 0.98125 0.96714-0.11326 0.24775
   1   5  -1   79.81    1.99   1-0.12799-0.34648 0.84858 0.92326 0.51334 0.16591
   1   5  -1   76.64    1.96   1-0.01083-0.22887-0.99899-0.92484 0.04347-0.30377
  -1  -5   1   78.89    2.03   1-0.33077-0.11162-0.91259-0.98800-0.24032 0.10674
  -1  -5   1   74.29    1.94   1-0.02247 0.19696 0.99961 0.92320-0.01632 0.32998
   1   5   0   72.71    1.86   1-0.16938-0.39476 0.71397 0.85099 0.67937 0.34637
   1   5   0   73.25    1.91   1 0.04003-0.18475-0.98621-0.84983-0.16055-0.49360
  -1  -5   0   74.56    1.91   1-0.44020-0.21433-0.83900-0.97667-0.31982 0.01266
   1   5   1   55.18    1.45   1-0.20029-0.43255 0.56084 0.76020 0.80332 0.48476
  -1  -5  -1   55.68    1.51   1-0.53433-0.30173-0.75085-0.95079-0.38821-0.07029
  -1  -5  -2   69.02    1.77   1-0.12029 0.11885 0.86761 0.60593 0.48245 0.78658
   1   5   2   70.72    1.81   1-0.22065-0.45942 0.40995 0.67193 0.88501 0.58089
   1   5   2   67.86    1.79   1-0.29418-0.53349-0.93154-0.66933-0.21373-0.51708
  -1  -5  -2   72.07    1.85   1-0.61101-0.37170-0.65543-0.91764-0.44392-0.14057
  -1  -5  -3   43.70    1.06   1-0.14596 0.10006 0.79748 0.47346 0.58541 0.87510
   1   5   3   44.45    1.07   1-0.23273-0.47834 0.27301 0.59732 0.93343 0.64373
   1   5   3   43.57    1.10   1-0.36286-0.60888-0.89377-0.56929-0.26363-0.55241
  -1  -5  -3   46.67    1.15   1-0.67100-0.42498-0.55863-0.88311-0.48751-0.19873
  -1  -5  -4   19.82    0.57   1-0.16397 0.08892 0.73523 0.34887 0.65767 0.93293
   1   5   4   20.14    0.58   1-0.23907-0.49153 0.15287 0.53951 0.95889 0.68360
   1   5   4   19.31    0.58   1-0.41513-0.66787-0.85830-0.47156-0.30161-0.57582
  -1  -5  -4   20.23    0.60   1-0.71728-0.46478-0.46250-0.85013-0.52113-0.24748
  -1  -5  -5   23.32    0.82   1-0.17637 0.08341 0.68445 0.23576 0.70739 0.96822
   1   5   5   24.19    0.84   1-0.24163-0.50094 0.04839 0.49737 0.96915 0.70829
   1   5   5   23.69    0.82   1-0.45404-0.71350-0.82765-0.37864-0.32988-0.58952
  -1  -5  -5   24.75    0.87   1-0.75081-0.49161-0.37243-0.82233-0.54549-0.28649
  -1  -5  -6   12.81    0.48   1-0.18478 0.08188 0.64540 0.13438 0.74115 0.98754
   1   5   6   13.15    0.45   1-0.24171-0.50750-0.04125 0.46961 0.96947 0.72242
   1   5   6   12.38    0.45   1-0.48238-0.74857-0.80278-0.29150-0.35047-0.59554
  -1  -5  -6   12.88    0.46   1-0.77486-0.50896-0.28747-0.79964-0.56297-0.31861
  -1  -5  -7    3.99    0.31   1-0.19039 0.08315 0.61694 0.04359 0.76362 0.99558
   1   5   7    4.01    0.31   1-0.24011-0.51271-0.12188 0.45133 0.96306 0.73035
   1   5   7    3.92    0.33   1-0.50243-0.77533-0.78377-0.21021-0.36504-0.59553
  -1  -5  -7    4.41    0.34   1-0.79138-0.51878-0.20763-0.78208-0.57497-0.34526
  -1  -5  -8    2.16    0.29   1-0.19397 0.08645 0.59756-0.03812 0.77800 0.99552
   1   5   8    2.16    0.28   1-0.23732-0.51672-0.19400 0.44156 0.95186 0.73349
   1   5   8    2.24    0.40   1-0.51594-0.79555-0.77025-0.13442-0.37485-0.59077
  -1  -5  -8    2.28    0.33   1-0.80187-0.52257-0.13259-0.76930-0.58259-0.36753
  -1  -5  -9    2.61    0.32   1-0.19607 0.09124 0.58578-0.11224 0.78639 0.98948
   1   5   9    2.56    0.39   1-0.23364-0.51984-0.25933 0.43859 0.93710 0.73307
   1   5   9    2.36    0.45   1-0.52420-0.81054-0.76167-0.06358-0.38086-0.58221
  -1  -5  -9    2.35    0.37   1-0.80746-0.52146-0.06185-0.76084-0.58666-0.38624
  -1  -5 -10    1.28    0.42   1-0.19701 0.09718 0.58032-0.18003 0.79019 0.97884
   1   5  10    1.20    0.28   1-0.22926-0.52227-0.31919 0.44108 0.91953 0.72984
   1   5  10    1.22    0.40   1-0.52820-0.82126-0.75744 0.00291-0.38376-0.57054
  -1  -5 -10    1.32    0.50   1-0.80900-0.51630 0.00508-0.75618-0.58777-0.40201
  -1  -5 -11    0.97    0.45   1-0.19705 0.10403 0.58013-0.24255 0.79032 0.96454
   1   5  11    0.71    0.29   1-0.22430-0.52411-0.37461 0.44801 0.89963 0.72428
   1   5  11    0.46    0.41   1-0.52862-0.82839-0.75699 0.06563-0.38406-0.55627
  -1  -5 -11    0.93    0.39   1-0.80710-0.50770 0.06870-0.75483-0.58639-0.41528
   1   6 -13    2.73    0.39   1-0.23876-0.43209-0.16097-0.81379 0.95764 0.38864
  -1  -6  13    2.93    0.36   1-0.09735 0.09735-0.91545-0.26260 0.39045 0.95998
  -1  -6  13    3.13    0.38   1-0.80026-0.60476 0.14665 0.79635-0.58143-0.00933
   1   6 -13    2.85    0.39   1-0.32656-0.52411 0.91491 0.26520-0.23726-0.80930
   1   6 -12    3.80    0.36   1-0.23601-0.43614-0.21956-0.81002 0.94661 0.39195
  -1  -6  12    4.28    0.37   1-0.09564 0.10573-0.91852-0.32800 0.38361 0.93874
  -1  -6  12    4.37    0.36   1-0.78876-0.58655 0.22233 0.80975-0.57307-0.01562
   1   6 -12    4.69    0.50   1-0.31558-0.51971 0.92077 0.33336-0.22928-0.78661
   1   6 -11    6.85    0.41   1-0.23218-0.43911-0.28080-0.80891 0.93125 0.39093
  -1  -6  11    7.96    0.42   1-0.09227 0.11577-0.92439-0.39620 0.37010 0.91083
  -1  -6  11    7.78    0.39   1-0.77103-0.56079 0.30282 0.82776-0.56018-0.01768
   1   6 -11    7.74    0.43   1-0.29873-0.50942 0.92932 0.40420-0.21704-0.75967
   1   6 -10   26.74    1.24   1-0.22704-0.44077-0.34527-0.81102 0.91062 0.38463
  -1  -6  10   29.22    1.15   1-0.08686 0.12786-0.93331-0.46745 0.34838 0.87471
  -1  -6  10   29.65    1.14   1-0.74649-0.52961 0.38546 0.84811-0.54236-0.01457
   1   6 -10   29.66    1.22   1-0.27498-0.49224 0.94046 0.47763-0.19978-0.72770
   1   6  -9   45.36    1.71   1-0.22025-0.44079-0.41359-0.81699 0.88341 0.37176
  -1  -6   9   48.44    1.58   1-0.07888 0.14251-0.94534-0.54181 0.31639 0.82832
  -1  -6   9   47.56    1.54   1-0.71350-0.48997 0.47136 0.87172-0.51839-0.00532
   1   6  -9   49.38    1.63   1-0.24310-0.46694 0.95378 0.55324-0.17662-0.68984
   1   6  -8   19.66    0.79   1-0.21148-0.43926-0.48556-0.82691 0.84823 0.35108
  -1  -6   8   20.84    0.75   1-0.06766 0.16040-0.96008-0.61889 0.27138 0.76891
  -1  -6   8   20.26    0.72   1-0.67039-0.44022 0.55975 0.89781-0.48707 0.01128
   1   6  -8   19.88    0.80   1-0.20174-0.43215 0.96840 0.63016-0.14657-0.64508
   1   6  -7   46.80    1.61   1-0.19986-0.43437-0.56342-0.84242 0.80162 0.31881
  -1  -6   7   48.05    1.54   1-0.05232 0.18241-0.97632-0.69746 0.20987 0.69300
  -1  -6   7   47.32    1.53   1-0.61544-0.37862 0.64906 0.92483-0.44714 0.03648
   1   6  -7   48.53    1.62   1-0.14955-0.38652 0.98276 0.70681-0.10865-0.59246
   1   6  -6   41.70    1.36   1-0.18460-0.42584-0.64632-0.86296 0.74039 0.27192
  -1  -6   6   43.59    1.33   1-0.03185 0.20956-0.99129-0.77476 0.12776 0.59650
  -1  -6   6   42.10    1.30   1-0.54713-0.30366 0.73662 0.95009-0.39751 0.07140
   1   6  -6   44.35    1.41   1-0.08548-0.32902 0.99440 0.78074-0.06210-0.53120
   1   6  -5   79.78    2.37   1-0.16453-0.41250-0.73311-0.88741 0.65990 0.20576
  -1  -6   5   79.84    2.38   1-0.00518 0.24303-0.99976-0.84552 0.02078 0.47542
  -1  -6   5   78.36    2.38   1-0.46473-0.21462 0.81854 0.96971-0.33765 0.11655
   1   6  -5   80.28    2.52   1-0.00927-0.25939 0.99993 0.84856-0.00674-0.46113
   1   6  -4   33.62    0.93   1-0.13835-0.39305-0.82033-0.91228 0.55489 0.11508
  -1  -6   4   34.07    0.92   1 0.02799 0.28288-0.99328-0.90135-0.11229 0.32793
  -1  -6   4   34.17    0.94   1-0.36939-0.11270 0.88967 0.97874-0.26837 0.17131
   1   6  -3   17.48    0.52   1-0.10499-0.36643-0.90090-0.93043 0.42111-0.00442
  -1  -6   3   17.49    0.51   1 0.06696 0.32851-0.96092-0.93131-0.26858 0.15723
  -1  -6   3   17.54    0.53   1-0.26334-0.00008 0.94553 0.97231-0.19132 0.23365
   1   6  -2   36.34    0.93   1-0.10932-0.37779 0.89206 0.92549 0.43848 0.02710
   1   6  -2   34.50    0.95   1-0.06473-0.33284-0.96353-0.93072 0.25962-0.15151
  -1  -6   2   35.34    0.97   1-0.15199 0.11783 0.98219 0.94668-0.11042 0.29984
   1   6  -1   33.11    0.87   1-0.14932-0.42467 0.78676 0.88252 0.59891 0.20196
   1   6  -1   31.96    0.95   1-0.01987-0.29466-0.99662-0.90147 0.07971-0.31703
  -1  -6   1   34.30    0.94   1-0.36763-0.09153-0.89078-0.98735-0.26710 0.12941
  -1  -6   1   32.28    0.91   1-0.04176 0.23463 0.99866 0.90086-0.03034 0.36523
   1   6   0    5.75    0.28   1-0.18289-0.46512 0.65457 0.81267 0.73353 0.35102
  -1  -6   0    5.95    0.35   1-0.45779-0.17497-0.82449-0.98333-0.33260 0.04934
   1   6   1    0.61    0.19   1-0.20782-0.49655 0.51186 0.73263 0.83354 0.46549
   1   6   1    0.54    0.23   1 0.06563-0.22257-0.96249-0.74281-0.26322-0.63141
  -1  -6  -1    0.49    0.18   1-0.53750-0.24796-0.74738-0.96849-0.39051-0.02314
  -1  -6  -2    0.43    0.20   1-0.09934 0.19665 0.91179 0.62902 0.39845 0.75210
   1   6   2    0.54    0.16   1-0.22442-0.52000 0.37336 0.65646 0.90012 0.54648
  -1  -6  -2    0.44    0.18   1-0.60509-0.30884-0.66376-0.94714-0.43962-0.08682
  -1  -6  -3    0.61    0.18   1-0.12516 0.17771 0.85575 0.51065 0.50200 0.84121
   1   6   3    0.46    0.21   1-0.23445-0.53688 0.24651 0.59194 0.94035 0.60112
   1   6   3    0.54    0.21   1-0.29100-0.59397-0.93306-0.58742-0.21142-0.54966
  -1  -6  -3    0.53    0.27   1-0.66050-0.35752-0.57745-0.92309-0.47988-0.14164
  -1  -6  -4    2.14    0.23   1-0.14431 0.16544 0.80258 0.39515 0.57881 0.90359
   1   6   4    2.35    0.23   1-0.23975-0.54902 0.13359 0.54135 0.96159 0.63679
   1   6   4    2.19    0.32   1-0.34175-0.65144-0.90639-0.49848-0.24829-0.57196
  -1  -6  -4    2.06    0.29   1-0.70545-0.39603-0.48952-0.89847-0.51254-0.18947
  -1  -6  -5   10.41    0.40   1-0.15818 0.15846 0.75661 0.28684 0.63443 0.94477
   1   6   5   11.08    0.49   1-0.24178-0.55790 0.03388 0.50398 0.96973 0.65935
   1   6   5   10.33    0.42   1-0.38135-0.69776-0.88192-0.41174-0.27707-0.58616
  -1  -6  -5   10.59    0.42   1-0.73959-0.42347-0.40527-0.87650-0.53735-0.22892
  -1  -6  -6   16.29    0.68   1-0.16805 0.15547 0.71933 0.18723 0.67402 0.96993
   1   6   6   16.81    0.69   1-0.24158-0.56418-0.05270 0.47919 0.96894 0.67236
   1   6   6   16.03    0.70   1-0.41158-0.73471-0.86091-0.32846-0.29903-0.59355
  -1  -6  -6   16.37    0.68   1-0.76536-0.44254-0.32402-0.85752-0.55607-0.26229
  -1  -6  -7    4.85    0.33   1-0.17494 0.15546 0.69069 0.09625 0.70166 0.98314
   1   6   7    4.92    0.33   1-0.23982-0.56921-0.13153 0.46271 0.96186 0.67961
   1   6   7    4.87    0.35   1-0.43404-0.76388-0.84389-0.24917-0.31535-0.59530
  -1  -6  -7    4.97    0.40   1-0.78411-0.45459-0.24619-0.84197-0.56969-0.29056
  -1  -6  -8   13.51    0.69   1-0.17960 0.15768 0.66994 0.01316 0.72036 0.98740
   1   6   8   13.79    0.68   1-0.23690-0.57310-0.20265 0.45396 0.95016 0.68225
   1   6   8   13.50    0.69   1-0.45008-0.78664-0.83095-0.17396-0.32700-0.59238
  -1  -6  -8   13.84    0.75   1-0.79697-0.46075-0.17186-0.82991-0.57903-0.31456
  -1  -6  -9   15.37    0.83   1-0.18256 0.16160 0.65612-0.06298 0.73223 0.98484
   1   6   9   15.52    0.84   1-0.23310-0.57611-0.26748 0.45147 0.93493 0.68136
   1   6   9   15.02    0.86   1-0.46079-0.80407-0.82194-0.10268-0.33478-0.58559
  -1  -6  -9   15.37    0.84   1-0.80488-0.46196-0.10089-0.82121-0.58478-0.33495
  -1  -6 -10   10.64    0.63   1-0.18419 0.16685 0.64828-0.13315 0.73877 0.97694
   1   6  10   10.68    0.52   1-0.22860-0.57841-0.32720 0.45411 0.91688 0.67765
   1   6  10    9.90    0.64   1-0.46701-0.81701-0.81655-0.03502-0.33930-0.57554
  -1  -6 -10   10.31    0.59   1-0.80857-0.45894-0.03304-0.81563-0.58746-0.35228
   1   7 -13   15.07    0.95   1-0.23827-0.48839-0.17310-0.80487 0.95564 0.33710
  -1  -7  13   15.95    0.74   1-0.07839 0.17305-0.94603-0.31417 0.31443 0.93346
  -1  -7  13   16.69    0.75   1-0.79040-0.53797 0.21327 0.84163-0.57426 0.04725
   1   7 -13   17.51    0.81   1-0.24822-0.50273 0.95176 0.32346-0.18034-0.80164
   1   7 -12   12.39    0.76   1-0.23531-0.49224-0.23205-0.80147 0.94380 0.33960
  -1  -7  12   13.52    0.77   1-0.07522 0.18290-0.95042-0.38089 0.30171 0.90634
  -1  -7  12   13.67    0.75   1-0.77395-0.51334 0.29121 0.85704-0.56230 0.04413
   1   7 -12   14.13    0.81   1-0.23329-0.49437 0.95752 0.39150-0.16949-0.77609
   1   7 -11   11.58    0.74   1-0.23126-0.49499-0.29351-0.80058 0.92755 0.33769
  -1  -7  11   13.34    0.70   1-0.07016 0.19463-0.95701-0.44981 0.28142 0.87165
  -1  -7  11   12.41    0.64   1-0.75154-0.48429 0.37017 0.87370-0.54602 0.04569
   1   7 -11   13.01    0.96   1-0.21241-0.48006 0.96491 0.46119-0.15432-0.74621
   1   7 -10   15.62    0.89   1-0.22588-0.49642-0.35800-0.80272 0.90598 0.33045
  -1  -7  10   17.72    0.91   1-0.06281 0.20866-0.96570-0.52083 0.25192 0.82775
  -1  -7  10   17.54    0.84   1-0.72198-0.44808 0.45120 0.89244-0.52455 0.05246
   1   7 -10   18.62    0.92   1-0.18478-0.45900 0.97356 0.53213-0.13425-0.71143
   1   7  -9    6.56    0.49   1-0.21886-0.49620-0.42604-0.80840 0.87783 0.31664
  -1  -7   9    7.48    0.39   1-0.05264 0.22550-0.97603-0.59349 0.21116 0.77260
  -1  -7   9    7.22    0.36   1-0.68419-0.40365 0.53364 0.91258-0.49709 0.06520
   1   7  -9    7.37    1.41   1-0.14956-0.43035 0.98276 0.60362-0.10866-0.67114
   1   7  -8   14.01    0.82   1-0.20990-0.49445-0.49717-0.81753 0.84187 0.29521
  -1  -7   8   15.00    0.67   1-0.03904 0.24577-0.98688-0.66668 0.15661 0.70365
  -1  -7   8   14.27    0.60   1-0.63711-0.34992 0.61628 0.93294-0.46289 0.08468
   1   7  -8   15.75    0.69   1-0.10593-0.39329 0.99138 0.67454-0.07696-0.62474
   1   7  -7    1.15    0.31   1-0.19817-0.48946-0.57357-0.83158 0.79482 0.26249
  -1  -7   7    1.10    0.32   1-0.02129 0.27020-0.99611-0.73825 0.08540 0.61804
  -1  -7   7    1.04    0.22   1-0.57984-0.28601 0.69735 0.95170-0.42128 0.11158
   1   7  -7    1.24    0.27   1-0.05331-0.34724 0.99782 0.74327-0.03873-0.57180
   1   7  -6    1.02    0.22   1-0.18300-0.48103-0.65402-0.84967 0.73400 0.21601
  -1  -7   6    1.03    0.30   1 0.00140 0.29971-0.99998-0.80439-0.00563 0.51295
  -1  -7   6    1.02    0.26   1-0.51193-0.21145 0.77432 0.96639-0.37194 0.14620
   1   7  -6    0.93    0.35   1 0.00847-0.29203 0.99994 0.80768 0.00615-0.51221
   1   7  -5    0.02    0.18   1-0.16348-0.46823-0.73712-0.87042 0.65568 0.15202
  -1  -7   5    0.04    0.19   1 0.02922 0.33420-0.99267-0.85940-0.11723 0.38694
  -1  -7   5   -0.08    0.19   1-0.43372-0.12659 0.84414 0.97391-0.31511 0.18831
   1   7  -4    7.55    0.39   1-0.13863-0.45012-0.81951-0.89047 0.55603 0.06670
  -1  -7   4    7.37    0.40   1 0.06197 0.37362-0.96662-0.89567-0.24858 0.24118
  -1  -7   4    7.44    0.42   1-0.34705-0.03341 0.90331 0.97098-0.25215 0.23680
   1   7  -3    7.67    0.47   1-0.09858-0.41702 0.91319 0.90537 0.39541-0.07992
   1   7  -3    7.48    0.50   1-0.10782-0.42601-0.89517-0.90371 0.43246-0.04257
  -1  -7   3    7.43    0.37   1-0.25398 0.06622 0.94944 0.95481-0.18453 0.28971
   1   7  -2   11.56    1.09   1-0.13512-0.46044 0.82946 0.88397 0.54196 0.08106
   1   7  -2   11.47    0.42   1-0.07153-0.39639-0.95528-0.90148 0.28689-0.17375
  -1  -7   2   11.83    0.45   1-0.32040 0.00592-0.91823-0.97369-0.23278 0.22776
  -1  -7   2   11.06    0.44   1-0.15862 0.16816 0.98058 0.92367-0.11524 0.34429
   1   7  -1   22.82    1.24   1-0.16837-0.50058 0.71804 0.83489 0.67532 0.22885
   1   7  -1   23.26    0.83   1-0.03163-0.36317-0.99141-0.87528 0.12689-0.31935
  -1  -7   1   24.88    0.94   1-0.40182-0.06877-0.86793-0.98566-0.29193 0.15403
  -1  -7   1   21.72    0.87   1-0.06517 0.26818 0.99675 0.87754-0.04735 0.39748
   1   7   0   26.04    0.86   1-0.19547-0.53456 0.58916 0.76834 0.78401 0.35198
   1   7   0   25.66    0.90   1 0.00841-0.32988-0.99939-0.82105-0.03373-0.46587
  -1  -7   0   27.27    0.93   1-0.47796-0.13820-0.80682-0.98682-0.34726 0.08414
  -1  -7   0   25.17    0.90   1 0.02249 0.36241 0.99961 0.81811 0.01634 0.44647
   1   7   1   35.97    1.11   1-0.21538-0.56092 0.45539 0.69728 0.86384 0.44626
   1   7   1   36.24    1.16   1 0.04558-0.29938-0.98209-0.74143-0.18281-0.60053
  -1  -7  -1   39.09    1.25   1-0.54653-0.20005-0.73731-0.97958-0.39707 0.01975
   1   7   2   33.67    1.12   1-0.22862-0.58101 0.32699 0.63121 0.91695 0.51379
   1   7   2   32.89    1.14   1 0.07740-0.27421-0.94742-0.64444-0.31047-0.71378
  -1  -7  -2   35.73    1.21   1-0.60624-0.25305-0.66215-0.96669-0.44046-0.03820
  -1  -7  -3   20.72    0.75   1-0.10325 0.25647 0.90433 0.53815 0.41414 0.80287
   1   7   3   21.11    0.74   1-0.23657-0.59581 0.20899 0.57555 0.94886 0.56012
  -1  -7  -3   21.29    0.77   1-0.65677-0.29685-0.58391-0.95072-0.47717-0.08948
  -1  -7  -4   36.13    1.20   1-0.12317 0.24344 0.86068 0.43216 0.49401 0.86831
   1   7   4   36.33    1.20   1-0.24063-0.60672 0.10292 0.53180 0.96514 0.59081
  -1  -7  -4   36.44    1.32   1-0.69928-0.33294-0.50286-0.93315-0.50805-0.13557
  -1  -7  -5   18.57    0.81   1-0.13822 0.23527 0.82070 0.32985 0.55438 0.91424
   1   7   5   17.93    0.78   1-0.24191-0.61450 0.00995 0.50054 0.97024 0.60978
   1   7   5   16.63    0.73   1-0.31300-0.68635-0.92212-0.43077-0.22740-0.58595
  -1  -7  -5   17.26    0.83   1-0.73266-0.35962-0.42408-0.91664-0.53231-0.17447
  -1  -7  -6    6.51    0.36   1-0.14937 0.23100 0.78660 0.23342 0.59911 0.94453
   1   7   6    7.08    0.41   1-0.24124-0.62063-0.07482 0.47812 0.96757 0.62145
   1   7   6    6.63    0.45   1-0.34371-0.72378-0.90526-0.35164-0.24972-0.59370
  -1  -7  -6    6.96    0.44   1-0.75879-0.37905-0.34684-0.90167-0.55129-0.20810
  -1  -7  -7   10.41    0.62   1-0.15747 0.22979 0.75913 0.14362 0.63159 0.96258
   1   7   7   10.86    0.58   1-0.23914-0.62534-0.15121 0.46408 0.95913 0.62735
   1   7   7   10.24    0.57   1-0.36736-0.75415-0.89095-0.27507-0.26690-0.59631
  -1  -7  -7   10.00    0.56   1-0.77857-0.39213-0.27171-0.88881-0.56567-0.23712
  -1  -7  -8    5.73    0.38   1-0.16319 0.23095 0.73821 0.06035 0.65453 0.97109
   1   7   8    5.86    0.38   1-0.23595-0.62896-0.22065 0.45699 0.94638 0.62893
   1   7   8    6.21    0.41   1-0.38494-0.77845-0.87954-0.20138-0.27968-0.59451
  -1  -7  -8    5.63    0.39   1-0.79283-0.39969-0.19899-0.87836-0.57603-0.26213
  -1  -7  -9    2.45    0.34   1-0.16704 0.23398 0.72335-0.01683 0.66996 0.97209
   1   7   9    2.30    0.33   1-0.23193-0.63174-0.28436 0.45564 0.93023 0.62712
   1   7   9    2.19    0.43   1-0.39732-0.79754-0.87109-0.13067-0.28867-0.58893
  -1  -7  -9    2.08    0.37   1-0.80228-0.40243-0.12874-0.87039-0.58289-0.28364
   1   8 -12    0.31    0.32   1-0.23509-0.54882-0.23595-0.78433 0.94289 0.28915
  -1  -8  12    0.91    0.39   1-0.05260 0.26227-0.97607-0.42752 0.21098 0.86511
   1   8 -11    1.46    0.32   1-0.23099-0.55152-0.29718-0.78320 0.92645 0.28705
  -1  -8  11    1.33    0.33   1-0.04583 0.27571-0.98188-0.49567 0.18384 0.82358
   1   8 -10    3.29    0.34   1-0.22558-0.55292-0.36119-0.78487 0.90478 0.27972
  -1  -8  10    3.62    0.35   1-0.03659 0.29163-0.98849-0.56461 0.14677 0.77211
   1   8 -10    4.06    0.43   1-0.09871-0.42989 0.99252 0.57249-0.07171-0.69816
   1   8  -9    5.74    0.52   1-0.21859-0.55273-0.42844-0.78976 0.87672 0.26600
  -1  -8   9    6.74    0.44   1-0.02441 0.31049-0.99489-0.63335 0.09790 0.70884
  -1  -8   9    6.51    0.67   1-0.65901-0.32145 0.58003 0.93757-0.47880 0.13272
   1   8  -9    6.71    0.90   1-0.06205-0.39980 0.99705 0.63931-0.04508-0.65683
   1   8  -8   22.83    1.34   1-0.20975-0.55108-0.49828-0.79764 0.84126 0.24507
  -1  -8   8   25.49    1.18   1-0.00876 0.33280-0.99934-0.70013 0.03516 0.63170
  -1  -8   8   25.32    1.15   1-0.61032-0.26611 0.65641 0.95165-0.44342 0.15338
   1   8  -8   25.72    1.21   1-0.01827-0.36259 0.99974 0.70430-0.01327-0.61031
   1   8  -7   36.06    1.61   1-0.19828-0.54635-0.57288-0.80989 0.79528 0.21344
  -1  -8   7   39.28    1.47   1 0.01094 0.35935-0.99897-0.76204-0.04387 0.53866
  -1  -8   7   37.76    1.40   1-0.55322-0.20237 0.72964 0.96259-0.40194 0.18015
   1   8  -7   39.93    1.52   1 0.03273-0.31815 0.99918 0.76603 0.02378-0.55854
   1   8  -6   12.13    0.63   1-0.18367-0.53847-0.65082-0.82548 0.73667 0.16916
  -1  -8   6   13.03    0.47   1 0.03476 0.38983-0.98962-0.81500-0.13942 0.42870
  -1  -8   6   12.24    0.45   1-0.48790-0.13040 0.79768 0.96833-0.35448 0.21289
   1   8  -5   36.46    1.28   1-0.16516-0.52669-0.73068-0.84300 0.66243 0.10925
  -1  -8   5   37.74    1.28   1 0.06270 0.42444-0.96582-0.85352-0.25151 0.30221
  -1  -8   5   35.85    1.21   1-0.41549-0.05146 0.85804 0.96660-0.30187 0.25104
   1   8  -4   26.49    0.87   1-0.09433-0.46275 0.92083 0.87176 0.37836-0.16092
   1   8  -4   25.59    0.89   1-0.14204-0.51031-0.80946-0.85943 0.56972 0.03087
  -1  -8   4   24.20    0.88   1-0.33697 0.03363 0.90912 0.95539-0.24482 0.29339
   1   8  -3   51.66    1.48   1-0.12691-0.50221 0.85134 0.86460 0.50902-0.01582
   1   8  -3   49.56    1.46   1-0.11391-0.48886-0.88219-0.86973 0.45690-0.06764
  -1  -8   3   52.16    1.53   1-0.29296 0.08358-0.93212-0.94648-0.21285 0.31172
  -1  -8   3   48.73    1.46   1-0.25488 0.12228 0.94907 0.93305-0.18518 0.33832
   1   8  -2   19.65    1.86   1-0.15816-0.54034 0.75667 0.83226 0.63437 0.12395
   1   8  -2   17.36    2.23   1-0.08128-0.46290-0.94186-0.86707 0.32601-0.18413
  -1  -8   2   23.85    0.83   1-0.36460 0.01866-0.89268-0.96931-0.26490 0.24510
  -1  -8   2   20.37    0.76   1-0.17203 0.21170 0.97712 0.89881-0.12499 0.38381
   1   8  -1   13.23    1.48   1-0.18545-0.57451 0.64214 0.78007 0.74380 0.24782
   1   8  -1   15.18    1.26   1-0.04562-0.43391-0.98205-0.84492 0.18300-0.31274
  -1  -8   1   17.98    0.69   1-0.43419-0.04420-0.84377-0.98267-0.31545 0.17997
  -1  -8   1   15.62    0.64   1-0.09130 0.29900 0.99361 0.85300-0.06634 0.42776
   1   8   0   27.10    0.97   1-0.20708-0.60259 0.51697 0.71766 0.83057 0.34905
   1   8   0   26.60    0.90   1-0.00939-0.40436-0.99924-0.79979 0.03769-0.44365
  -1  -8   0   27.85    0.93   1-0.49962-0.10291-0.78651-0.98768-0.36299 0.11786
  -1  -8   0   24.68    0.88   1-0.01528 0.38159 0.99982 0.79692-0.01110 0.46829
   1   8   1    8.93    0.36   1-0.22264-0.62500 0.39120 0.65422 0.89296 0.42586
   1   8   1    8.79    0.44   1 0.02458-0.37713-0.99482-0.73318-0.09859-0.56586
  -1  -8  -1    9.45    0.40   1-0.55931-0.15589-0.72251-0.98595-0.40636 0.05992
  -1  -8  -1    8.67    0.44   1 0.05408 0.45753 0.99776 0.73257 0.03929 0.50398
   1   8   2    4.24    0.32   1-0.23283-0.64204 0.27153 0.59688 0.93383 0.48115
   1   8   2    4.12    0.32   1 0.05478-0.35360-0.97401-0.65006-0.21973-0.67259
  -1  -8  -2    4.17    0.31   1-0.61227-0.20213-0.65363-0.97933-0.44484 0.00687
   1   8   3    0.00    0.25   1-0.23874-0.65480 0.16146 0.54914 0.95756 0.51929
  -1  -8  -3    0.20    0.32   1-0.65810-0.24123-0.58162-0.96960-0.47813-0.04098
  -1  -8  -4    0.11    0.31   1-0.10057 0.32290 0.90949 0.45989 0.40336 0.82718
   1   8   4    0.16    0.22   1-0.24145-0.66436 0.06189 0.51190 0.96843 0.54458
  -1  -8  -4    0.27    0.33   1-0.69769-0.27443-0.50623-0.95784-0.50690-0.08499
  -1  -8  -5    0.37    0.24   1-0.11653 0.31382 0.87633 0.36440 0.46739 0.87676
   1   8   5    0.24    0.24   1-0.24184-0.67123-0.02595 0.48567 0.96996 0.55996
  -1  -8  -5    0.44    0.35   1-0.72953-0.29956-0.43225-0.94614-0.53003-0.12277
  -1  -8  -6    0.83    0.27   1-0.12877 0.30846 0.84655 0.27229 0.51648 0.91143
   1   8   6    0.64    0.27   1-0.24053-0.67673-0.10688 0.46710 0.96473 0.56907
  -1  -8  -6    0.47    0.26   1-0.75513-0.31846-0.35884-0.93500-0.54863-0.15602
  -1  -8  -7    4.47    0.46   1-0.13796 0.30615 0.82143 0.18483 0.55335 0.93386
   1   8   7    4.53    0.46   1-0.23795-0.68095-0.18037 0.45596 0.95438 0.57305
   1   8   7    4.17    0.37   1-0.30270-0.74643-0.92736-0.29031-0.21992-0.59879
  -1  -8  -7    4.43    0.36   1-0.77507-0.33171-0.28659-0.92502-0.56312-0.18516
  -1  -8  -8    4.45    0.48   1-0.14469 0.30631 0.80143 0.10249 0.58032 0.94639
   1   8   8    4.12    0.51   1-0.23438-0.68419-0.24763 0.45105 0.94007 0.57308
   1   8   8    4.11    0.48   1-0.32102-0.77147-0.91790-0.21858-0.23323-0.59753
  -1  -8  -8    4.18    0.47   1-0.78994-0.33987-0.21588-0.91658-0.57392-0.21061
   1   9 -11   12.50    0.75   1-0.23142-0.60875-0.29144-0.75642 0.92817 0.23923
  -1  -9  11   14.04    0.77   1-0.01945 0.35885-0.99676-0.53154 0.07802 0.76726
  -1  -9  11   13.79    0.64   1-0.71571-0.33444 0.46620 0.92692-0.51999 0.17018
   1   9 -11   14.28    0.71   1-0.04838-0.42995 0.99821 0.53728-0.03515-0.72557
   1   9 -10   13.36    0.99   1-0.22620-0.61034-0.35456-0.75720 0.90725 0.23265
  -1  -9  10   15.99    0.87   1-0.00847 0.37650-0.99938-0.59649 0.03398 0.70882
  -1  -9  10   15.65    0.82   1-0.68066-0.29274 0.54049 0.93891-0.49453 0.18093
   1   9 -10   15.37    0.86   1-0.01759-0.40572 0.99976 0.60113-0.01277-0.68849
   1   9  -9   10.13    0.79   1-0.21947-0.61042-0.42062-0.76090 0.88028 0.22001
  -1  -9   9   12.18    0.69   1 0.00560 0.39744-0.99973-0.65913-0.02248 0.63841
  -1  -9   9   11.58    0.63   1-0.63892-0.24435 0.61343 0.94955-0.46420 0.19655
   1   9  -9   11.57    0.69   1 0.01906-0.37564 0.99972 0.66338 0.01385-0.64715
   1   9  -8   15.18    0.97   1-0.21104-0.60916-0.48884-0.76721 0.84645 0.20076
  -1  -9   8   16.89    0.87   1 0.02281 0.42131-0.99554-0.71726-0.09150 0.55499
  -1  -9   8   15.89    0.78   1-0.59030-0.18908 0.68381 0.95764-0.42888 0.21715
   1   9  -7    8.78    0.64   1-0.20018-0.60504-0.56147-0.77749 0.80291 0.17155
  -1  -9   7    9.45    0.63   1 0.04353 0.44870-0.98367-0.76771-0.17462 0.45746
  -1  -9   7    9.08    0.53   1-0.53492-0.12705 0.75021 0.96174-0.38864 0.24268
   1   9  -6    8.40    0.49   1-0.18648-0.59807-0.63700-0.79067 0.74796 0.13093
  -1  -9   6    9.25    0.56   1 0.06771 0.47955-0.96002-0.80638-0.27160 0.34606
  -1  -9   6    8.57    0.40   1-0.47326-0.05875 0.81104 0.96028-0.34384 0.27276
   1   9  -5    2.11    0.27   1-0.09520-0.51359 0.91931 0.82897 0.38184-0.22139
   1   9  -5    2.10    0.35   1-0.16933-0.58765-0.71416-0.80548 0.67918 0.07648
  -1  -9   5    1.79    0.43   1-0.40662 0.01436 0.86451 0.95167-0.29542 0.30676
   1   9  -4    2.66    0.27   1-0.12401-0.54928 0.85861 0.83062 0.49738-0.09141
   1   9  -4    2.45    0.27   1-0.14820-0.57325-0.79038-0.81935 0.59441 0.00605
  -1  -9   4    2.44    0.37   1-0.33580 0.09175 0.90978 0.93465-0.24397 0.34350
  -1  -9   3    0.07    0.32   1-0.34274 0.09074-0.90582-0.94134-0.24902 0.32501
  -1  -9   3    0.00    0.24   1-0.26295 0.17117 0.94570 0.90828-0.19104 0.38173
   1   9  -2    1.22    0.23   1-0.17874-0.61778 0.67384 0.77051 0.71692 0.15698
   1   9  -2    1.21    0.25   1-0.09353-0.53189-0.92224-0.82646 0.37513-0.18452
  -1  -9   2    1.16    0.34   1-0.40491 0.03529-0.86573-0.96352-0.29418 0.26527
  -1  -9   2    1.02    0.27   1-0.19013 0.25056 0.97199 0.87227-0.13813 0.41993
   1   9  -1    4.96    0.34   1-0.20070-0.64662 0.55831 0.71731 0.80498 0.25948
   1   9  -1    4.73    0.50   1-0.06158-0.50662-0.96705-0.80893 0.24701-0.29823
  -1  -9   1    5.38    0.41   1-0.46521-0.01827-0.81813-0.97819-0.33799 0.20689
  -1  -9   1    4.55    0.36   1-0.11939 0.32787 0.98904 0.82704-0.08674 0.45661
   1   9   0    4.01    0.32   1-0.21754-0.66987 0.43748 0.65929 0.87251 0.34147
   1   9   0    4.16    0.42   1-0.02882-0.48053-0.99287-0.77243 0.11560-0.41525
  -1  -9   0    4.17    0.39   1-0.52214-0.06850-0.76383-0.98616-0.37936 0.15095
  -1  -9   0    4.39    0.37   1-0.05257 0.40126 0.99788 0.77358-0.03820 0.49046
   1   9   1    7.23    0.35   1-0.22929-0.68847 0.31882 0.60296 0.91965 0.40303
   1   9   1    6.71    0.46   1 0.00248-0.45599-0.99994-0.71733-0.00997-0.52678
  -1  -9  -1    7.27    0.44   1-0.57457-0.11421-0.70398-0.98858-0.41745 0.09829
  -1  -9  -1    6.66    0.51   1 0.00892 0.46933 0.99993 0.71334 0.00648 0.52044
   1   9   2   10.30    0.57   1-0.23668-0.70270 0.20699 0.55347 0.94928 0.44707
   1   9   2   10.22    0.60   1 0.03109-0.43404-0.99170-0.64676-0.12473-0.62713
  -1  -9  -2    9.90    0.62   1-0.62172-0.15463-0.63986-0.98673-0.45170 0.04947
   1   9   3   14.23    0.68   1-0.24060-0.71347 0.10423 0.51304 0.96500 0.47722
   1   9   3   13.18    0.67   1 0.05584-0.41596-0.97298-0.56572-0.22399-0.71198
  -1  -9  -3   13.52    0.71   1-0.66317-0.18936-0.57275-0.98189-0.48182 0.00478
   1   9   4   11.87    0.65   1-0.24190-0.72129 0.01277 0.48309 0.97021 0.49633
   1   9   4   11.46    0.63   1 0.07646-0.40201-0.94874-0.47916-0.30666-0.78025
  -1  -9  -4   11.60    0.70   1-0.69970-0.21952-0.50196-0.97490-0.50836-0.03704
  -1  -9  -5    6.78    0.40   1-0.09307 0.39414 0.92303 0.39002 0.37329 0.83218
   1   9   5    6.58    0.43   1-0.24129-0.72749-0.07177 0.46090 0.96779 0.50825
  -1  -9  -5    5.57    0.45   1-0.72959-0.24270-0.43210-0.96732-0.53007-0.07340
  -1  -9  -6   16.78    0.68   1-0.10620 0.38788 0.89848 0.30313 0.42596 0.87043
   1   9   6   16.28    0.67   1-0.23923-0.73223-0.14859 0.44643 0.95952 0.51432
  -1  -9  -6   14.55    0.66   1-0.75409-0.26050-0.36216-0.95965-0.54788-0.10585
   1  10  -9    0.17    0.33   1-0.22151-0.66926-0.40199-0.72123 0.88844 0.17863
  -1 -10   9    0.30    0.34   1 0.03671 0.48531-0.98841-0.66879-0.14726 0.56318
  -1 -10   9    0.45    0.35   1-0.62411-0.17253 0.63629 0.95101-0.45344 0.25653
   1  10  -8    2.29    0.35   1-0.21360-0.66815-0.46944-0.72633 0.85673 0.16126
  -1 -10   8    2.59    0.37   1 0.05495 0.51021-0.97385-0.71656-0.22041 0.47562
  -1 -10   8    2.22    0.40   1-0.57669-0.11846 0.70132 0.95375-0.41899 0.27627
   1  10  -7    3.77    0.36   1-0.20379-0.66542-0.53884-0.73387 0.81737 0.13650
  -1 -10   7    4.01    0.38   1 0.07611 0.53804-0.94921-0.75423-0.30528 0.37634
  -1 -10   7    3.40    0.41   1-0.52389-0.05901 0.76200 0.95213-0.38063 0.29991
   1  10  -6   16.49    0.87   1-0.10017-0.56853 0.91025 0.77866 0.40176-0.26543
   1  10  -6   14.74    0.83   1-0.19130-0.65967-0.61209-0.74476 0.76729 0.10075
  -1 -10   6   14.11    0.78   1-0.46632 0.00520 0.81716 0.94499-0.33880 0.32703
   1  10  -5   24.99    1.10   1-0.12562-0.60086 0.85460 0.78535 0.50384-0.14890
   1  10  -5   22.90    1.09   1-0.17579-0.65089-0.68699-0.75732 0.70507 0.05286
  -1 -10   5   21.54    1.05   1-0.40524 0.07269 0.86549 0.93126-0.29442 0.35702
   1  10  -4    5.80    0.37   1-0.15138-0.63350 0.78002 0.77310 0.60716-0.03116
   1  10  -4    5.39    0.49   1-0.15681-0.63864-0.76147-0.76945 0.62894-0.00893
  -1 -10   4    5.46    0.41   1-0.33303 0.15068-0.91134-0.90575-0.24196 0.39609
  -1 -10   4    4.87    0.44   1-0.34129 0.14322 0.90665 0.91013-0.24796 0.38878
   1  10  -3   20.46    1.17   1-0.17573-0.66474 0.68725 0.74267 0.70484 0.08095
   1  10  -3   19.85    1.24   1-0.13416-0.62272-0.83213-0.77775 0.53810-0.08543
  -1 -10   3   21.40    0.94   1-0.38793 0.10250-0.87753-0.93422-0.28184 0.34164
  -1 -10   3   18.44    0.90   1-0.27623 0.21485 0.93990 0.88108-0.20069 0.42134
   1  10  -2    5.99    1.55   1-0.19703-0.69292 0.58021 0.69796 0.79027 0.18081
   1  10  -2   10.70    1.27   1-0.10802-0.60314-0.89476-0.77799 0.43326-0.17588
  -1 -10   2   12.76    0.64   1-0.44238 0.05477-0.83725-0.95621-0.32141 0.28751
  -1 -10   2   11.01    0.66   1-0.21162 0.28603 0.96518 0.84406-0.15375 0.45358
   1  10  -1   21.73    0.94   1-0.21415-0.71644 0.46518 0.64578 0.85892 0.26394
   1  10  -1   19.76    1.46   1-0.07943-0.58122-0.94455-0.76544 0.31860-0.27615
  -1 -10   1   21.75    0.95   1-0.49515 0.00872-0.79082-0.97205-0.35974 0.23460
  -1 -10   1   18.79    0.91   1-0.14899 0.35523 0.98289 0.79948-0.10824 0.48438
   1  10   0   12.11    0.82   1-0.22670-0.73584 0.34909 0.59202 0.90925 0.32868
   1  10   0   12.25    0.83   1-0.04977-0.55824-0.97860-0.73716 0.19963-0.38072
  -1 -10   0   12.95    0.67   1-0.54514-0.03455-0.73887-0.98237-0.39607 0.18370
  -1 -10   0   11.99    0.67   1-0.08967 0.42112 0.99383 0.74813-0.06514 0.51277
   1  10   1   12.53    0.67   1-0.23501-0.75100 0.23719 0.54246 0.94260 0.37645
   1  10   1   12.40    0.73   1-0.02069-0.53583-0.99633-0.69256 0.08301-0.48294
  -1 -10  -1   12.49    0.66   1-0.59149-0.07418-0.68223-0.98800-0.42974 0.13545
  -1 -10  -1   11.95    0.68   1-0.03471 0.48265 0.99907 0.69108-0.02522 0.53799
   1  10   2   11.01    0.62   1-0.23978-0.76261 0.13272 0.50032 0.96171 0.40998
   1  10   2   11.06    0.65   1 0.00611-0.51579-0.99968-0.63376-0.02450-0.57645
  -1 -10  -2   11.38    0.64   1-0.63357-0.10954-0.62183-0.98987-0.46032 0.09031
  -1 -10  -2   10.36    0.65   1 0.01514 0.53908 0.99982 0.62954 0.01100 0.55952
   1  10   3    2.31    0.32   1-0.24175-0.77144 0.03694 0.46687 0.96963 0.43232
   1  10   3    1.99    0.35   1 0.03013-0.49843-0.99221-0.56397-0.12087-0.65840
  -1 -10  -3    2.22    0.32   1-0.67101-0.14026-0.55862-0.98892-0.48752 0.04854
  -1 -10  -3    1.91    0.36   1 0.05950 0.59001 0.99729 0.56471 0.04323 0.57704
   1  10   4    2.07    0.34   1-0.24163-0.77783-0.04832 0.44304 0.96916 0.44574
   1  10   4    1.92    0.35   1 0.05071-0.48451-0.97777-0.48721-0.20341-0.72654
  -1 -10  -4    1.80    0.42   1-0.70451-0.16741-0.49157-0.98584-0.51186 0.00888
   1  11  -7    9.17    0.54   1-0.10857-0.62690 0.89364 0.72080 0.43545-0.29569
   1  11  -7    8.45    0.76   1-0.20900-0.72741-0.50363-0.67766 0.83825 0.10785
  -1 -11   7    7.87    0.55   1-0.51907 0.00281 0.76703 0.93575-0.37713 0.35265
   1  11  -6   12.08    0.62   1-0.13109-0.65631 0.84043 0.72993 0.52580-0.19090
   1  11  -6   10.16    0.78   1-0.19800-0.72314-0.57458-0.68626 0.79413 0.07807
  -1 -11   6    9.83    0.57   1-0.46564 0.06289 0.81775 0.92417-0.33831 0.37675
   1  11  -5    9.43    0.65   1-0.15416-0.68626 0.77065 0.72248 0.61831-0.08395
   1  11  -5    8.01    0.60   1-0.18436-0.71624-0.64750-0.69683 0.73942 0.03769
  -1 -11   5    8.55    0.60   1-0.33289 0.20105-0.91141-0.86473-0.24186 0.46023
  -1 -11   5    8.02    0.50   1-0.40976 0.12513 0.86224 0.90660-0.29771 0.40300
   1  11  -4    3.83    0.36   1-0.17641-0.71539 0.68427 0.69843 0.70756 0.01972
   1  11  -4    3.68    0.38   1-0.16769-0.70630-0.72076-0.70774 0.67258-0.01480
  -1 -11   4    3.71    0.34   1-0.38105 0.15960-0.88212-0.89770-0.27685 0.41066
  -1 -11   4    3.57    0.34   1-0.35188 0.18959 0.90045 0.88252-0.25565 0.43035
   1  11  -3    1.86    0.50   1-0.19642-0.74229 0.58373 0.66023 0.78782 0.11441
   1  11  -3    1.69    0.49   1-0.14779-0.69314-0.79167-0.71631 0.59278-0.08027
  -1 -11   3    2.03    0.31   1-0.42964 0.11774-0.84733-0.92518-0.31215 0.36079
  -1 -11   3    1.57    0.31   1-0.29346 0.25458 0.93189 0.85166-0.21321 0.45809
   1  11  -2    2.65    0.33   1-0.21303-0.76529 0.47386 0.61326 0.85443 0.19551
   1  11  -2    2.83    0.41   1-0.12471-0.67658-0.85687-0.71911 0.50021-0.15844
  -1 -11   2    2.92    0.32   1-0.47765 0.07644-0.80709-0.94721-0.34703 0.31133
  -1 -11   2    2.20    0.34   1-0.23572 0.31889 0.95661 0.81409-0.17126 0.48533
  -1 -11   1    0.12    0.38   1-0.52416 0.03664-0.76171-0.96410-0.38083 0.26297
  -1 -11   1   -0.07    0.31   1-0.17981 0.38137 0.97498 0.77017-0.13064 0.51125
   1  11   0   -0.00    0.33   1-0.23426-0.80022 0.24960 0.51366 0.93958 0.30949
   1  11   0   -0.00    0.33   1-0.07249-0.63771-0.95404-0.69161 0.29076-0.33910
  -1 -11   0   -0.22    0.38   1-0.56834-0.00081-0.71166-0.97632-0.41292 0.21630
  -1 -11   0   -0.09    0.32   1-0.12675 0.44099 0.98764 0.72055-0.09209 0.53509
   1  11   1    2.69    0.35   1-0.23938-0.81219 0.14445 0.47085 0.96011 0.34444
   1  11   1    2.83    0.39   1-0.04574-0.61763-0.98196-0.65719 0.18347-0.43199
  -1 -11  -1    3.01    0.34   1-0.60951-0.03525-0.65756-0.98449-0.44283 0.17182
  -1 -11  -1    3.15    0.52   1-0.07736 0.49696 0.99541 0.66602-0.05620 0.55627
  -1 -11  -2    1.27    0.31   1-0.64714-0.06616-0.60011-0.98931-0.47017 0.12991
  -1 -11  -2    1.00    0.36   1-0.03223 0.54866 0.99920 0.60752-0.02341 0.57435
   2 -12   1    0.99    0.36   1-0.47068 0.32362-0.81333-0.94133-0.34197 0.09567
   2 -12   1    0.79    0.34   1-0.26566 0.52880 0.94454 0.81342-0.19302 0.24228
   2 -12   2    2.67    0.37   1-0.42167 0.36591-0.85342-0.91915-0.30636 0.14584
   2 -12   2    2.54    0.40   1-0.31448 0.47341 0.92135 0.85252-0.22848 0.22152
   2 -12   3    0.23    0.29   1-0.37223 0.40864-0.88786-0.89132-0.27044 0.19634
   2 -12   3    0.09    0.30   1-0.36409 0.41724 0.89300 0.88647-0.26452 0.20018
   2 -12   4    2.64    0.38   1-0.32328 0.45087-0.91668-0.85788-0.23487 0.24647
   2 -12   4    2.27    0.34   1-0.41361 0.36114 0.85942 0.91518-0.30051 0.17890
   2 -12   5    7.86    0.57   1-0.46237 0.30603 0.82058 0.93883-0.33593 0.15787
   2 -11  -3    3.25    0.41   1-0.05138 0.71241 0.99798 0.63909-0.03733 0.28988
   2 -11  -2    4.24    0.43   1-0.09402 0.66320 0.99322 0.69662-0.06831 0.27361
   2 -11  -1   10.41    0.72   1-0.14067 0.60997 0.98476 0.75046-0.10220 0.25442
   2 -11   0    9.31    0.53   1-0.48818 0.25589-0.79741-0.96651-0.35468 0.01892
   2 -11   0    9.49    0.59   1-0.19076 0.55332 0.97180 0.79979-0.13859 0.23273
   2 -11   1   29.30    1.37   1-0.43458 0.30277-0.84346-0.95030-0.31574 0.07243
   2 -11   1   27.54    1.35   1-0.24348 0.49403 0.95363 0.84391-0.17690 0.20913
   2 -11   2    9.39    0.57   1-0.37954 0.35109-0.88312-0.92768-0.27575 0.12699
   2 -11   2    8.66    0.57   1-0.29788 0.43305 0.92974 0.88231-0.21642 0.18431
   2 -11   3    2.36    0.32   1-0.32425 0.39967-0.91616-0.89846-0.23558 0.18174
   2 -11   3    2.21    0.33   1-0.35289 0.37147 0.89984 0.91471-0.25639 0.15905
   2 -11   4    8.82    0.62   1-0.40742 0.31038 0.86393 0.94109-0.29600 0.13414
   2 -11   5   20.32    1.02   1-0.46059 0.25079 0.82211 0.96177-0.33463 0.10994
   2 -11   6    6.44    0.39   1-0.51110 0.19364 0.77516 0.97712-0.37133 0.08796
   2 -11   7    4.31    0.36   1-0.55841 0.13968 0.72358 0.98783-0.40570 0.06830
   2 -11   8    3.90    0.43   1-0.60195 0.08949 0.66811 0.99466-0.43734 0.05138
   2 -10  -4    6.80    0.46   1 0.03359 0.74700 0.99913 0.59935 0.02441 0.28766
   2 -10  -3    8.03    0.62   1-0.00871 0.69812 0.99994 0.66245-0.00633 0.27162
   2 -10  -2    6.92    0.46   1-0.05625 0.64402 0.99757 0.72238-0.04086 0.25179
   2 -10  -1    5.80    0.43   1-0.10854 0.58516 0.99095 0.77805-0.07885 0.22850
   2 -10   0    5.53    0.43   1-0.45698 0.23015-0.82518-0.97312-0.33202-0.00786
   2 -10   0    5.09    0.40   1-0.16483 0.52230 0.97902 0.82841-0.11975 0.20231
   2 -10   1    1.01    0.32   1-0.39633 0.28408-0.87178-0.95745-0.28795 0.05077
   2 -10   1    0.94    0.30   1-0.22408 0.45648 0.96087 0.87255-0.16280 0.17397
   2 -10   2    3.39    0.40   1-0.33419 0.33950-0.91069-0.93409-0.24280 0.11049
   2 -10   2    2.98    0.38   1-0.28501 0.38897 0.93588 0.90986-0.20707 0.14440
   2 -10   3    0.27    0.36   1-0.34624 0.32117 0.90378 0.94005-0.25156 0.11462
   2 -10   4    4.17    0.42   1-0.40634 0.25450 0.86470 0.96327-0.29522 0.08566
   2 -10   5    0.42    0.36   1-0.46424 0.19013 0.81897 0.98004-0.33729 0.05806
   2 -10   6    3.68    0.41   1-0.51844 0.12928 0.76767 0.99104-0.37667 0.03339
   2 -10   7   10.45    0.64   1-0.56838 0.07269 0.71162 0.99728-0.41295 0.01183
  -2  10  -7   10.70    0.62   1 0.05452-0.58661 0.99772 0.71228 0.03961-0.38539
   2 -10   8   13.70    0.70   1-0.61354 0.02089 0.65180 0.99976-0.44576-0.00626
  -2  10  -8   13.18    0.69   1 0.01129-0.62327 0.99990 0.65217 0.00820-0.43151
   2 -10   9    6.17    0.38   1-0.65367-0.02588 0.58920 0.99945-0.47492-0.02070
  -2  10  -9    6.76    0.44   1-0.02641-0.65441 0.99946 0.58944-0.01919-0.47360
   2 -10  10   17.73    0.76   1-0.68871-0.06757 0.52467 0.99721-0.50038-0.03145
  -2  10 -10   18.24    0.83   1-0.05862-0.68004 0.99737 0.52505-0.04259-0.51171
   2  -9  -7    7.32    0.50   1-0.16738 0.51030 0.72200 0.15916 0.67133 0.84513
  -2   9   7    7.68    0.64   1-0.17094-0.84719-0.70761-0.14520 0.68560 0.51104
   2  -9  -7    7.40    0.47   1-0.75510-0.07808-0.35894-0.92303-0.54861-0.37670
   2  -9  -6   -0.04    0.41   1-0.15679 0.51401 0.76154 0.26103 0.62886 0.81709
  -2   9   6    0.07    0.47   1-0.17190-0.84142-0.70363-0.20357 0.68945 0.50055
   2  -9  -6    0.02    0.28   1-0.72809-0.05777-0.43594-0.93776-0.52898-0.34243
   2  -9  -5    0.34    0.36   1-0.13969 0.52423 0.81643 0.37826 0.56028 0.76295
  -2   9   5    0.45    0.41   1-0.17074-0.83353-0.70842-0.27071 0.68481 0.48158
   2  -9  -4    0.11    0.23   1-0.11116 0.54587 0.88816 0.51232 0.44587 0.66297
  -2   9   4    0.17    0.26   1-0.16573-0.82180-0.72845-0.35309 0.66474 0.44717
  -2   9   3    2.28    0.30   1-0.15133-0.80067-0.78017-0.46715 0.60698 0.37507
  -2   9   3    2.18    0.32   1 0.05966-0.58919-0.96910-0.65629-0.23931-0.47131
   2  -9  -3    2.16    0.35   1 0.03494 0.68482 0.99906 0.68297 0.02538 0.25407
   2  -9  -2    1.55    0.33   1-0.01831 0.62499 0.99974 0.74594-0.01330 0.23008
   2  -9  -1    4.25    0.47   1-0.07732 0.55941 0.99542 0.80391-0.05618 0.20191
   2  -9   0   11.53    0.44   1-0.42452 0.20567-0.85126-0.97803-0.30843-0.03373
   2  -9   0   10.57    0.54   1-0.14110 0.48906 0.98467 0.85546-0.10251 0.17028
   2  -9   1   18.77    0.78   1-0.35534 0.26813-0.89837-0.96288-0.25817 0.03109
   2  -9   1   17.54    0.81   1-0.20822 0.41537 0.96630 0.89939-0.15128 0.13622
   2  -9   2   18.82    0.82   1-0.27694 0.34008 0.93958 0.93495-0.20121 0.10100
   2  -9   3   70.66    1.30   1-0.34537 0.26508 0.90429 0.96196-0.25093 0.06599
   2  -9   4    8.39    0.46   1-0.41167 0.19221 0.86085 0.98081-0.29909 0.03253
  -2   9  -5    6.32    0.33   1-0.11474-0.70986 0.88037 0.69519 0.46019 0.11317
  -2   9  -5    5.82    0.43   1-0.21736-0.81249 0.43900 0.25406 0.87179 0.52468
   2  -9   5    5.60    0.37   1-0.47449 0.12286 0.80994 0.99242-0.34474 0.00138
  -2   9  -6   21.84    1.16   1-0.23240-0.82066 0.27779 0.03053 0.93210 0.57058
   2  -9   6   23.69    1.10   1 0.02668 0.61556-0.99389-0.74581-0.10704 0.25464
   2  -9   6   23.46    0.97   1-0.53218 0.05853 0.75317 0.99795-0.38665-0.02581
  -2   9  -6   24.16    1.00   1 0.02952-0.56122 0.99933 0.75478 0.02145-0.33958
  -2   9  -7   31.29    1.65   1-0.23580-0.81722 0.22341-0.08617 0.94577 0.56983
   2  -9   7   33.30    1.66   1-0.02262 0.55952-0.99561-0.68514 0.09073 0.46637
   2  -9   7   31.79    1.43   1-0.58423-0.00016 0.69173 0.99880-0.42447-0.04891
  -2   9  -7   33.60    1.52   1-0.02150-0.60568 0.99964 0.69280-0.01562-0.39136
  -2   9  -8   14.64    0.90   1-0.23686-0.81143 0.20347-0.16844 0.94999 0.55964
   2  -9   8   15.62    0.82   1-0.05314 0.52232-0.97557-0.60276 0.21316 0.60319
   2  -9   8   15.03    0.72   1-0.63027-0.05285 0.62694 0.99630-0.45792-0.06764
  -2   9  -8   16.01    0.83   1-0.06587-0.64348 0.99668 0.62754-0.04785-0.43830
  -2   9  -9    6.23    0.46   1-0.23699-0.80472 0.20071-0.23354 0.95055 0.54578
   2  -9   9    6.96    0.43   1-0.07284 0.49596-0.95359-0.51845 0.29214 0.69658
   2  -9   9    6.27    0.57   1-0.67026-0.09948 0.55999 0.99165-0.48697-0.08198
  -2   9  -9    6.36    0.42   1-0.10363-0.67467 0.99176 0.56033-0.07529-0.48045
  -2   9 -10    7.17    0.52   1-0.23662-0.79750 0.20809-0.28849 0.94905 0.52987
   2  -9  10    8.40    0.52   1-0.08568 0.47643-0.93516-0.43769 0.34368 0.76251
   2  -9  10    7.69    0.65   1-0.70438-0.14025 0.49187 0.98582-0.51176-0.09206
  -2   9 -10    7.37    1.02   1-0.13507-0.69954 0.98596 0.49224-0.09814-0.51800
  -2   9 -11    1.08    0.37   1-0.23587-0.78990 0.22211-0.33680 0.94605 0.51245
   2  -9  11    0.80    0.37   1-0.09395 0.46150-0.92150-0.36170 0.37682 0.81005
   2  -8  -8   11.28    0.78   1-0.19759 0.43011 0.57695-0.02714 0.79251 0.90236
  -2   8   8   10.92    0.71   1-0.17519-0.80139-0.68963-0.08587 0.70264 0.59193
   2  -8  -8    9.11    0.68   1-0.77877-0.15197-0.27084-0.87587-0.56581-0.45797
   2  -8  -7    0.01    0.29   1-0.19407 0.42675 0.59702 0.05526 0.77839 0.90267
  -2   8   7    0.04    0.31   1-0.17776-0.79724-0.67826-0.13685 0.71298 0.58793
   2  -8  -7    0.16    0.39   1-0.75770-0.13760-0.35047-0.89323-0.55050-0.42801
   2  -8  -6   14.01    0.71   1-0.18781 0.42614 0.63033 0.15090 0.75326 0.89198
  -2   8   6   13.32    0.70   1-0.17920-0.79195-0.67176-0.19270 0.71876 0.57937
   2  -8  -6   11.28    0.73   1-0.72977-0.11637-0.43162-0.91211-0.53021-0.39307
   2  -8  -5   29.19    1.31   1-0.17704 0.43002 0.68150 0.26441 0.71007 0.86322
  -2   8   5   28.17    1.33   1-0.17896-0.78498-0.67284-0.25612 0.71780 0.56409
   2  -8  -5   26.11    1.25   1-0.69423-0.08753-0.51345-0.93167-0.50438-0.35260
   2  -8  -4   14.94    0.68   1-0.15814 0.44204 0.75674 0.40199 0.63428 0.80187
  -2   8   4   14.54    0.72   1-0.17587-0.77514-0.68667-0.33230 0.70537 0.53732
   2  -8  -4   14.46    0.71   1-0.64936-0.04923-0.59644-0.95113-0.47178-0.30483
   2  -8  -3   36.67    1.24   1-0.12260 0.47070 0.86207 0.56965 0.49172 0.67374
  -2   8   3   33.77    1.21   1-0.16666-0.75921-0.72484-0.43282 0.66845 0.48606
  -2   8   2   21.58    0.84   1-0.13657-0.72240-0.82539-0.59572 0.54778 0.35106
  -2   8   2   20.37    0.86   1 0.04299-0.54244-0.98408-0.75456-0.17242-0.36929
   2  -8  -2   21.78    0.88   1 0.02002 0.60638 0.99969 0.76729 0.01455 0.20868
   2  -8  -1   21.17    0.85   1-0.04721 0.53257 0.99829 0.82819-0.03430 0.17453
   2  -8   0   25.06    1.00   1-0.12026 0.45294 0.98888 0.88107-0.08738 0.13616
   2  -8   1   12.17    0.48   1-0.31074 0.25578-0.92329-0.96663-0.22577 0.01404
   2  -8   1   11.54    0.47   1-0.19711 0.36952 0.96986 0.92434-0.14321 0.09503
   2  -8   2   14.44    0.56   1-0.27525 0.28481 0.94034 0.95711-0.19998 0.05296
   2  -8   3    2.54    0.28   1-0.35204 0.20145 0.90035 0.97942-0.25577 0.01188
  -2   8  -4   11.32    0.59   1-0.13458-0.67976 0.83097 0.68703 0.53978 0.25669
   2  -8   4   10.25    0.43   1-0.42536 0.12162 0.85061 0.99221-0.30904-0.02686
  -2   8  -5    0.12    0.16   1-0.23201-0.77031 0.28328 0.07722 0.93054 0.63297
   2  -8   5    0.04    0.17   1 0.00635 0.54513-0.99965-0.79291-0.02549 0.27223
   2  -8   5    0.05    0.22   1-0.49275 0.04759 0.79310 0.99699-0.35800-0.06111
  -2   8  -5    0.04    0.30   1 0.00954-0.53081 0.99993 0.79627 0.00693-0.29013
  -2   8  -6    5.24    0.38   1-0.23669-0.76814 0.20685-0.06153 0.94931 0.63731
   2  -8   6    5.23    0.34   1-0.05110 0.48097-0.97743-0.70830 0.20495 0.51669
   2  -8   6    5.37    0.33   1-0.55332-0.01962 0.72952 0.99571-0.40201-0.09040
  -2   8  -6    5.49    0.37   1-0.05126-0.58506 0.99799 0.73204-0.03724-0.34902
  -2   8  -7    0.56    0.33   1-0.23807-0.76267 0.17774-0.15297 0.95484 0.62843
   2  -8   7    0.51    0.31   1-0.08319 0.44220-0.93901-0.60755 0.33366 0.65980
   2  -8   7    0.63    0.24   1-0.60651-0.07946 0.66178 0.99026-0.44066-0.11433
  -2   8  -7    0.65    0.27   1-0.10384-0.63106 0.99172 0.66348-0.07544-0.40192
  -2   8  -8    5.29    0.45   1-0.23839-0.75614 0.17023-0.22281 0.95613 0.61530
   2  -8   8    5.40    0.44   1-0.10238 0.41633-0.90602-0.51222 0.41065 0.75119
   2  -8   8    5.17    0.86   1-0.65228-0.13187 0.59154 0.98232-0.47391-0.13286
  -2   8  -9    8.98    0.67   1-0.23819-0.74910 0.17482-0.28055 0.95535 0.60010
   2  -8   9    9.35    0.59   1-0.11415 0.39790-0.88168-0.42555 0.45783 0.81276
   2  -8   9    8.84    0.87   1-0.69094-0.17718 0.52018 0.97325-0.50199-0.14624
  -2   8  -9    8.67    0.55   1-0.18488-0.69896 0.97353 0.52071-0.13432-0.49021
  -2   8 -10   14.34    0.91   1-0.23765-0.74171 0.18700-0.33070 0.95317 0.58351
   2  -8  10   15.74    0.86   1-0.12125 0.38412-0.86532-0.34686 0.48631 0.85564
   2  -8  10   15.45    0.78   1-0.72300-0.21588 0.44870 0.96406-0.52529-0.15481
  -2   8 -10   15.39    1.11   1-0.21443-0.72194 0.96423 0.44911-0.15579-0.52639
  -2   8 -11    7.05    0.45   1-0.23681-0.73402 0.20435-0.37568 0.94981 0.56573
   2  -8  11    7.51    0.46   1-0.12523 0.37347-0.85558-0.27479 0.50227 0.88600
   2  -8  11    6.87    0.47   1-0.74905-0.24858 0.37780 0.95546-0.54422-0.15902
  -2   8 -11    7.74    0.81   1-0.23760-0.73855 0.95589 0.37848-0.17263-0.55793
  -2   8 -12   18.56    0.94   1-0.23569-0.72605 0.22544-0.41692 0.94531 0.54681
   2  -8  12   18.35    0.76   1-0.12729 0.36425-0.85035-0.20713 0.51057 0.90797
   2  -8  12   19.10    0.73   1-0.76970-0.27587 0.30794 0.94789-0.55922-0.15931
  -2   8 -12   20.00    0.82   1-0.25510-0.74947 0.94898 0.30928-0.18534-0.58534
   2  -7 -10   10.28    0.61   1-0.21520 0.36899 0.45685-0.25094 0.86311 0.89491
  -2   7  10    9.49    0.67   1-0.17171-0.75460-0.70441 0.00304 0.68870 0.65617
  -2   7  10    9.25    0.57   1-0.35482-0.93831-0.89868-0.19154-0.25779-0.28787
   2  -7 -10    9.91    0.71   1-0.80554-0.22226-0.09256-0.80081-0.58526-0.55613
   2  -7  -9    6.71    0.44   1-0.21585 0.36148 0.45149-0.19396 0.86576 0.91197
  -2   7   9    6.64    0.44   1-0.17572-0.75188-0.68729-0.04217 0.70480 0.65794
  -2   7   9    6.54    0.52   1-0.34282-0.91959-0.90577-0.26090-0.24907-0.29372
   2  -7  -9    6.57    0.54   1-0.79735-0.22077-0.16915-0.81513-0.57931-0.53554
   2  -7  -8    3.30    0.36   1-0.21571 0.35478 0.45270-0.13043 0.86517 0.92580
  -2   7   8    3.25    0.36   1-0.17907-0.74850-0.67234-0.08958 0.71824 0.65704
  -2   7   8    3.01    0.34   1-0.32535-0.89540-0.91557-0.33297-0.23638-0.29559
   2  -7  -8    3.14    0.44   1-0.78353-0.21366-0.24898-0.83269-0.56927-0.51085
   2  -7  -7   17.21    0.87   1-0.21447 0.34918 0.46265-0.05815 0.86020 0.93524
  -2   7   7   17.60    0.91   1-0.18163-0.74432-0.66055-0.14013 0.72847 0.65294
  -2   7   7   15.04    0.77   1-0.30158-0.86491-0.92792-0.40759-0.21911-0.29289
   2  -7  -7   16.56    0.94   1-0.76313-0.19996-0.33196-0.85339-0.55445-0.48138
   2  -7  -6   11.28    0.57   1-0.21160 0.34520 0.48469 0.02622 0.84870 0.93816
  -2   7   6   11.51    0.60   1-0.18313-0.73909-0.65341-0.19533 0.73451 0.64465
   2  -7  -6   10.54    0.49   1-0.73505-0.17858-0.41770-0.87686-0.53405-0.44633
   2  -7  -5   19.67    0.75   1-0.20608 0.34412 0.52376 0.12775 0.82655 0.93019
  -2   7   5   19.45    0.81   1-0.18312-0.73234-0.65348-0.25776 0.73445 0.63025
   2  -7  -5   18.04    0.86   1-0.69808-0.14831-0.50540-0.90228-0.50719-0.40482
   2  -7  -4    0.30    0.17   1-0.19547 0.34785 0.58920 0.25552 0.78398 0.90205
  -2   7   4    0.32    0.20   1-0.18057-0.72306-0.66549-0.33212 0.72422 0.60569
   2  -7  -4    0.31    0.22   1-0.65005-0.10687-0.59529-0.92881-0.47229-0.35478
   2  -7  -3    0.20    0.18   1-0.17392 0.36252 0.69509 0.42375 0.69756 0.83006
  -2   7   3    0.23    0.23   1-0.17289-0.70865-0.69946-0.42844 0.69344 0.56057
   2  -7  -3    0.19    0.20   1-0.59189-0.05543-0.68171-0.95296-0.43003-0.29796
   2  -7  -2    0.28    0.17   1-0.12259 0.40697 0.86210 0.65309 0.49168 0.63862
  -2   7   2    0.22    0.17   1-0.15060-0.67964-0.78257-0.57390 0.60405 0.45685
   2  -7  -2    0.23    0.24   1 0.05915 0.58855 0.99732 0.78632 0.04298 0.18785
   2  -7  -1    2.84    0.30   1-0.01847 0.50435 0.99973 0.85103-0.01342 0.14615
   2  -7   0    5.08    0.35   1-0.10341 0.41284 0.99179 0.90538-0.07513 0.09914
   2  -7   1    3.35    0.30   1-0.19260 0.31707 0.97124 0.94713-0.13993 0.04904
   2  -7   2   21.16    0.72   1-0.28230 0.22080 0.93713 0.97531-0.20510-0.00141
   2  -7   3   27.77    1.02   1-0.36873 0.12781 0.89009 0.99056-0.26789-0.04950
  -2   7  -4   31.21    1.19   1-0.22608-0.71441 0.35586 0.19101 0.90677 0.67314
   2  -7   4   32.12    1.17   1-0.01105 0.47761-0.99895-0.83350 0.04434 0.27778
   2  -7   4   33.87    1.12   1-0.44907 0.04090 0.83179 0.99479-0.32627-0.09331
  -2   7  -4   33.77    1.18   1-0.00350-0.49347 0.99999 0.83722-0.00254-0.23564
  -2   7  -5  143.56    3.93   1-0.23562-0.71710 0.22675-0.00041 0.94502 0.69696
   2  -7   5  147.00    1.93   1-0.08141 0.40057-0.94167-0.71388 0.32654 0.57437
   2  -7   5  139.20    3.83   1-0.52060-0.03727 0.76543 0.99073-0.37824-0.13057
  -2   7  -5  148.75    1.81   1-0.07711-0.56051 0.99544 0.77039-0.05602-0.30383
  -2   7  -6    4.36    0.36   1-0.23808-0.71271 0.17740-0.11210 0.95490 0.69243
   2  -7   6    4.41    0.30   1-0.11460 0.36071-0.88066-0.59054 0.45967 0.72190
   2  -7   6    4.22    0.30   1-0.58274-0.10606 0.69364 0.98123-0.42339-0.16100
  -2   7  -6    4.10    0.39   1-0.14017-0.61701 0.98487 0.69752-0.10184-0.36435
  -2   7  -7   12.01    0.69   1-0.23882-0.70660 0.15955-0.19228 0.95786 0.68097
   2  -7   7   13.15    0.60   1-0.13262 0.33580-0.83632-0.48385 0.53194 0.80815
   2  -7   7   13.69    0.56   1-0.63545-0.16541 0.61891 0.96879-0.46168-0.18458
  -2   7  -7   13.30    0.68   1-0.19272-0.66299 0.97121 0.62156-0.14002-0.41724
  -2   7  -8   38.00    1.38   1-0.23888-0.69982 0.15800-0.25617 0.95810 0.66680
   2  -7   8   40.05    1.38   1-0.14256 0.31914-0.80791-0.39309 0.57178 0.86233
   2  -7   8   41.00    1.33   1-0.67926-0.21586 0.54318 0.95536-0.49351-0.20169
  -2   7  -8   41.77    1.37   1-0.23548-0.69917 0.95670 0.54476-0.17108-0.46301
  -2   7  -9   29.21    1.35   1-0.23855-0.69265 0.16614-0.31035 0.95680 0.65108
   2  -7   9   31.73    1.29   1-0.14799 0.30697-0.79104-0.31386 0.59359 0.89847
   2  -7   9   31.88    1.21   1-0.71502-0.25827 0.46782 0.94230-0.51949-0.21296
  -2   7  -9   30.90    1.38   1-0.26946-0.72659 0.94289 0.46867-0.19577-0.50240
  -2   7 -10   23.55    1.27   1-0.23794-0.68518 0.18062-0.35820 0.95433 0.63419
   2  -7  10   23.63    1.14   1-0.15059 0.29764-0.78263-0.24311 0.60398 0.92320
   2  -7  10   24.78    1.13   1-0.74366-0.29356 0.39372 0.93049-0.54030-0.21906
  -2   7 -10   26.17    1.22   1-0.29578-0.74633 0.93076 0.39425-0.21490-0.53623
  -2   7 -11    6.80    0.42   1-0.23705-0.67745 0.19952-0.40164 0.95078 0.61622
   2  -7  11    7.52    0.52   1-0.15123 0.29027-0.78051-0.17863 0.60657 0.94012
   2  -7  11    7.04    0.39   1-0.76609-0.32264 0.32137 0.92044-0.55660-0.22064
  -2   7 -11    7.67    0.62   1-0.31548-0.75946 0.92083 0.32201-0.22921-0.56525
  -2   7 -12    8.54    0.48   1-0.23590-0.66945 0.22167-0.44182 0.94615 0.59718
   2  -7  12    9.21    0.56   1-0.15045 0.28431-0.78307-0.11885 0.60345 0.95133
   2  -7  12    8.94    0.73   1-0.78311-0.34630 0.25101 0.91237-0.56896-0.21828
  -2   7 -12    9.75    0.61   1-0.32948-0.76690 0.91330 0.25220-0.23938-0.59012
  -2   7 -13   -0.07    0.39   1-0.23446-0.66116 0.24632-0.47950 0.94039 0.57700
   2  -7  13    0.06    0.32   1-0.14857 0.27946-0.78920-0.06263 0.59589 0.95810
   2  -7  13    0.12    0.48   1-0.79550-0.36634 0.18198 0.90602-0.57797-0.21192
  -2   7 -13   -0.14    0.52   1-0.33856-0.76941 0.90821 0.18482-0.24598-0.61143
   2  -6 -11    1.88    0.36   1-0.22509 0.30913 0.36641-0.38259 0.90281 0.87066
  -2   6  11    1.78    0.42   1-0.16946-0.70230-0.71366 0.03516 0.67968 0.71100
  -2   6  11    1.58    0.38   1-0.42298-0.95625-0.85242-0.10418-0.30731-0.27336
   2  -6 -11    2.11    0.45   1-0.80890-0.27584 0.01692-0.73227-0.58770-0.62264
   2  -6 -10    0.11    0.43   1-0.22676 0.30062 0.34844-0.33822 0.90948 0.89175
  -2   6  10    0.19    0.30   1-0.17382-0.69993-0.69552-0.00904 0.69716 0.71415
  -2   6  10   -0.06    0.31   1-0.41703-0.94358-0.85689-0.17092-0.30299-0.28361
   2  -6 -10    0.04    0.37   1-0.80773-0.28138-0.05617-0.74309-0.58685-0.60715
   2  -6  -9    0.12    0.40   1-0.22801 0.29252 0.33422-0.29012 0.91449 0.91118
  -2   6   9    0.38    0.29   1-0.17760-0.69698-0.67900-0.05487 0.71233 0.71498
  -2   6   9    0.19    0.41   1-0.40623-0.92605-0.86479-0.24108-0.29514-0.29033
   2  -6  -9    0.20    0.32   1-0.80180-0.28214-0.13326-0.75791-0.58254-0.58818
   2  -6  -8    2.25    0.31   1-0.22879 0.28488 0.32488-0.23713 0.91766 0.92876
  -2   6   8    2.21    0.31   1-0.18072-0.69337-0.66476-0.10299 0.72486 0.71318
  -2   6   8    2.00    0.30   1-0.38969-0.90280-0.87634-0.31490-0.28312-0.29288
   2  -6  -8    1.93    0.32   1-0.79014-0.27719-0.21470-0.77708-0.57407-0.56507
   2  -6  -7   10.07    0.45   1-0.22902 0.27781 0.32215-0.17752 0.91856 0.94408
  -2   6   7   10.04    0.45   1-0.18305-0.68896-0.65381-0.15439 0.73417 0.70816
  -2   6   7    9.57    0.42   1-0.36631-0.87270-0.89161-0.39245-0.26614-0.29047
   2  -6  -7    9.70    0.44   1-0.77156-0.26531-0.30072-0.80082-0.56057-0.53692
   2  -6  -6   13.45    0.64   1-0.22847 0.27151 0.32878-0.10856 0.91635 0.95629
  -2   6   6   13.75    0.65   1-0.18431-0.68349-0.64771-0.21064 0.73925 0.69890
  -2   6   6   12.59    0.50   1-0.33472-0.83440-0.91039-0.47349-0.24319-0.28209
   2  -6  -6   14.06    0.66   1-0.74453-0.24497-0.39123-0.82906-0.54093-0.50263
   2  -6  -5    3.92    0.34   1-0.22667 0.26646 0.34938-0.02563 0.90914 0.96350
  -2   6   5    3.71    0.36   1-0.18403-0.67648-0.64906-0.27434 0.73813 0.68345
  -2   6   5    3.46    0.28   1-0.29338-0.78633-0.93192-0.55730-0.21315-0.26662
   2  -6  -5    3.56    0.29   1-0.70721-0.21435-0.48563-0.86119-0.51381-0.46087
   2  -6  -4   23.94    0.84   1-0.22253 0.26376 0.39227 0.07959 0.89252 0.96129
  -2   6   4   24.02    0.87   1-0.18119-0.66690-0.66260-0.35022 0.72672 0.65770
   2  -6  -4   24.93    0.93   1-0.65666-0.17043-0.58409-0.89645-0.47709-0.40905
   2  -6  -3   52.98    1.63   1-0.21301 0.26643 0.47405 0.22369 0.85434 0.93753
  -2   6   3   53.20    1.74   1-0.17325-0.65223-0.69795-0.44792 0.69486 0.61151
   2  -6  -3   54.57    1.73   1-0.59280-0.11328-0.68050-0.93059-0.43069-0.34808
   2  -6  -2   34.91    0.92   1-0.18749 0.28521 0.63194 0.44402 0.75199 0.84940
  -2   6   2   35.41    0.95   1-0.15183-0.62409-0.77850-0.59082 0.60899 0.51130
  -2   6   1   85.18    1.55   1-0.04449-0.50981-0.98294-0.85770 0.17845 0.06650
   2  -6  -1   75.68    1.82   1 0.00840 0.47427 0.99994 0.87264 0.00610 0.11641
   2  -6   0   49.24    1.28   1-0.09238 0.36691 0.99345 0.92844-0.06711 0.05789
   2  -6   1   39.17    1.06   1-0.19777 0.25495 0.96965 0.96694-0.14368-0.00396
   2  -6   2   52.96    1.32   1-0.30178 0.14437 0.92782 0.98739-0.21926-0.06483
  -2   6  -3   25.54    0.77   1-0.19977-0.63814 0.56396 0.44032 0.80127 0.63157
   2  -6   3   23.96    1.19   1-0.02211 0.41647-0.99581-0.87169 0.08869 0.25823
   2  -6   3   24.37    0.71   1-0.39890 0.04068 0.86998 0.99185-0.28982-0.12069
  -2   6  -3   24.71    0.75   1-0.00625-0.44584 0.99997 0.87810-0.00454-0.17367
  -2   6  -4   29.06    0.85   1-0.23043-0.66195 0.30444 0.11847 0.92423 0.74012
   2  -6   4   30.54    0.96   1-0.11677 0.31513-0.87577-0.68933 0.46837 0.65231
   2  -6   4   31.43    0.89   1-0.48565-0.05268 0.79977 0.98418-0.35284-0.16912
  -2   6  -4   31.80    0.94   1-0.09744-0.53046 0.99271 0.80855-0.07080-0.25463
  -2   6  -5    4.40    0.29   1-0.23637-0.66104 0.21292-0.03537 0.94804 0.74951
   2  -6   5    4.42    0.30   1-0.14906 0.27606-0.78762-0.53885 0.59785 0.79587
   2  -6   5    4.40    0.31   1-0.55949-0.13317 0.72230 0.96900-0.40650-0.20806
  -2   6  -5    4.63    0.32   1-0.17459-0.60104 0.97643 0.72998-0.12684-0.32538
  -2   6  -6   21.74    0.78   1-0.23819-0.65601 0.17476-0.13586 0.95536 0.74241
   2  -6   6   22.54    0.64   1-0.16349 0.25489-0.73708-0.42596 0.65573 0.86808
   2  -6   6   23.34    1.00   1-0.62078-0.20111 0.64124 0.95024-0.45102-0.23787
  -2   6  -6   22.74    0.62   1-0.23761-0.65749 0.95589 0.64714-0.17263-0.38588
  -2   6  -7    0.09    0.26   1-0.23874-0.64971 0.16154-0.21141 0.95755 0.73018
   2  -6   7    0.17    0.27   1-0.17047 0.24118-0.70953-0.33607 0.68373 0.91043
   2  -6   7    0.07    0.19   1-0.67050-0.25748 0.55955 0.93084-0.48715-0.25928
  -2   6  -7    0.15    0.21   1-0.28770-0.70100 0.93463 0.56359-0.20902-0.43697
  -2   6  -8    3.15    0.34   1-0.23871-0.64284 0.16220-0.27309 0.95744 0.71566
   2  -6   8    3.59    0.30   1-0.17360 0.23131-0.69645-0.26064 0.69628 0.93731
   2  -6   8    3.43    0.28   1-0.71011-0.30373 0.47911 0.91270-0.51593-0.27334
  -2   6  -8    3.24    0.80   1-0.32658-0.73331 0.91490 0.48156-0.23727-0.47993
  -2   6  -9    0.44    0.34   1-0.23833-0.63561 0.17147-0.32615 0.95592 0.69972
   2  -6   9    0.45    0.24   1-0.17443 0.22375-0.69288-0.19471 0.69963 0.95499
   2  -6   9    0.37    0.22   1-0.74112-0.34138 0.40100 0.89688-0.53845-0.28115
  -2   6 -10    4.84    0.38   1-0.23767-0.62810 0.18650-0.37345 0.95327 0.68265
   2  -6  10    4.97    0.36   1-0.17375 0.21770-0.69580-0.13529 0.69689 0.96659
  -2   6 -10    5.11    0.38   1-0.37765-0.77125 0.88435 0.32644-0.27438-0.54645
  -2   6 -11    3.47    0.34   1-0.23675-0.62033 0.20564-0.41664 0.94955 0.66452
   2  -6  11    3.65    0.43   1-0.17197 0.21275-0.70332-0.08045 0.68975 0.97378
   2  -6  11    3.65    0.71   1-0.78262-0.39617 0.25336 0.87383-0.56860-0.28187
  -2   6 -11    3.92    0.38   1-0.39279-0.77981 0.87422 0.25401-0.28538-0.57215
  -2   6 -12   13.08    0.74   1-0.23555-0.61229 0.22783-0.45678 0.94477 0.64532
   2  -6  12   12.46    0.73   1-0.16934 0.20865-0.71415-0.02894 0.67919 0.97756
   2  -6  12   14.49    0.86   1-0.79531-0.41637 0.18324 0.86633-0.57783-0.27585
  -2   6 -12   12.74    0.82   1-0.40252-0.78297 0.86743 0.18493-0.29244-0.59392
  -2   6 -13    6.33    0.52   1-0.23408-0.60397 0.25240-0.49454 0.93887 0.62500
   2  -6  13    6.44    0.41   1-0.16600 0.20525-0.72742 0.02013 0.66579 0.97850
   2  -6  13    6.15    0.44   1-0.80351-0.43127 0.11639 0.86175-0.58379-0.26716
  -2   6 -13    5.83    0.59   1-0.40767-0.78156 0.86375 0.11895-0.29619-0.61237
   2  -5 -11    7.44    0.53   1-0.23311 0.24429 0.26728-0.46060 0.93499 0.85332
  -2   5  11    7.98    0.53   1-0.17008-0.64615-0.71112 0.01671 0.68218 0.76302
  -2   5  11    6.95    0.46   1-0.48415-0.96047-0.80116-0.07408-0.35175-0.26834
   2  -5 -11    7.22    0.52   1-0.80733-0.33119 0.06441-0.66345-0.58656-0.67092
   2  -5 -10   18.65    0.95   1-0.23476 0.23579 0.24139-0.42416 0.94160 0.87435
  -2   5  10   18.34    0.88   1-0.17413-0.64346-0.69417-0.02868 0.69843 0.76493
  -2   5  10   17.54    0.87   1-0.48013-0.94973-0.80485-0.14004-0.34883-0.27999
   2  -5 -10   18.25    1.00   1-0.80899-0.33956-0.00702-0.67261-0.58777-0.65748
   2  -5  -9   24.25    1.19   1-0.23611 0.22759 0.21770-0.38551 0.94702 0.89418
  -2   5   9   23.82    1.13   1-0.17759-0.64019-0.67905-0.07591 0.71228 0.76445
  -2   5   9   22.17    1.10   1-0.47133-0.93421-0.81275-0.21021-0.34244-0.28817
   2  -5  -9   23.50    1.18   1-0.80620-0.34347-0.08325-0.68658-0.58574-0.64080
   2  -5  -8   23.28    0.94   1-0.23718 0.21968 0.19684-0.34404 0.95131 0.91289
  -2   5   8   23.87    0.92   1-0.18035-0.63621-0.66649-0.12571 0.72336 0.76119
  -2   5   8   22.88    0.89   1-0.45672-0.91288-0.82540-0.28513-0.33182-0.29212
   2  -5  -8   24.30    1.03   1-0.79792-0.34189-0.16502-0.70607-0.57972-0.62014
   2  -5  -7   19.52    0.83   1-0.23797 0.21204 0.17981-0.29873 0.95447 0.93048
  -2   5   7   20.26    0.76   1-0.18225-0.63138-0.65760-0.17917 0.73098 0.75448
  -2   5   7   18.98    0.70   1-0.43487-0.88431-0.84324-0.36524-0.31595-0.29082
   2  -5  -7   20.31    0.83   1-0.78269-0.33335-0.25302-0.73180-0.56865-0.59442
   2  -5  -6   18.33    0.83   1-0.23847 0.20470 0.16822-0.24800 0.95646 0.94688
  -2   5   6   17.56    0.72   1-0.18299-0.62539-0.65407-0.23799 0.73395 0.74312
  -2   5   6   17.14    0.70   1-0.40392-0.84665-0.86644-0.45070-0.29347-0.28291
   2  -5  -6   18.07    0.81   1-0.75851-0.31587-0.34779-0.76429-0.55109-0.56220
   2  -5  -5   35.59    1.32   1-0.23861 0.19771 0.16484-0.18905 0.95702 0.96185
  -2   5   5   36.78    1.24   1-0.18202-0.61768-0.65871-0.30497 0.73004 0.72487
  -2   5   5   34.70    1.15   1-0.36152-0.79752-0.89460-0.54113-0.26266-0.26667
   2  -5  -5   36.27    1.28   1-0.72275-0.28681-0.44931-0.80354-0.52511-0.52157
   2  -5  -4   32.49    0.99   1-0.23819 0.19129 0.17495-0.11660 0.95533 0.97458
  -2   5   4   33.92    0.93   1-0.17816-0.60709-0.67649-0.38510 0.71457 0.69507
  -2   5   4   30.23    0.86   1-0.30489-0.73418-0.92626-0.63506-0.22152-0.24010
   2  -5  -4   34.31    0.98   1-0.67128-0.24199-0.55813-0.84932-0.48771-0.46912
   2  -5  -3   37.79    1.00   1-0.23653 0.18610 0.20994-0.01928 0.94867 0.98234
  -2   5   3   38.07    1.02   1-0.16861-0.59081-0.71707-0.48804 0.67628 0.64245
   2  -5  -3   38.68    1.04   1-0.60210-0.17953-0.66790-0.89683-0.43745-0.40429
   2  -5  -2    3.44    0.23   1-0.23077 0.18501 0.30005 0.13315 0.92558 0.97367
  -2   5   2    3.59    0.24   1-0.14478-0.56025-0.80115-0.63446 0.58068 0.53251
   2  -5  -2    3.82    0.30   1-0.51176-0.09591-0.77449-0.94115-0.37182-0.32409
   2  -5  -1    7.92    0.41   1-0.19881 0.21012 0.56972 0.46515 0.79742 0.85992
  -2   5   1    8.16    0.42   1-0.06243-0.47096-0.96612-0.86189 0.25039 0.18795
   2  -5  -1    7.96    0.41   1 0.03251 0.44143 0.99919 0.89328 0.02362 0.08467
   2  -5   0    3.23    0.28   1-0.09057 0.31177 0.99371 0.95010-0.06580 0.00994
   2  -5   1    1.67    0.27   1-0.21793 0.17783 0.96303 0.98171-0.15834-0.06788
   2  -5   2    5.40    0.35   1-0.33945 0.04975 0.90771 0.98869-0.24662-0.14146
  -2   5  -2    5.66    0.37   1 0.00767-0.38152 0.99995 0.91897 0.00557-0.09958
  -2   5  -3    1.48    0.17   1-0.21254-0.59409 0.47760 0.33284 0.85247 0.73230
   2  -5   3    1.55    0.17   1-0.16375 0.21805-0.73608-0.59102 0.65678 0.77662
   2  -5   3    1.51    0.20   1-0.44763-0.06503 0.83297 0.97650-0.32522-0.20544
  -2   5  -3    1.55    0.22   1-0.10922-0.49186 0.99084 0.84757-0.07935-0.19922
  -2   5  -4   28.20    0.83   1-0.23059-0.60529 0.30240 0.09531 0.92486 0.79027
   2  -5   4   28.63    0.89   1-0.18719 0.18787-0.63342-0.42601 0.75081 0.88499
   2  -5   4   28.47    0.84   1-0.53768-0.16172 0.74719 0.95301-0.39064-0.25615
  -2   5  -4   29.68    0.74   1-0.20652-0.58258 0.96686 0.76130-0.15004-0.28461
  -2   5  -5   36.09    1.00   1-0.23566-0.60351 0.22604-0.04338 0.94518 0.79617
   2  -5   5   36.66    0.99   1-0.19504 0.17329-0.59157-0.32181 0.78229 0.93080
   2  -5   5   36.26    0.97   1-0.60997-0.24067 0.65690 0.92502-0.44317-0.29396
  -2   5  -5   35.63    1.04   1-0.28365-0.65315 0.93651 0.66866-0.20609-0.35536
  -2   5  -6   34.44    1.00   1-0.23743-0.59843 0.19180-0.13995 0.95227 0.78885
   2  -5   6   33.73    0.98   1-0.19769 0.16391-0.57637-0.24426 0.79290 0.95575
   2  -5   6   34.68    0.95   1-0.66647-0.30381 0.56686 0.89727-0.48422-0.32029
  -2   5  -6   34.64    1.00   1-0.34279-0.70571 0.90579 0.57564-0.24905-0.41303
  -2   5  -7  157.64    4.64   1-0.23799-0.59215 0.17942-0.21466 0.95455 0.77670
   2  -5   7  159.88    4.54   1-0.19790 0.15696-0.57513-0.18067 0.79375 0.97093
   2  -5   7  164.89    1.54   1-0.70983-0.35381 0.47975 0.87246-0.51572-0.33708
  -2   5  -7  169.74    1.67   1-0.38702-0.74337 0.87815 0.48571-0.28118-0.45987
  -2   5  -8    1.42    0.32   1-0.23797-0.58528 0.17987-0.27654 0.95446 0.76220
   2  -5   8    1.61    0.31   1-0.19671 0.15142-0.58206-0.12525 0.78898 0.98049
   2  -5   8    1.51    0.23   1-0.74260-0.39324 0.39677 0.85177-0.53953-0.34617
  -2   5  -8    1.47    0.25   1-0.41988-0.76925 0.85476 0.39976-0.30506-0.49842
  -2   5  -9   19.84    0.81   1-0.23758-0.57804 0.18855-0.33019 0.95289 0.74621
   2  -5   9   20.24    0.74   1-0.19459 0.14681-0.59413-0.07497 0.78047 0.98631
   2  -5   9   20.15    0.72   1-0.76695-0.42423 0.31823 0.83553-0.55722-0.34915
  -2   5  -9   21.59    0.80   1-0.44286-0.78558 0.83686 0.31956-0.32176-0.52983
  -2   5 -10   42.27    1.48   1-0.23689-0.57050 0.20286-0.37821 0.95011 0.72902
   2  -5  10   43.15    1.45   1-0.19177 0.14290-0.60960-0.02810 0.76915 0.98933
   2  -5  10   43.66    1.46   1-0.78456-0.44849 0.24399 0.82358-0.57002-0.34723
  -2   5 -10   46.62    1.61   1-0.45846-0.79453 0.82392 0.24434-0.33309-0.55588
  -2   5 -11   18.68    0.98   1-0.23592-0.56269 0.22124-0.42217 0.94625 0.71073
   2  -5  11   19.90    0.96   1-0.18838 0.13956-0.62740 0.01644 0.75556 0.99007
   2  -5  11   19.66    1.01   1-0.79680-0.46808 0.17309 0.81523-0.57891-0.34100
  -2   5 -11   19.37    1.02   1-0.46816-0.79759 0.81554 0.17366-0.34014-0.57765
  -2   5 -12   26.94    1.25   1-0.23469-0.55460 0.24268-0.46306 0.94129 0.69136
   2  -5  12   27.25    1.25   1-0.18449 0.13671-0.64683 0.05937 0.73997 0.98882
   2  -5  12   26.45    1.19   1-0.80444-0.48242 0.10620 0.81062-0.58446-0.33190
  -2   5 -12   25.26    1.17   1-0.47308-0.79586 0.81120 0.10702-0.34371-0.59593
  -2   5 -13    6.55    0.50   1-0.23317-0.54624 0.26650-0.50156 0.93520 0.67085
   2  -5  13    6.30    0.39   1-0.18015 0.13432-0.66740 0.10115 0.72257 0.98576
   2  -5  13    6.20    0.45   1-0.80829-0.49297 0.04234 0.80903-0.58725-0.32005
  -2   5 -13    5.86    0.46   1-0.47402-0.79015 0.81036 0.04389-0.34439-0.61133
   2  -4 -12    7.16    0.46   1-0.23674 0.19070 0.20576-0.56332 0.94953 0.80392
  -2   4  12    6.51    0.41   1-0.16485-0.59087-0.73186 0.03732 0.66121 0.80590
  -2   4  12    6.57    0.46   1-0.54261-0.96870-0.74172 0.02646-0.39423-0.24679
   2  -4 -12    7.51    0.51   1-0.79459-0.36867 0.18796-0.58084-0.57730-0.72573
   2  -4 -11    0.67    0.40   1-0.23834 0.18225 0.17142-0.53533 0.95593 0.82474
  -2   4  11    0.75    0.32   1-0.16909-0.58837-0.71516-0.00833 0.67818 0.80854
  -2   4  11    0.45    0.32   1-0.54484-0.96422-0.73921-0.03329-0.39585-0.26298
   2  -4 -11    0.69    0.36   1-0.80272-0.38351 0.12444-0.58209-0.58321-0.71699
   2  -4 -10   12.64    0.71   1-0.23962 0.17413 0.13762-0.50680 0.96106 0.84429
  -2   4  10   12.64    0.74   1-0.17275-0.58530-0.70004-0.05555 0.69288 0.80890
  -2   4  10   11.58    0.67   1-0.54342-0.95608-0.74081-0.09716-0.39482-0.27652
   2  -4 -10   12.46    0.75   1-0.80772-0.39520 0.05654-0.58771-0.58684-0.70597
   2  -4  -9    8.35    0.42   1-0.24060 0.16630 0.10439-0.47770 0.96499 0.86263
  -2   4   9    7.69    0.40   1-0.17577-0.58159-0.68708-0.10494 0.70499 0.80668
  -2   4   9    7.96    0.43   1-0.53755-0.94349-0.74732-0.16594-0.39056-0.28683
   2  -4  -9    7.46    0.46   1-0.80890-0.40309-0.01667-0.59866-0.58770-0.69218
   2  -4  -8   -0.00    0.23   1-0.24129 0.15875 0.07181-0.44794 0.96779 0.87985
  -2   4   8    0.02    0.23   1-0.17802-0.57710-0.67711-0.15732 0.71401 0.80137
  -2   4   8    0.01    0.33   1-0.52610-0.92532-0.75967-0.24056-0.38223-0.29308
   2  -4  -8   -0.10    0.36   1-0.80524-0.40613-0.09638-0.61610-0.58504-0.67488
   2  -4  -7    1.75    0.26   1-0.24172 0.15148 0.04000-0.41742 0.96951 0.89599
  -2   4   7    1.63    0.25   1-0.17929-0.57164-0.67137-0.21393 0.71910 0.79211
  -2   4   7    1.72    0.25   1-0.50739-0.89989-0.77887-0.32203-0.36864-0.29406
   2  -4  -7    1.57    0.34   1-0.79520-0.40279-0.18398-0.64143-0.57775-0.65293
   2  -4  -6    5.43    0.39   1-0.24190 0.14420 0.01033-0.38488 0.97024 0.91163
  -2   4   6    5.50    0.34   1-0.17920-0.56482-0.67176-0.27667 0.71876 0.77744
  -2   4   6    5.61    0.32   1-0.47901-0.86480-0.80586-0.41129-0.34802-0.28801
   2  -4  -6    6.00    0.35   1-0.77642-0.39071-0.28096-0.67613-0.56410-0.62464
   2  -4  -5   12.74    0.49   1-0.24187 0.13742-0.01917-0.35203 0.97011 0.92584
  -2   4   5   12.68    0.45   1-0.17707-0.55596-0.68134-0.34860 0.71022 0.75457
  -2   4   5   12.42    0.42   1-0.43755-0.81661-0.84112-0.50882-0.31790-0.27246
   2  -4  -5   12.60    0.50   1-0.74541-0.36640-0.38864-0.72154-0.54157-0.58746
   2  -4  -4   13.34    0.54   1-0.24165 0.13084-0.04665-0.31716 0.96923 0.93930
  -2   4   4   13.34    0.53   1-0.17148-0.54364-0.70534-0.43495 0.68780 0.71781
  -2   4   4   13.22    0.49   1-0.37841-0.75076-0.88386-0.61383-0.27493-0.24406
   2  -4  -4   13.87    0.59   1-0.69713-0.32482-0.50739-0.77802-0.50650-0.53773
   2  -4  -3   28.41    0.90   1-0.24131 0.12438-0.07059-0.27874 0.96787 0.95227
  -2   4   3   29.65    0.66   1-0.15914-0.52456-0.75317-0.54513 0.63827 0.65396
  -2   4   3   27.51    0.81   1-0.29617-0.66179-0.93058-0.72281-0.21518-0.19888
   2  -4  -3   28.99    0.79   1-0.62404-0.25841-0.63640-0.84416-0.45339-0.46969
   2  -4  -2   28.67    0.82   1-0.24100 0.11789-0.08698-0.23278 0.96661 0.96535
  -2   4   2   30.36    0.79   1-0.13079-0.48948-0.84124-0.69555 0.52458 0.52593
   2  -4  -2   29.74    0.86   1-0.52092-0.16201-0.76511-0.91060-0.37847-0.38020
   2  -4  -1   78.74    1.77   1-0.24113 0.11095-0.08035-0.16380 0.96715 0.98023
  -2   4   1   81.96    1.75   1-0.05273-0.40451-0.97594-0.89270 0.21152 0.19858
   2  -4  -1   74.84    1.70   1 0.05201 0.40396 0.99793 0.91342 0.03778 0.04956
   2  -4   1  133.16    2.69   1-0.26294 0.07587 0.94571 0.98579-0.19103-0.14984
  -2   4  -1  132.26    2.67   1 0.05165-0.28716 0.99795 0.95787 0.03752-0.00366
  -2   4  -2  106.36    2.17   1-0.15747-0.48894 0.75912 0.65554 0.63160 0.57549
   2  -4   2  108.04    2.28   1-0.22513 0.10654-0.36597-0.26236 0.90297 0.95906
   2  -4   2  106.19    2.29   1-0.40413-0.07189 0.86629 0.96866-0.29362-0.23772
  -2   4  -2  106.21    2.24   1-0.10593-0.43818 0.99138 0.88901-0.07696-0.13286
  -2   4  -3   51.85    1.22   1-0.21365-0.53838 0.46910 0.30321 0.85690 0.78625
   2  -4   3   52.87    1.30   1-0.22587 0.09900-0.35817-0.19221 0.90592 0.97634
   2  -4   3   53.03    1.31   1-0.51906-0.19347 0.76704 0.93197-0.37712-0.30656
  -2   4  -3   54.59    1.33   1-0.23477-0.56044 0.95696 0.79229-0.17057-0.24117
  -2   4  -4   70.17    1.65   1-0.22853-0.54642 0.32801 0.09979 0.91661 0.83154
   2  -4   4   71.52    1.59   1-0.22446 0.09360-0.37297-0.14465 0.90028 0.98504
   2  -4   4   72.77    1.59   1-0.60605-0.28711 0.66243 0.88966-0.44032-0.35505
  -2   4  -4   74.18    1.72   1-0.33228-0.65138 0.91175 0.68479-0.24141-0.32672
  -2   4  -5   40.88    1.25   1-0.23373-0.54476 0.25801-0.03253 0.93744 0.83795
   2  -4   5   40.75    1.18   1-0.22226 0.08900-0.39481-0.10413 0.89147 0.99057
   2  -4   5   41.52    1.17   1-0.67004-0.35775 0.56040 0.84992-0.48681-0.38683
  -2   4  -5   43.91    1.25   1-0.40283-0.71537 0.86721 0.57795-0.29267-0.39269
  -2   4  -6   38.90    1.07   1-0.23577-0.53996 0.22393-0.12894 0.94565 0.83174
   2  -4   6   40.01    1.06   1-0.21958 0.08487-0.41965-0.06662 0.88072 0.99416
   2  -4   6   37.99    0.98   1-0.71637-0.41072 0.46466 0.81648-0.52047-0.40577
  -2   4  -6   39.36    1.04   1-0.45316-0.75880 0.82839 0.47657-0.32924-0.44393
  -2   4  -7    5.39    0.33   1-0.23652-0.53386 0.21010-0.20511 0.94863 0.82031
   2  -4   7    5.35    0.32   1-0.21653 0.08113-0.44597-0.03059 0.86845 0.99623
   2  -4   7    5.20    0.31   1-0.74958-0.45058 0.37619 0.79030-0.54460-0.41519
  -2   4  -7    5.55    0.34   1-0.48758-0.78658 0.79797 0.38386-0.35425-0.48366
  -2   4  -8   28.08    1.03   1-0.23659-0.52708 0.20874-0.26879 0.94892 0.80618
   2  -4   8   29.66    0.98   1-0.21313 0.07771-0.47307 0.00465 0.85484 0.99696
   2  -4   8   29.29    0.97   1-0.77310-0.48074 0.29464 0.77105-0.56169-0.41756
  -2   4  -8   32.01    1.07   1-0.51081-0.80316 0.77545 0.29904-0.37112-0.51525
  -2   4  -9    0.60    0.23   1-0.23623-0.51987 0.21563-0.32424 0.94746 0.79031
   2  -4   9    0.68    0.30   1-0.20944 0.07518-0.50044 0.03970 0.84004 0.99637
  -2   4 -10    0.98    0.26   1-0.23553-0.51233 0.22827-0.37393 0.94467 0.77310
   2  -4  10    1.17    0.25   1-0.20542 0.07246-0.52814 0.07435 0.82393 0.99459
   2  -4  10    0.83    0.28   1-0.80005-0.52155 0.14845 0.74965-0.58127-0.40743
  -2   4 -10    0.88    0.29   1-0.53449-0.81355 0.75067 0.14967-0.38833-0.56189
  -2   4 -11    0.16    0.25   1-0.23454-0.50449 0.24512-0.41941 0.94069 0.75470
  -2   4 -12    2.90    0.42   1-0.23326-0.49636 0.26516-0.46170 0.93556 0.73515
   2  -4  12    3.16    0.36   1-0.19645 0.06797-0.58354 0.14365 0.78795 0.98729
  -2   4 -13    0.78    0.29   1-0.23169-0.48794 0.28772-0.50148 0.92926 0.71443
   2  -4  13    0.97    0.28   1-0.19149 0.06620-0.61108 0.17846 0.76805 0.98171
  -2   4 -14    8.67    0.52   1-0.22982-0.47922 0.31231-0.53922 0.92176 0.69251
   2  -4  14    8.62    0.64   1-0.18619 0.06476-0.63844 0.21345 0.74680 0.97480
   2  -4  14    5.33    1.67   1-0.80529-0.55359-0.09585 0.75443-0.58507-0.35264
  -2   4 -14    8.78    1.54   1-0.52905-0.78152 0.75654-0.09363-0.38438-0.61680
   2  -3 -13    1.97    0.40   1-0.23875 0.13872 0.16130-0.64899 0.95758 0.74804
  -2   3  13    1.62    0.32   1-0.15832-0.53429-0.75611 0.05443 0.63500 0.84354
  -2   3  13    1.88    0.37   1-0.59165-0.96752-0.68202 0.12726-0.42986-0.21839
   2  -3 -13    1.92    0.35   1-0.76858-0.39366 0.31217-0.49820-0.55841-0.77253
   2  -3 -12    2.42    0.33   1-0.24014 0.13048 0.12099-0.62697 0.96316 0.76803
  -2   3  12    2.48    0.33   1-0.16269-0.53193-0.74008 0.00811 0.65254 0.84674
  -2   3  12    2.76    0.37   1-0.59911-0.96826-0.67199 0.07501-0.43528-0.23838
   2  -3 -12    2.70    0.48   1-0.78166-0.41339 0.25784-0.49022-0.56790-0.76732
   2  -3 -11    2.98    0.41   1-0.24114 0.12264 0.08028-0.60535 0.96716 0.78645
  -2   3  11    3.14    0.33   1-0.16650-0.52900-0.72545-0.03961 0.66781 0.84769
  -2   3  11    2.77    0.36   1-0.60393-0.96636-0.66538 0.01936-0.43878-0.25645
   2  -3 -11    3.01    0.36   1-0.79306-0.43077 0.19760-0.48760-0.57619-0.75939
   2  -3 -10   10.66    0.63   1-0.24173 0.11519 0.03892-0.58437 0.96956 0.80326
  -2   3  10   10.99    0.67   1-0.16969-0.52545-0.71274-0.08925 0.68058 0.84612
  -2   3  10    9.77    0.61   1-0.60565-0.96136-0.66298-0.04050-0.44003-0.27227
   2  -3 -10   10.93    0.66   1-0.80152-0.44592 0.13579-0.48714-0.58234-0.75088
   2  -3  -9   18.30    0.86   1-0.24192 0.10779-0.00215-0.56339 0.97029 0.81912
  -2   3   9   18.64    0.78   1-0.17214-0.52117-0.70261-0.14146 0.69043 0.84164
  -2   3   9   17.77    0.74   1-0.60358-0.95258-0.66585-0.10564-0.43853-0.28534
   2  -3  -9   17.69    0.77   1-0.80710-0.45821 0.06872-0.49194-0.58639-0.74029
   2  -3  -8   41.61    1.44   1-0.24166 0.10124-0.04589-0.54477 0.96927 0.83244
  -2   3   8   40.61    1.35   1-0.17370-0.51600-0.69601-0.19721 0.69670 0.83357
  -2   3   8   40.53    1.35   1-0.59664-0.93892-0.67535-0.17741-0.43348-0.29487
   2  -3  -8   38.49    1.35   1-0.80900-0.46681-0.00511-0.50350-0.58777-0.72702
   2  -3  -7   51.50    1.72   1-0.24090 0.09521-0.09175-0.52828 0.96620 0.84371
  -2   3   7   50.21    1.52   1-0.17410-0.50967-0.69433-0.25788 0.69827 0.82081
  -2   3   7   52.32    1.56   1-0.58309-0.91864-0.69320-0.25753-0.42364-0.29960
   2  -3  -7   52.81    1.65   1-0.80589-0.47040-0.08776-0.52388-0.58551-0.71011
   2  -3  -6   40.92    1.14   1-0.23951 0.08979-0.14082-0.51499 0.96062 0.85247
  -2   3   6   40.78    1.10   1-0.17284-0.50168-0.69966-0.32556 0.69324 0.80144
  -2   3   6   41.73    1.06   1-0.56015-0.88898-0.72153-0.34812-0.40697-0.29750
   2  -3  -6   43.63    1.19   1-0.79550-0.46671-0.18197-0.55581-0.57797-0.68792
   2  -3  -5   50.07    1.47   1-0.23728 0.08522-0.19492-0.50675 0.95168 0.85786
  -2   3   5   51.20    1.45   1-0.16906-0.49117-0.71526-0.40351 0.67809 0.77196
  -2   3   5   48.84    1.36   1-0.52331-0.84543-0.76261-0.45147-0.38021-0.28531
   2  -3  -5   51.24    1.42   1-0.77394-0.45185-0.29123-0.60280-0.56230-0.65761
   2  -3  -4   66.56    1.62   1-0.23377 0.08192-0.25738-0.50685 0.93760 0.85812
  -2   3   4   70.45    1.56   1-0.16101-0.47638-0.74633-0.49693 0.64580 0.72533
  -2   3   4   67.07    1.50   1-0.46540-0.78081-0.81795-0.56909-0.33814-0.25781
   2  -3  -4   71.24    1.64   1-0.73445-0.41906-0.41932-0.66862-0.53361-0.61426
   2  -3  -3   55.29    1.38   1-0.22796 0.08093-0.33475-0.52187 0.91431 0.84917
  -2   3   3   56.83    1.31   1-0.14483-0.45347-0.80098-0.61393 0.58090 0.64609
  -2   3   3   55.22    1.27   1-0.37574-0.68443-0.88559-0.69900-0.27299-0.20724
   2  -3  -3   56.79    1.41   1-0.66496-0.35627-0.56957-0.75617-0.48312-0.54887
   2  -3  -2   74.30    1.17   1-0.21705 0.08503-0.44159-0.56635 0.87056 0.81976
  -2   3   2   76.51    1.15   1-0.11093-0.41263-0.88867-0.76408 0.44492 0.49588
   2  -3  -2   77.76    1.24   1-0.55044-0.24847-0.73285-0.85718-0.39991-0.45110
   2  -3  -1   62.25    1.04   1-0.19110 0.10407-0.61318-0.67553 0.76647 0.72994
  -2   3   1   64.13    1.06   1-0.03501-0.33004-0.98946-0.92721 0.14045 0.17701
   2  -3  -1   64.80    1.15   1-0.37638-0.08114-0.88518-0.94724-0.27346-0.31007
   2  -3   0   18.41    0.69   1-0.11065 0.17769-0.88926-0.88917 0.44381 0.42164
   2  -3   0   17.79    0.69   1-0.15102 0.13740 0.98242 0.98161-0.10972-0.13250
   2  -3   1   46.96    0.87   1-0.21862 0.06299 0.42819 0.49054 0.87684 0.86913
   2  -3   1   46.51    0.91   1 0.06009 0.34173-0.96866-0.90631-0.24101-0.24863
   2  -3   1   46.49    1.02   1-0.35153-0.06967 0.90066 0.96214-0.25540-0.26347
  -2   3  -1   45.62    1.16   1-0.07102-0.35288 0.99613 0.93465-0.05160-0.04353
  -2   3  -2   24.85    0.72   1-0.17132-0.44593 0.70601 0.58135 0.68716 0.68056
   2  -3   2   25.08    0.68   1-0.24038 0.03438 0.11256 0.23724 0.96412 0.97084
   2  -3   2   24.85    0.71   1-0.50771-0.23249 0.77856 0.90261-0.36887-0.36226
  -2   3  -2   25.13    0.74   1-0.25641-0.53169 0.94844 0.82466-0.18629-0.19292
  -2   3  -3    0.16    0.14   1-0.21050-0.47842 0.49279 0.30578 0.84429 0.82316
   2  -3   3    0.16    0.11   1-0.24163 0.02643-0.04867 0.13833 0.96914 0.99003
   2  -3   3    0.11    0.17   1-0.61504-0.34647 0.64964 0.83598-0.44685-0.42553
  -2   3  -3    0.17    0.13   1-0.38642-0.65513 0.87855 0.69248-0.28075-0.30209
  -2   3  -4    1.02    0.15   1-0.22469-0.48575 0.37065 0.12131 0.90118 0.86563
   2  -3   4    0.97    0.16   1-0.23922 0.02204-0.14892 0.10043 0.95947 0.99470
   2  -3   4    0.92    0.16   1-0.68602-0.42410 0.53003 0.77867-0.49842-0.46238
  -2   3  -4    0.94    0.21   1-0.47216-0.73409 0.81201 0.56337-0.34305-0.37908
  -2   3  -5    1.24    0.18   1-0.23052-0.48474 0.30333-0.00834 0.92458 0.87461
   2  -3   5    1.26    0.19   1-0.23591 0.01855-0.22152 0.09019 0.94618 0.99575
   2  -3   5    1.20    0.23   1-0.73268-0.47740 0.42403 0.73496-0.53232-0.48157
  -2   3  -5    1.16    0.24   1-0.52657-0.78185 0.75917 0.44824-0.38258-0.43333
  -2   3  -6   22.33    0.81   1-0.23310-0.48047 0.26759-0.10641 0.93491 0.87052
   2  -3   6   22.15    0.70   1-0.23225 0.01540-0.27983 0.09423 0.93153 0.99543
   2  -3   6   21.94    0.71   1-0.76348-0.51485 0.33074 0.70397-0.55470-0.48923
  -2   3  -6   22.55    0.73   1-0.56106-0.80969 0.72044 0.34721-0.40763-0.47310
  -2   3  -7   35.31    1.08   1-0.23417-0.47470 0.25104-0.18528 0.93922 0.86042
   2  -3   7   35.77    0.97   1-0.22838 0.01247-0.32985 0.10656 0.91599 0.99422
   2  -3   7   35.81    1.65   1-0.78375-0.54176 0.24794 0.68346-0.56943-0.48924
  -2   3  -7   36.62    1.01   1-0.58251-0.82449 0.69394 0.25842-0.42322-0.50340
  -2   3  -8   22.88    0.69   1-0.23443-0.46811 0.24688-0.25177 0.94025 0.84704
   2  -3   8   24.29    0.87   1-0.22430 0.00975-0.37461 0.12416 0.89963 0.99221
   2  -3   8   21.77    2.09   1-0.79680-0.56183 0.17305 0.67103-0.57891-0.48379
  -2   3  -8   24.30    0.92   1-0.59514-0.83048 0.67736 0.17954-0.43240-0.52730
  -2   3  -9  106.69    3.32   1-0.23416-0.46099 0.25117-0.30983 0.93919 0.83155
   2  -3   9  116.15    3.40   1-0.22001 0.00723-0.41579 0.14533 0.88244 0.98935
   2  -3   9  103.33    3.08   1-0.80454-0.57626 0.10496 0.66521-0.58453-0.47476
  -2   3  -9  104.11    3.12   1-0.60158-0.83027 0.66863 0.10852-0.43707-0.54668
  -2   3 -10    1.60    0.35   1-0.23350-0.45348 0.26146-0.36187 0.93654 0.81449
   2  -3  10    1.52    0.25   1-0.21550 0.00494-0.45439 0.16908 0.86433 0.98558
  -2   3 -11   20.20    0.88   1-0.23251-0.44564 0.27620-0.40945 0.93255 0.79607
   2  -3  11   21.21    0.90   1-0.21076 0.00361-0.49091 0.19492 0.84532 0.98081
   2  -3  11   18.54    0.83   1-0.80889-0.59402-0.01706 0.66773-0.58770-0.44862
  -2   3 -11   19.98    0.89   1-0.60172-0.81712 0.66842-0.01627-0.43718-0.57622
  -2   3 -12   28.02    1.23   1-0.23120-0.43749 0.29436-0.45362 0.92730 0.77641
   2  -3  12   30.32    0.65   1-0.20574 0.00190-0.52604 0.22214 0.82519 0.97501
   2  -3  12   31.52    0.79   1-0.80686-0.59868-0.07289 0.67417-0.58622-0.43250
  -2   3 -12   30.49    0.84   1-0.59714-0.80590 0.67467-0.07232-0.43385-0.58761
  -2   3 -13    8.39    0.43   1-0.22958-0.42902 0.31522-0.49509 0.92082 0.75552
   2  -3  13    9.48    0.52   1-0.20044 0.00047-0.55992 0.25062 0.80393 0.96808
   2  -3  13    9.32    0.55   1-0.80255-0.60107-0.12618 0.68316-0.58308-0.41471
  -2   3 -13   10.21    0.60   1-0.59012-0.79223 0.68405-0.12524-0.42875-0.59723
  -2   3 -14   20.44    0.95   1-0.22765-0.42025 0.33828-0.53437 0.91309 0.73337
   2  -3  14   21.57    0.87   1-0.19484-0.00065-0.59274 0.28015 0.78147 0.95995
   2  -3  14   22.44    1.30   1-0.79618-0.60140-0.17740 0.69421-0.57846-0.39544
  -2   3 -14   22.76    1.20   1-0.58094-0.77640 0.69595-0.17562-0.42207-0.60527
   2  -2 -13    8.50    0.58   1-0.24100 0.07965 0.08701-0.70216 0.96661 0.70754
  -2   2  13    8.76    0.57   1-0.15509-0.47427-0.76747 0.02207 0.62204 0.88009
  -2   2  13    9.43    0.53   1-0.64275-0.96168-0.60727 0.18085-0.46699-0.20606
   2  -2 -13    9.48    0.51   1-0.74747-0.42956 0.38257-0.40638-0.54306-0.80642
   2  -2 -12   20.90    1.07   1-0.24171 0.07210 0.04166-0.68517 0.96945 0.72480
  -2   2  12   21.98    1.05   1-0.15901-0.47146-0.75363-0.02643 0.63776 0.88148
  -2   2  12   23.35    1.13   1-0.65226-0.96446-0.59158 0.13426-0.47389-0.22754
   2  -2 -12   22.56    1.12   1-0.76210-0.45085 0.33555-0.39111-0.55370-0.80234
   2  -2 -11   24.77    1.27   1-0.24191 0.06460-0.00358-0.66849 0.97028 0.74090
  -2   2  11   25.76    1.19   1-0.16231-0.46803-0.74153-0.07667 0.65099 0.88037
  -2   2  11   26.56    1.27   1-0.65968-0.96517-0.57886 0.08471-0.47929-0.24750
   2  -2 -11   26.17    1.20   1-0.77520-0.47059 0.28608-0.37828-0.56321-0.79714
   2  -2 -10   13.14    0.55   1-0.24159 0.05812-0.05180-0.65435 0.96899 0.75395
  -2   2  10   13.07    0.48   1-0.16489-0.46388-0.73171-0.12921 0.66136 0.87642
  -2   2  10   12.11    0.57   1-0.66475-0.96352-0.56993 0.03137-0.48297-0.26576
   2  -2 -10   14.43    0.65   1-0.78716-0.48849 0.23084-0.37076-0.57191-0.78987
   2  -2  -9    5.35    0.35   1-0.24065 0.05226-0.10230-0.64250 0.96520 0.76450
  -2   2   9    5.37    0.35   1-0.16663-0.45888-0.72494-0.18479 0.66834 0.86906
  -2   2   9    4.50    0.43   1-0.66699-0.95904-0.56592-0.02687-0.48460-0.28196
   2  -2  -9    5.52    0.46   1-0.79668-0.50471 0.17393-0.36539-0.57882-0.78214
   2  -2  -8   28.12    1.03   1-0.23896 0.04715-0.15595-0.63380 0.95842 0.77205
  -2   2   8   28.54    0.97   1-0.16730-0.45282-0.72230-0.24450 0.67103 0.85741
  -2   2   8   27.28    0.98   1-0.66559-0.95093-0.56843-0.09166-0.48358-0.29551
   2  -2  -8   28.51    1.00   1-0.80398-0.51871 0.11138-0.36568-0.58412-0.77279
   2  -2  -7   23.85    0.92   1-0.23631 0.04299-0.21404-0.62954 0.94780 0.77577
  -2   2   7   24.55    0.89   1-0.16654-0.44533-0.72529-0.30983 0.66799 0.84004
  -2   2   7   24.91    0.93   1-0.65915-0.93776-0.57980-0.16529-0.47890-0.30540
   2  -2  -7   23.11    0.90   1-0.80833-0.52976 0.04095-0.37383-0.58729-0.76131
   2  -2  -6    0.03    0.17   1-0.23234 0.04015-0.27851-0.63165 0.93190 0.77421
  -2   2   6    0.03    0.17   1-0.16375-0.43580-0.73609-0.38299 0.65676 0.81448
  -2   2   6    0.09    0.16   1-0.64513-0.91702-0.60341-0.25117-0.46871-0.30979
   2  -2  -6   -0.00    0.19   1-0.80834-0.53647-0.04078-0.39329-0.58729-0.74666
   2  -2  -5    2.99    0.30   1-0.22640 0.03930-0.35241-0.64319 0.90804 0.76469
  -2   2   5    3.21    0.30   1-0.15781-0.42313-0.75793-0.46718 0.63295 0.77633
  -2   2   5    3.33    0.29   1-0.61876-0.88394-0.64422-0.35425-0.44955-0.30520
   2  -2  -5    3.41    0.28   1-0.80112-0.53595-0.13935-0.42959-0.58205-0.72677
   2  -2  -4    7.13    0.36   1-0.21716 0.04173-0.44069-0.66912 0.87099 0.74197
  -2   2   4    7.21    0.36   1-0.14663-0.40522-0.79535-0.56695 0.58813 0.71718
  -2   2   4    7.08    0.35   1-0.57060-0.82906-0.70890-0.48120-0.41456-0.28478
   2  -2  -4    7.38    0.38   1-0.78038-0.52192-0.26366-0.49163-0.56698-0.69706
   2  -2  -3    7.89    0.37   1-0.20179 0.05006-0.55154-0.71760 0.80936 0.69465
  -2   2   3    7.94    0.35   1-0.12588-0.37751-0.85394-0.68801 0.50491 0.61977
  -2   2   3    7.70    0.34   1-0.48158-0.73332-0.80352-0.63809-0.34989-0.23467
   2  -2  -3    8.10    0.39   1-0.73155-0.47979-0.42698-0.59268-0.53150-0.64693
   2  -2  -2    9.65    0.43   1-0.17382 0.07130-0.69552-0.79922 0.69716 0.59678
  -2   2   2    9.55    0.40   1-0.08685-0.33180-0.93332-0.82973 0.34836 0.44882
  -2   2   2    9.20    0.38   1-0.31707-0.56210-0.91999-0.81683-0.23037-0.12973
   2  -2  -2   10.11    0.48   1-0.62030-0.37528-0.64196-0.74512-0.45067-0.55131
   2  -2  -1  103.14    1.46   1-0.11816 0.12011-0.87260-0.91385 0.47392 0.38786
  -2   2   1  107.49    1.42   1-0.01413-0.25240-0.99829-0.95703 0.05667 0.14274
   2  -2  -1  108.24    1.63   1-0.39104-0.15274-0.87541-0.91631-0.28411-0.37018
   2  -2  -1  100.22    1.51   1 0.04947 0.28751 0.99812 0.95642 0.03594-0.05079
   2  -2   0   26.50    0.72   1-0.09433 0.13718 0.92084 0.94191 0.37834 0.30656
   2  -2   0   26.01    0.74   1-0.01653 0.21506-0.99766-0.97658 0.06632-0.00533
   2  -2   0   25.54    0.79   1-0.27341-0.04194 0.94116 0.96175-0.19864-0.27068
  -2   2   0   26.82    0.77   1 0.05049-0.18098 0.99805 0.97745 0.03668 0.10872
  -2   2  -1   82.13    1.20   1-0.10020-0.32484 0.91018 0.82678 0.40189 0.45924
   2  -2   1   83.12    1.20   1-0.18498 0.03965 0.64446 0.72786 0.74192 0.68457
   2  -2   1   83.25    1.37   1-0.51564-0.29079 0.77055 0.85371-0.37463-0.43197
  -2   2  -1   83.44    1.33   1-0.26218-0.48708 0.94603 0.86314-0.19048-0.13315
  -2   2  -2  100.56    1.35   1-0.17217-0.38993 0.70247 0.55674 0.69056 0.73347
   2  -2   2  103.01    1.31   1-0.22562-0.00767 0.36087 0.50667 0.90491 0.86210
   2  -2   2   99.10    1.33   1-0.65044-0.43224 0.59463 0.74009-0.47257-0.51519
  -2   2  -2  102.11    1.47   1-0.45430-0.67251 0.82744 0.68198-0.33007-0.28745
  -2   2  -3  144.44    1.68   1-0.20473-0.41560 0.53272 0.32465 0.82114 0.84962
   2  -2   3  147.10    1.72   1-0.23881-0.02771 0.15981 0.36794 0.95782 0.92943
   2  -2   3  140.98    1.64   1-0.72196-0.51040 0.45126 0.65901-0.52453-0.55244
  -2   2  -3  147.14    1.71   1-0.55649-0.76804 0.72584 0.51809-0.40431-0.37640
  -2   2  -4  127.44    2.54   1-0.21914-0.42339 0.42362 0.15316 0.87892 0.89290
   2  -2   4  131.40    2.57   1-0.24186-0.03739 0.02136 0.29176 0.97007 0.95575
   2  -2   4  127.60    2.55   1-0.76148-0.55657 0.33770 0.60775-0.55325-0.56644
  -2   2  -4  134.33    2.66   1-0.61119-0.81610 0.65517 0.38512-0.44405-0.43086
  -2   2  -5   47.42    1.18   1-0.22591-0.42331 0.35774 0.02494 0.90608 0.90563
   2  -2   5   47.58    1.18   1-0.24110-0.04344-0.08192 0.25082 0.96703 0.96705
   2  -2   5   44.72    1.04   1-0.78431-0.58605 0.24520 0.57754-0.56984-0.56831
  -2   2  -5   49.44    1.21   1-0.64111-0.83938 0.60992 0.27757-0.46579-0.46732
  -2   2  -6   58.56    1.61   1-0.22922-0.41977 0.31976-0.07536 0.91935 0.90449
   2  -2   6   60.77    1.64   1-0.23867-0.04780-0.16341 0.23169 0.95725 0.97161
   2  -2   6   61.04    1.68   1-0.79768-0.60622 0.16681 0.56157-0.57954-0.56313
  -2   2  -6   61.73    1.72   1-0.65731-0.84892 0.58298 0.18835-0.47756-0.49380
  -2   2  -7   44.25    1.18   1-0.23077-0.41449 0.29999-0.15746 0.92560 0.89632
   2  -2   7   45.24    1.13   1-0.23536-0.05131-0.23118 0.22628 0.94401 0.97270
   2  -2   7   40.87    2.18   1-0.80509-0.62033 0.09829 0.55533-0.58493-0.55387
  -2   2  -7   41.34    2.22   1-0.66527-0.85024 0.56901 0.11208-0.48335-0.51430
  -2   2  -8   32.36    1.15   1-0.23133-0.40820 0.29254-0.22725 0.92784 0.88415
   2  -2   8   32.88    1.11   1-0.23153-0.05428-0.28984 0.22997 0.92864 0.97168
   2  -2   8   29.74    1.33   1-0.80847-0.63041 0.03671 0.55602-0.58738-0.54168
  -2   2  -8   27.03    2.16   1-0.66789-0.84621 0.56431 0.04508-0.48525-0.53092
  -2   2  -9    4.89    0.33   1-0.23125-0.40126 0.29373-0.28838 0.92749 0.86937
   2  -2   9    5.03    0.38   1-0.22732-0.05686-0.34215 0.24000 0.91172 0.96910
  -2   2 -10   24.61    0.96   1-0.23068-0.39385 0.30124-0.34321 0.92522 0.85269
   2  -2  10   25.86    0.92   1-0.22277-0.05913-0.38987 0.25464 0.89351 0.96522
   2  -2  10   24.94    1.33   1-0.80687-0.64221-0.07271 0.57114-0.58622-0.51122
  -2   2 -10   24.11    1.67   1-0.66275-0.82778 0.57349-0.07031-0.48151-0.55662
  -2   2 -11    0.81    0.26   1-0.22972-0.38604 0.31349-0.39329 0.92138 0.83443
   2  -2  11    0.95    0.25   1-0.21793-0.06109-0.43412 0.27275 0.87409 0.96014
  -2   2 -12    0.07    0.32   1-0.22841-0.37789 0.32941-0.43970 0.91613 0.81477
   2  -2  12    0.17    0.24   1-0.21280-0.06276-0.47567 0.29355 0.85349 0.95387
  -2   2 -13    0.06    0.39   1-0.22677-0.36940 0.34826-0.48318 0.90955 0.79377
   2  -2  13    0.09    0.26   1-0.20739-0.06325-0.51488 0.31665 0.83179 0.94643
  -2   2 -14    1.36    0.31   1-0.22480-0.36058 0.36949-0.52428 0.90162 0.77143
   2  -2  14    1.48    0.30   1-0.20164-0.06424-0.55249 0.34138 0.80875 0.93772
   2  -1 -13    0.52    0.29   1-0.24187 0.02145 0.01982-0.74874 0.97010 0.66250
  -2   1  13    0.70    0.29   1-0.15037-0.41278-0.78333-0.01477 0.60313 0.91070
  -2   1  13    0.93    0.31   1-0.68915-0.95113-0.52380 0.24315-0.50070-0.19031
   2  -1 -13    0.79    0.29   1-0.71827-0.45738 0.46015-0.30740-0.52185-0.83444
   2  -1 -12    0.24    0.28   1-0.24181 0.01471-0.02998-0.73620 0.96986 0.67660
  -2   1  12    0.25    0.38   1-0.15376-0.40943-0.77201-0.06580 0.61672 0.90996
  -2   1  12    0.32    0.40   1-0.70044-0.95559-0.50039 0.20443-0.50890-0.21222
   2  -1 -12    0.14    0.37   1-0.73344-0.47920 0.42202-0.28323-0.53287-0.83074
   2  -1 -11    2.20    0.40   1-0.24111 0.00860-0.08166-0.72553 0.96705 0.68813
  -2   1  11    2.22    0.39   1-0.15644-0.40538-0.76275-0.11890 0.62747 0.90638
  -2   1  11    2.20    0.31   1-0.71002-0.95847-0.47932 0.16323-0.51586-0.23383
   2  -1 -11    2.24    0.29   1-0.74738-0.49978 0.38283-0.26013-0.54300-0.82616
   2  -1 -10    4.25    0.34   1-0.23968 0.00323-0.13582-0.71733 0.96130 0.69672
  -2   1  10    4.58    0.34   1-0.15830-0.40050-0.75618-0.17467 0.63491 0.89948
  -2   1  10    4.34    0.35   1-0.71798-0.95973-0.46085 0.11942-0.52164-0.25426
   2  -1 -10    4.73    0.41   1-0.76015-0.51920 0.34226-0.23840-0.55228-0.82072
   2  -1  -9    5.22    0.34   1-0.23736-0.00124-0.19325-0.71241 0.95200 0.70175
  -2   1   9    5.34    0.34   1-0.15915-0.39462-0.75314-0.23398 0.63831 0.88855
  -2   1   9    5.09    0.35   1-0.72414-0.95919-0.44587 0.07212-0.52612-0.27338
   2  -1  -9    5.57    0.35   1-0.77179-0.53748 0.29984-0.21852-0.56073-0.81446
   2  -1  -8   17.51    0.70   1-0.23391-0.00460-0.25506-0.71187 0.93820 0.70229
  -2   1   8   18.23    0.53   1-0.15870-0.38744-0.75475-0.29794 0.63651 0.87241
  -2   1   8   16.84    0.54   1-0.72817-0.95652-0.43573 0.01999-0.52904-0.29096
   2  -1  -8   19.48    0.61   1-0.78230-0.55464 0.25484-0.20123-0.56837-0.80738
   2  -1  -7   34.36    0.98   1-0.22897-0.00646-0.32280-0.71725 0.91835 0.69678
  -2   1   7   34.17    0.96   1-0.15649-0.37850-0.76257-0.36811 0.62767 0.84924
   2  -1  -7   36.50    1.00   1-0.79214-0.57049 0.20319-0.19026-0.57552-0.79896
   2  -1  -6   67.92    1.83   1-0.22186-0.00616-0.39863-0.73073 0.88986 0.68263
  -2   1   6   71.33    1.86   1-0.15177-0.36705-0.77871-0.44660 0.60874 0.81597
  -2   1   6   64.75    1.73   1-0.72652-0.94147-0.43992-0.10873-0.52785-0.31906
   2  -1  -6   72.17    1.93   1-0.80006-0.58511 0.14835-0.18283-0.58128-0.79007
   2  -1  -5   92.80    1.98   1-0.21148-0.00294-0.48557-0.75534 0.84822 0.65532
  -2   1   5   95.94    2.00   1-0.14322-0.35176-0.80593-0.53617 0.57442 0.76732
  -2   1   5   95.27    2.01   1-0.71656-0.92480-0.46422-0.19530-0.52061-0.32647
   2  -1  -5   91.20    2.05   1-0.80617-0.59792 0.08372-0.18519-0.58572-0.77986
   2  -1  -4   55.86    1.35   1-0.19574 0.00606-0.58762-0.79503 0.78510 0.60653
  -2   1   4   56.70    1.31   1-0.12846-0.33027-0.84735-0.63993 0.51526 0.69382
  -2   1   4   57.25    1.33   1-0.69210-0.89364-0.51782-0.31118-0.50284-0.32335
   2  -1  -4   53.12    1.36   1-0.80901-0.60746 0.00105-0.20558-0.58778-0.76727
   2  -1  -3  118.21    1.65   1-0.17076 0.02431-0.70835-0.85342 0.68488 0.52065
  -2   1   3  122.26    1.61   1-0.10315-0.29802-0.90454-0.75961 0.41371 0.57807
  -2   1   3  122.73    1.57   1-0.63075-0.82555-0.62620-0.48194-0.45827-0.29359
   2  -1  -3  122.83    1.65   1-0.80317-0.60833-0.11991-0.26428-0.58354-0.74838
   2  -1  -2  192.44    2.11   1-0.12951 0.05883-0.84463-0.92734 0.51943 0.36954
  -2   1   2  195.64    2.17   1-0.06031-0.24850-0.96842-0.88582 0.24189 0.39186
  -2   1   2  186.78    2.15   1-0.45183-0.63990-0.82950-0.74750-0.32827-0.17817
   2  -1  -2  183.45    2.29   1-0.76120-0.57306-0.33867-0.42076-0.55304-0.70324
   2  -1  -1   59.18    1.03   1-0.06266 0.11886-0.96587-0.98614 0.25132 0.11575
  -2   1   1   59.74    1.01   1 0.00762-0.17382-0.99950-0.97916-0.03057 0.10495
   2  -1  -1   62.58    1.40   1-0.49891-0.31755-0.78720-0.80693-0.36248-0.49800
   2  -1  -1   61.04    1.27   1-0.06835 0.11273 0.99642 0.97612-0.04966-0.18567
   2  -1   0  118.30    1.50   1-0.09425 0.08041 0.92098 0.96313 0.37801 0.25672
   2  -1   0  117.71    1.53   1 0.02758 0.20236-0.99347-0.95149-0.11062-0.23175
   2  -1   0  115.91    1.72   1-0.60006-0.42558 0.67070 0.71298-0.43597-0.55725
  -2   1   0  118.17    1.69   1-0.19946-0.37397 0.96912 0.92713-0.14491-0.02361
  -2   1  -1   72.49    1.07   1-0.11269-0.28047 0.88487 0.78039 0.45198 0.55885
   2  -1   1   73.40    1.11   1-0.16822-0.00044 0.71864 0.82313 0.67471 0.56784
   2  -1   1   70.24    1.08   1-0.74152-0.57369 0.39985 0.50442-0.53875-0.64531
  -2   1  -1   73.24    1.12   1-0.55817-0.72601 0.72386 0.61929-0.40553-0.29897
  -2   1  -2   41.24    0.94   1-0.16765-0.32855 0.72091 0.55409 0.67243 0.76486
   2  -1   2   42.31    0.98   1-0.21139-0.05025 0.48626 0.65318 0.84785 0.75552
   2  -1   2   41.81    1.03   1-0.78203-0.62084 0.25611 0.42298-0.56818-0.66003
  -2   1  -2   41.76    1.00   1-0.66775-0.82894 0.56456 0.39769-0.48515-0.39330
  -2   1  -3   81.33    1.23   1-0.19693-0.35094 0.58081 0.35166 0.78985 0.86785
   2  -1   3   83.71    1.17   1-0.23142-0.07713 0.29140 0.52066 0.92818 0.85027
   2  -1   3   82.57    1.39   1-0.79806-0.64342 0.16397 0.39324-0.57982-0.65678
  -2   1  -3   80.50    1.24   1-0.70795-0.86249 0.48398 0.25481-0.51435-0.43722
  -2   1  -4   36.63    0.89   1-0.21193-0.35937 0.48224 0.19065 0.85001 0.91351
   2  -1   4   37.92    0.89   1-0.23952-0.09208 0.14033 0.43191 0.96069 0.89719
   2  -1   4   33.93    0.99   1-0.80545-0.65751 0.09369 0.38523-0.58520-0.64750
  -2   1  -4   35.23    0.93   1-0.72455-0.87244 0.44486 0.15341-0.52641-0.46399
  -2   1  -5    4.41    0.31   1-0.21979-0.36038 0.41784 0.06392 0.88153 0.93061
   2  -1   5    4.81    0.28   1-0.24185-0.10099 0.02365 0.37744 0.97002 0.92050
   2  -1   5    4.22    0.33   1-0.80851-0.66727 0.03531 0.38913-0.58741-0.63507
  -2   1  -5    4.12    0.41   1-0.73096-0.87221 0.42854 0.07479-0.53107-0.48337
  -2   1  -6    0.30    0.16   1-0.22398-0.35773 0.37783-0.03842 0.89837 0.93303
   2  -1   6    0.33    0.19   1-0.24130-0.10724-0.07160 0.34454 0.96780 0.93262
  -2   1  -7    2.44    0.25   1-0.22617-0.35307 0.35488-0.12369 0.90713 0.92738
   2  -1   7    2.34    0.24   1-0.23913-0.11188-0.15125 0.32725 0.95913 0.93829
  -2   1  -8    8.74    0.45   1-0.22715-0.34720 0.34403-0.19687 0.91106 0.91689
   2  -1   8    9.33    0.41   1-0.23599-0.11554-0.21994 0.32091 0.94653 0.94003
   2  -1   8    8.40    0.69   1-0.80431-0.68317-0.10769 0.43294-0.58436-0.58807
  -2   1  -8    8.19    1.44   1-0.72521-0.84653 0.44320-0.09743-0.52690-0.52334
  -2   1  -9   23.72    0.97   1-0.22733-0.34053 0.34198-0.26126 0.91179 0.90320
   2  -1   9   25.37    0.92   1-0.23219-0.11854-0.28071 0.32250 0.93128 0.93911
   2  -1   9   25.72    1.07   1-0.79985-0.68542-0.15005 0.45285-0.58113-0.57019
  -2   1  -9   26.59    1.18   1-0.71882-0.83349 0.45884-0.14408-0.52225-0.53341
  -2   1 -10   11.38    0.53   1-0.22693-0.33329 0.34648-0.31909 0.91019 0.88718
   2  -1  10   12.10    0.50   1-0.22789-0.12104-0.33559 0.32997 0.91402 0.93619
   2  -1  10   10.59    1.28   1-0.79412-0.68638-0.19099 0.47418-0.57696-0.55137
  -2   1 -10   11.63    1.00   1-0.71086-0.81888 0.47740-0.18781-0.51647-0.54235
  -2   1 -11   51.64    1.92   1-0.22607-0.32557 0.35600-0.37190 0.90672 0.86930
   2  -1  11   52.03    1.84   1-0.22317-0.12313-0.38597 0.34194 0.89510 0.93161
   2  -1  11   51.68    1.84   1-0.78715-0.68612-0.23090 0.49655-0.57190-0.53166
  -2   1 -11   55.79    1.02   1-0.70149-0.80286 0.49813-0.22938-0.50966-0.55025
  -2   1 -12    2.46    0.32   1-0.22480-0.31746 0.36946-0.42078 0.90164 0.84979
   2  -1  12    2.19    0.35   1-0.21808-0.12485-0.43282 0.35745 0.87470 0.92554
   2  -1  12    1.95    0.57   1-0.77896-0.68462-0.27002 0.51970-0.56595-0.51106
  -2   1 -12    2.44    0.55   1-0.69077-0.78550 0.52051-0.26929-0.50188-0.55718
  -2   1 -13   14.46    0.71   1-0.22316-0.30897 0.38608-0.46649 0.89506 0.82880
   2  -1  13   14.93    0.70   1-0.21264-0.12621-0.47683 0.37579 0.85288 0.91806
   2  -1  13   13.99    0.67   1-0.76953-0.68190-0.30856 0.54343-0.55910-0.48956
  -2   1 -13   15.63    0.75   1-0.67874-0.76682 0.54416-0.30794-0.49313-0.56316
  -2   1 -14   13.80    0.67   1-0.22116-0.30012 0.40528-0.50962 0.88703 0.80635
   2  -1  14   15.20    0.69   1-0.20689-0.12627-0.51827 0.39660 0.82981 0.90926
   2  -1  14   13.87    0.69   1-0.75885-0.67791-0.34665 0.56761-0.55133-0.46715
  -2   1 -14   15.28    0.78   1-0.66539-0.74682 0.56881-0.34559-0.48343-0.56817
   2   0 -14   17.85    0.94   1-0.24191-0.02857 0.00948-0.80040 0.97025 0.59877
  -2   0  14   18.94    0.86   1-0.14066-0.35302-0.81357-0.00366 0.56418 0.93560
  -2   0  14   19.00    0.90   1-0.71633-0.92796-0.46476 0.34328-0.52044-0.14504
   2   0 -14   20.03    0.99   1-0.66410-0.45358 0.57110-0.23733-0.48249-0.85903
   2   0 -13   11.53    0.65   1-0.24170-0.03517-0.04231-0.78984 0.96942 0.61229
  -2   0  13   13.11    0.66   1-0.14413-0.34975-0.80313-0.05557 0.57809 0.93519
  -2   0  13   12.64    0.89   1-0.72948-0.93441-0.43237 0.31339-0.53000-0.16925
   2   0 -13   13.43    0.85   1-0.67967-0.47580 0.54239-0.20375-0.49381-0.85562
   2   0 -12   18.81    0.99   1-0.24080-0.04108-0.09594-0.78112 0.96581 0.62302
  -2   0  12   19.94    0.89   1-0.14689-0.34578-0.79454-0.10933 0.58916 0.93192
  -2   0  12   20.36    0.92   1-0.74133-0.93956-0.40039 0.28310-0.53861-0.19251
   2   0 -12   20.87    0.95   1-0.69386-0.49663 0.51421-0.16963-0.50412-0.85122
   2   0 -11   15.37    0.73   1-0.23911-0.04619-0.15193-0.77475 0.95903 0.63057
  -2   0  11   16.17    0.73   1-0.14884-0.34099-0.78834-0.16547 0.59696 0.92538
  -2   0  11   16.97    0.76   1-0.75195-0.94348-0.36890 0.25231-0.54632-0.21487
   2   0 -11   17.27    0.82   1-0.70670-0.51612 0.48675-0.13480-0.51345-0.84583
   2   0 -10   48.91    1.63   1-0.23647-0.05036-0.21094-0.77141 0.94846 0.63434
  -2   0  10   48.53    1.54   1-0.14981-0.33523-0.78518-0.22467 0.60086 0.91495
  -2   0  10   51.69    1.68   1-0.76138-0.94621-0.33805 0.22090-0.55318-0.23637
   2   0 -10   53.53    1.67   1-0.71822-0.53428 0.46028-0.09897-0.52182-0.83948
   2   0  -9   47.29    1.59   1-0.23267-0.05335-0.27385-0.77196 0.93320 0.63341
  -2   0   9   48.38    1.57   1-0.14957-0.32826-0.78595-0.28778 0.59992 0.89967
  -2   0   9   50.61    1.63   1-0.76967-0.94780-0.30803 0.18864-0.55920-0.25705
   2   0  -9   49.79    1.59   1-0.72838-0.55109 0.43520-0.06176-0.52920-0.83215
   2   0  -8   20.78    0.73   1-0.22735-0.05484-0.34179-0.77756 0.91185 0.62641
  -2   0   8   20.99    0.64   1-0.14777-0.31973-0.79175-0.35594 0.59268 0.87810
  -2   0   8   22.17    0.87   1-0.77684-0.94827-0.27918 0.15522-0.56441-0.27690
   2   0  -8   21.54    0.78   1-0.73710-0.56646 0.41214-0.02252-0.53554-0.82377
   2   0  -7   29.49    0.96   1-0.21996-0.05425-0.41626-0.78966 0.88223 0.61112
  -2   0   7   28.56    0.83   1-0.14383-0.30906-0.80405-0.43058 0.57689 0.84798
  -2   0   7   29.60    0.90   1-0.78289-0.94762-0.25205 0.12008-0.56880-0.29595
   2   0  -7   28.80    0.84   1-0.74421-0.58021 0.39216 0.01978-0.54070-0.81422
   2   0  -6   46.83    1.39   1-0.20966-0.05116-0.49890-0.81002 0.84091 0.58416
  -2   0   6   46.23    1.33   1-0.13686-0.29535-0.82459-0.51347 0.54892 0.80567
  -2   0   6   45.30    1.32   1-0.78777-0.94580-0.22762 0.08223-0.57235-0.31414
   2   0  -6   43.06    1.24   1-0.74928-0.59193 0.37711 0.06702-0.54438-0.80319
   2   0  -5   47.73    1.20   1-0.19495-0.04319-0.59210-0.84087 0.78192 0.53950
  -2   0   5   47.89    1.17   1-0.12525-0.27671-0.85553-0.60692 0.50236 0.74502
  -2   0   5   43.74    1.08   1-0.79133-0.94266-0.20791 0.03966-0.57494-0.33138
   2   0  -5   44.03    1.05   1-0.75137-0.60066 0.37072 0.12293-0.54590-0.78999
   2   0  -4    3.07    0.27   1-0.17346-0.02843-0.69703-0.88345 0.69573 0.46765
  -2   0   4    3.14    0.24   1-0.10681-0.25160-0.89725-0.71098 0.42839 0.65666
  -2   0   4    2.65    0.25   1-0.79305-0.93768-0.19765-0.01234-0.57618-0.34727
   2   0  -4    2.89    0.23   1-0.74780-0.60374 0.38158 0.19609-0.54330-0.77268
   2   0  -3    0.44    0.18   1-0.14139-0.00310-0.81140-0.93547 0.56711 0.35336
  -2   0   3    0.45    0.13   1-0.07762-0.21574-0.94713-0.82318 0.31131 0.52518
  -2   0   3    0.44    0.13   1-0.79074-0.92866-0.21133-0.08829-0.57450-0.36024
   2   0  -3    0.39    0.14   1-0.72849-0.59108 0.43491 0.31171-0.52928-0.74394
   2   0  -2    0.54    0.14   1-0.09365 0.03779-0.92202-0.98363 0.37562 0.17615
  -2   0   2    0.47    0.17   1-0.03285-0.16430-0.99073-0.92912 0.13179 0.33126
  -2   0   2    0.39    0.26   1-0.76476-0.89598-0.32620-0.26543-0.55563-0.35602
   2   0  -2    0.29    0.26   1-0.61749-0.48673 0.64607 0.58517-0.44863-0.64858
   2   0  -1    0.45    0.13   1-0.02789 0.09687-0.99332-0.99260 0.11189-0.07316
  -2   0   1    0.42    0.12   1 0.02945-0.09523-0.99255-0.99320-0.11814 0.06692
   2   0   0   10.01    0.41   1-0.10087 0.01692 0.90891 0.97214 0.40459 0.23378
   2   0   0   10.05    0.42   1 0.04762 0.16565-0.98042-0.91746-0.19102-0.36168
   2   0   0   10.37    0.44   1-0.72818-0.61036-0.43570-0.37192-0.52905-0.69937
  -2   0   0   10.38    0.48   1-0.77413-0.89160 0.29049 0.22680-0.56243-0.39192
  -2   0  -1  120.41    1.47   1-0.11433-0.22525 0.88128 0.75571 0.45855 0.61493
   2   0   1  122.59    1.49   1-0.16194-0.05102 0.74288 0.86844 0.64953 0.49315
  -2   0  -2   20.58    0.60   1-0.16004-0.26408 0.74991 0.56201 0.64188 0.78383
   2   0   2   21.35    0.61   1-0.20227-0.09823 0.54853 0.73643 0.81129 0.66934
   2   0   2   19.98    0.67   1-0.79757-0.69315-0.16759 0.02073-0.57947-0.72049
  -2   0  -2   18.34    0.70   1-0.79517-0.89959 0.18420-0.00412-0.57772-0.43670
  -2   0  -3   57.91    1.02   1-0.18742-0.28458 0.63230 0.38207 0.75170 0.87922
  -2   0  -3   52.41    1.07   1-0.79350-0.89121 0.19491-0.05568-0.57651-0.45014
  -2   0  -4   74.39    1.61   1-0.20312-0.29339 0.54317 0.23061 0.81467 0.92775
   2   0   4   79.00    1.68   1-0.23596-0.14534 0.22051 0.53322 0.94641 0.83339
   2   0   4   69.95    1.65   1-0.79799-0.70697-0.16450 0.14836-0.57977-0.69149
  -2   0  -4   72.48    1.70   1-0.79018-0.88120 0.21449-0.09837-0.57410-0.46238
  -2   0  -5   92.63    1.95   1-0.21211-0.29589 0.48088 0.10583 0.85074 0.94933
   2   0   5   96.61    2.02   1-0.24076-0.15698 0.09781 0.47285 0.96564 0.86704
   2   0   5   92.78    2.05   1-0.79575-0.71143-0.18035 0.19478-0.57814-0.67521
  -2   0  -5   95.93    2.10   1-0.78567-0.86991 0.23848-0.13667-0.57082-0.47389
  -2   0  -6   83.18    2.11   1-0.21730-0.29423 0.43952 0.00214 0.87154 0.95573
   2   0   6   86.15    2.16   1-0.24192-0.16466-0.00285 0.43433 0.97029 0.88557
   2   0   6   86.88    2.22   1-0.79246-0.71485-0.20123 0.23618-0.57576-0.65818
  -2   0  -6   93.95    2.47   1-0.78005-0.85764 0.26517-0.17227-0.56674-0.48452
  -2   0  -7   32.76    0.99   1-0.22023-0.29031 0.41384-0.08586 0.88330 0.95307
   2   0   7   34.64    0.94   1-0.24095-0.17049-0.08955 0.40998 0.96639 0.89601
   2   0   7   34.23    0.95   1-0.78821-0.71730-0.22528 0.27440-0.57267-0.64045
  -2   0  -7   35.23    0.98   1-0.77341-0.84436 0.29336-0.20638-0.56192-0.49442
  -2   0  -8   38.27    1.25   1-0.22174-0.28497 0.39983-0.16220 0.88936 0.94471
   2   0   8   39.02    1.28   1-0.23861-0.17496-0.16486 0.39703 0.95701 0.90097
   2   0   8   39.34    1.27   1-0.78301-0.71880-0.25147 0.31049-0.56889-0.62202
  -2   0  -8   41.29    1.32   1-0.76578-0.83007 0.32253-0.23951-0.55637-0.50358
  -2   0  -9   29.63    1.08   1-0.22229-0.27867 0.39459-0.22977 0.89156 0.93249
   2   0   9   31.24    1.08   1-0.23534-0.17849-0.23161 0.39263 0.94391 0.90220
   2   0   9   31.17    1.08   1-0.77685-0.71933-0.27917 0.34506-0.56441-0.60289
  -2   0  -9   32.88    1.31   1-0.75712-0.81478 0.35236-0.27197-0.55008-0.51201
  -2   0 -10   20.88    0.85   1-0.22213-0.27167 0.39607-0.29062 0.89094 0.91745
   2   0  10   22.21    0.83   1-0.23139-0.18134-0.29181 0.39479 0.92806 0.90069
   2   0  10   22.37    0.86   1-0.76968-0.71887-0.30799 0.37852-0.55921-0.58304
  -2   0 -10   22.27    0.86   1-0.74744-0.79844 0.38266-0.30397-0.54304-0.51969
  -2   0 -11    3.16    0.32   1-0.22142-0.26412 0.40279-0.34624 0.88810 0.90019
   2   0  11    3.40    0.39   1-0.22689-0.18366-0.34690 0.40205 0.91003 0.89700
   2   0  11    2.91    1.04   1-0.76149-0.71738-0.33767 0.41111-0.55326-0.56244
  -2   0 -11    2.93    0.91   1-0.73669-0.78105 0.41328-0.33564-0.53523-0.52659
  -2   0 -12   15.43    0.83   1-0.22025-0.25609 0.41368-0.39768 0.88337 0.88105
   2   0  12   15.99    0.77   1-0.22194-0.18550-0.39794 0.41337 0.89015 0.89146
   2   0  12   15.57    0.76   1-0.75223-0.71482-0.36802 0.44303-0.54653-0.54106
  -2   0 -12   17.16    0.83   1-0.72483-0.76255 0.44415-0.36706-0.52662-0.53270
  -2   0 -13    0.71    0.41   1-0.21865-0.24764 0.42794-0.44575 0.87695 0.86021
   2   0  13    0.72    0.27   1-0.21656-0.18693-0.44568 0.42798 0.86859 0.88424
   2   0  13    0.74    0.31   1-0.74185-0.71113-0.39893 0.47439-0.53898-0.51887
   2   1 -14    4.44    0.49   1-0.24169-0.08516-0.04303-0.83187 0.96939 0.54838
  -2  -1  14    4.47    0.48   1-0.13346-0.28904-0.83404-0.04512 0.53530 0.95625
   2   1 -13    8.58    0.57   1-0.24076-0.09103-0.09767-0.82416 0.96565 0.55898
  -2  -1  13    9.02    0.57   1-0.13630-0.28514-0.82616-0.09959 0.54668 0.95329
  -2  -1  13    7.90    1.48   1-0.76207-0.91008-0.33567 0.38877-0.55368-0.14351
   2   1 -13    9.35    1.09   1-0.63092-0.48406 0.62594-0.09879-0.45839-0.86943
   2   1 -12    2.37    0.32   1-0.23902-0.09609-0.15442-0.81856 0.95865 0.56632
  -2  -1  12    2.15    0.41   1-0.13832-0.28043-0.82039-0.15617 0.55480 0.94708
   2   1 -11    3.06    0.32   1-0.23632-0.10020-0.21383-0.81561 0.94785 0.56985
  -2  -1  11    3.16    0.40   1-0.13940-0.27478-0.81727-0.21540 0.55912 0.93706
   2   1 -10    1.24    0.26   1-0.23248-0.10317-0.27655-0.81598 0.93245 0.56879
  -2  -1  10    1.23    0.35   1-0.13933-0.26798-0.81747-0.27795 0.55885 0.92245
   2   1  -9    1.35    0.33   1-0.22720-0.10469-0.34344-0.82051 0.91127 0.56195
  -2  -1   9    1.23    0.32   1-0.13783-0.25974-0.82183-0.34465 0.55280 0.90207
   2   1  -8    5.46    0.39   1-0.22005-0.10434-0.41549-0.83021 0.88257 0.54759
  -2  -1   8    5.74    0.34   1-0.13444-0.24962-0.83134-0.41652 0.53924 0.87418
   2   1  -8    5.18    0.38   1-0.66394-0.55031 0.57138 0.15812-0.48238-0.81984
   2   1  -7    9.00    0.44   1-0.21040-0.10195-0.49357-0.84604 0.84387 0.52326
  -2  -1   7    9.69    0.39   1-0.12853-0.23698-0.84718-0.49470 0.51552 0.83612
  -2  -1   7    9.86    0.45   1-0.80804-0.91585-0.04898 0.30181-0.58708-0.26480
   2   1  -7    9.19    0.42   1-0.65921-0.55223 0.57968 0.22871-0.47895-0.80170
   2   1  -6   22.74    0.82   1-0.19717-0.09546-0.57940-0.86953 0.79082 0.48455
  -2  -1   6   21.69    0.72   1-0.11895-0.22033-0.87077-0.58082 0.47708 0.78364
  -2  -1   6   21.59    0.75   1-0.80889-0.91000 0.01717 0.30570-0.58769-0.28007
   2   1  -6   22.32    0.71   1-0.64579-0.54546 0.60232 0.31365-0.46920-0.77723
   2   1  -5   48.91    1.22   1-0.17887-0.08388-0.67329-0.90107 0.71740 0.42547
  -2  -1   5   48.50    1.23   1-0.10442-0.19913-0.90204-0.67443 0.41881 0.71097
  -2  -1   5   48.05    1.28   1-0.80504-0.89945 0.09896 0.32522-0.58490-0.29192
   2   1  -5   49.16    1.21   1-0.61635-0.52266 0.64774 0.42136-0.44780-0.74112
   2   1  -4   85.63    1.93   1-0.15322-0.06497-0.77384-0.93927 0.61455 0.33695
  -2  -1   4   84.43    1.83   1-0.08256-0.17060-0.93996-0.77467 0.33114 0.60890
  -2  -1   4   84.15    1.82   1-0.79086-0.87857 0.21063 0.37461-0.57459-0.29627
   2   1  -4   84.79    1.79   1-0.55268-0.46564 0.73026 0.56618-0.40155-0.68015
   2   1  -3  125.41    1.58   1-0.11721-0.03584-0.87478-0.97773 0.47011 0.20675
  -2  -1   3  125.85    1.62   1-0.05045-0.13181-0.97801-0.87506 0.20234 0.46571
  -2  -1   3  120.71    1.48   1-0.74493-0.82533 0.39004 0.49183-0.54122-0.27734
   2   1  -3  126.99    1.69   1-0.40478-0.32448 0.86582 0.76374-0.29409-0.55804
   2   1  -2   52.74    0.96   1-0.06854 0.00615-0.95902-0.99964 0.27489 0.02593
  -2  -1   2   53.05    0.98   1-0.00565-0.08025-0.99972-0.95902 0.02268 0.27170
  -2  -1   2   51.94    0.95   1-0.57905-0.65280 0.69835 0.73784-0.42070-0.17153
   2   1  -2   53.51    1.20   1-0.04798 0.02575 0.99823 0.95844-0.03486-0.28410
   2   1  -1  186.09    2.09   1-0.00828 0.05973-0.99941-0.97769 0.03323-0.20133
  -2  -1   1  188.84    2.09   1 0.05075-0.01717-0.97774-0.99936-0.20355 0.03106
   2   1   0  262.55    2.63   1 0.05515 0.11641-0.97366-0.88972-0.22119-0.44140
  -2  -1  -1   40.67    0.94   1-0.11034-0.16441 0.88992 0.74328 0.44255 0.64846
   2   1   1   43.02    0.98   1-0.16184-0.10777 0.74326 0.88990 0.64912 0.44322
   2   1   1   41.71    1.02   1-0.62693-0.57290-0.63203-0.48490-0.45549-0.66079
  -2  -1  -1   43.78    1.04   1-0.77802-0.83222-0.27412-0.42150-0.56527-0.36018
  -2  -1  -2   91.16    1.27   1-0.15027-0.19746 0.78367 0.57469 0.60271 0.79418
   2   1   2   92.63    1.29   1-0.19798-0.15079 0.57469 0.78367 0.79405 0.60259
   2   1   2   92.05    1.33   1-0.70049-0.65299-0.50028-0.29062-0.50894-0.69937
  -2  -1  -2   96.83    1.41   1-0.79986-0.84736-0.14995-0.35960-0.58113-0.39070
  -2  -1  -3   52.89    0.91   1-0.17641-0.21671 0.68429 0.41298 0.70754 0.88458
   2   1   3   54.81    0.95   1-0.22036-0.17971 0.41259 0.68410 0.88385 0.70689
   2   1   3   53.83    0.99   1-0.73063-0.68984-0.42938-0.15745-0.53084-0.70662
  -2  -1  -3   55.29    1.08   1-0.80744-0.84824-0.06224-0.33417-0.58664-0.41085
  -2  -1  -4   36.93    0.88   1-0.19276-0.22619 0.60421 0.27056 0.77315 0.93575
   2   1   4   38.06    0.93   1-0.23292-0.19911 0.27023 0.60407 0.93419 0.77165
   2   1   4   35.94    0.91   1-0.74411-0.71001-0.39244-0.05823-0.54063-0.70177
  -2  -1  -4   34.36    0.97   1-0.80899-0.84309 0.00682-0.32737-0.58777-0.42663
  -2  -1  -5   53.00    1.45   1-0.20288-0.22942 0.54467 0.14869 0.81373 0.96190
   2   1   5   56.07    1.49   1-0.23924-0.21228 0.14835 0.54452 0.95955 0.81143
   2   1   5   49.58    1.40   1-0.74974-0.72235-0.37570 0.02076-0.54472-0.69121
  -2  -1  -5   50.48    1.48   1-0.80728-0.83468 0.06531-0.33115-0.58653-0.44003
  -2  -1  -6   13.29    0.48   1-0.20910-0.22921 0.50292 0.04442 0.83865 0.97236
   2   1   6   14.12    0.44   1-0.24168-0.22157 0.04409 0.50259 0.96935 0.83564
   2   1   6   11.77    0.46   1-0.75104-0.73034-0.37172 0.08702-0.54566-0.67750
  -2  -1  -6   12.78    0.50   1-0.80343-0.82413 0.11727-0.34147-0.58372-0.45188
  -2  -1  -7    6.54    0.35   1-0.21286-0.22612 0.47520-0.04563 0.85374 0.97302
   2   1   7    6.92    0.35   1-0.24168-0.22802-0.04465 0.47593 0.96932 0.84940
   2   1   7    6.36    0.37   1-0.74957-0.73557-0.37624 0.14478-0.54459-0.66179
  -2  -1  -7    7.21    0.48   1-0.79794-0.81193 0.16491-0.35611-0.57973-0.46254
  -2  -1  -8    1.05    0.23   1-0.21499-0.22141 0.45848-0.12468 0.86230 0.96717
   2   1   8    1.14    0.23   1-0.24005-0.23321-0.12386 0.45907 0.96282 0.85724
   2   1   8    0.90    0.25   1-0.74608-0.73879-0.38667 0.19662-0.54206-0.64461
  -2  -1  -8    1.01    0.26   1-0.79105-0.79834 0.20955-0.37373-0.57473-0.47218
  -2  -1  -9    1.96    0.27   1-0.21600-0.21557 0.45034-0.19515 0.86633 0.95678
   2   1   9    1.90    0.26   1-0.23730-0.23725-0.19450 0.45079 0.95176 0.86052
   2   1   9    2.01    0.28   1-0.74098-0.74039-0.40138 0.24418-0.53835-0.62625
  -2  -1  -9    2.22    0.39   1-0.78276-0.78340 0.25266-0.39308-0.56871-0.48141
  -2  -1 -10    2.66    0.30   1-0.21617-0.20889 0.44894-0.25887 0.86701 0.94305
   2   1  10    3.04    0.38   1-0.23370-0.24046-0.25839 0.44925 0.93734 0.86043
   2   1  10    2.66    0.39   1-0.73446-0.74057-0.41929 0.28854-0.53362-0.60686
  -2  -1 -10    2.91    0.31   1-0.77336-0.76735 0.29360-0.41443-0.56187-0.48929
  -2  -1 -11   11.27    0.64   1-0.21568-0.20156 0.45293-0.31722 0.86506 0.92668
   2   1  11   11.77    0.64   1-0.22945-0.24301-0.31692 0.45307 0.92027 0.85770
   2   1  11   11.58    0.64   1-0.72663-0.73944-0.43965 0.33046-0.52793-0.58653
  -2  -1 -11   12.17    0.72   1-0.76276-0.75010 0.33328-0.43705-0.55417-0.49631
  -2  -1 -12    3.75    0.35   1-0.21465-0.19367 0.46125-0.37123 0.86091 0.90811
   2   1  12    3.66    0.33   1-0.22464-0.24501-0.37111 0.46124 0.90100 0.85277
   2   1  12    3.24    0.33   1-0.71753-0.73704-0.46192 0.37046-0.52131-0.56526
  -2  -1 -12    3.53    0.34   1-0.75096-0.73166 0.37197-0.46065-0.54560-0.50245
  -2  -1 -13   15.70    0.69   1-0.21313-0.18531 0.47313-0.42168 0.85482 0.88760
   2   1  13   16.85    0.72   1-0.21935-0.24652-0.42174 0.47296 0.87978 0.84588
   2   1  13   16.41    0.65   1-0.70716-0.73337-0.48574 0.40892-0.51378-0.54308
  -2  -1 -13   16.96    0.68   1-0.73794-0.71199 0.40985-0.48506-0.53614-0.50771
   2   2 -14    0.95    0.45   1-0.24096-0.14123-0.08901-0.85682 0.96644 0.49589
  -2  -2  14    0.87    0.31   1-0.12454-0.22257-0.85729-0.08966 0.49953 0.97078
   2   2 -13    5.83    0.40   1-0.23933-0.14640-0.14593-0.85138 0.95990 0.50369
  -2  -2  13    5.50    0.39   1-0.12681-0.21887-0.85158-0.14601 0.50864 0.96476
  -2  -2  13    5.24    1.11   1-0.78613-0.87721-0.23617 0.46694-0.57115-0.11157
   2   2 -12   29.06    1.28   1-0.23677-0.15065-0.20511-0.84820 0.94966 0.50779
  -2  -2  12   29.23    1.22   1-0.12799-0.21332-0.84856-0.20534 0.51336 0.95515
  -2  -2  12   29.69    1.64   1-0.79519-0.87958-0.18402 0.45682-0.57774-0.13281
   2   2 -12   29.74    1.63   1-0.57925-0.49605 0.69809 0.05706-0.42085-0.86641
   2   2 -11   17.82    0.92   1-0.23313-0.15381-0.26706-0.84780 0.93505 0.50751
  -2  -2  11   18.02    0.79   1-0.12807-0.20667-0.84836-0.26749 0.51367 0.94113
  -2  -2  11   18.81    1.16   1-0.80228-0.87997-0.12872 0.44984-0.58289-0.15260
   2   2 -11   18.10    0.91   1-0.58318-0.50662 0.69308 0.11435-0.42370-0.85454
   2   2 -10   34.10    1.33   1-0.22816-0.15565-0.33240-0.85079 0.91512 0.50192
  -2  -2  10   34.24    1.16   1-0.12681-0.19867-0.85160-0.33307 0.50861 0.92173
  -2  -2  10   35.84    1.29   1-0.80707-0.87806-0.06924 0.44705-0.58637-0.17073
   2   2 -10   35.45    1.21   1-0.58319-0.51328 0.69306 0.17662-0.42371-0.83984
   2   2  -9   27.00    1.02   1-0.22152-0.15581-0.40185-0.85788 0.88850 0.48964
  -2  -2   9   27.46    1.02   1-0.12370-0.18836-0.85937-0.40341 0.49616 0.89542
  -2  -2   9   26.18    1.08   1-0.80901-0.87329-0.00406 0.44995-0.58778-0.18679
   2   2  -9   27.26    1.01   1-0.57808-0.51482 0.69958 0.24543-0.42000-0.82141
   2   2  -8   74.11    2.29   1-0.21273-0.15382-0.47617-0.86985 0.85322 0.46870
  -2  -2   8   76.62    2.32   1-0.11856-0.17655-0.87165-0.47803 0.47555 0.86041
  -2  -2   8   68.02    2.10   1-0.80708-0.86467 0.06903 0.46078-0.58638-0.20004
   2   2  -8   78.41    2.38   1-0.56581-0.50919 0.71474 0.32289-0.41108-0.79778
   2   2  -7   67.85    1.58   1-0.20113-0.14946-0.55568-0.88716 0.80669 0.43658
  -2  -2   7   69.30    1.58   1-0.11052-0.16182-0.88954-0.55825 0.44327 0.81373
  -2  -2   7   67.21    1.56   1-0.79943-0.85031 0.15345 0.48292-0.58082-0.20913
   2   2  -7   69.57    1.56   1-0.54290-0.49293 0.74139 0.41183-0.39444-0.76642
   2   2  -6   29.65    0.76   1-0.18558-0.14065-0.64149-0.91062 0.74434 0.38855
  -2  -2   6   28.61    0.83   1-0.09851-0.14315-0.91332-0.64436 0.39513 0.75120
  -2  -2   6   29.24    0.68   1-0.78190-0.82522 0.25671 0.52397-0.56808-0.21082
   2   2  -6   28.79    0.66   1-0.50317-0.45985 0.78304 0.51578-0.36557-0.72284
   2   2  -5   85.31    1.83   1-0.16470-0.12650-0.73243-0.93921 0.66061 0.31916
  -2  -2   5   85.16    1.89   1-0.08111-0.11907-0.94211-0.73549 0.32532 0.66698
  -2  -2   5   82.11    1.72   1-0.74765-0.78432 0.38202 0.58699-0.54320-0.20065
   2   2  -5   83.83    1.80   1-0.43543-0.39876 0.84279 0.63782-0.31636-0.65891
   2   2  -4   47.24    1.22   1-0.13666-0.10520-0.82514-0.96957 0.54813 0.22102
  -2  -2   4   47.11    1.20   1-0.05644-0.08773-0.97239-0.82810 0.22639 0.55366
  -2  -2   4   46.13    1.13   1-0.68024-0.71027 0.54130 0.68397-0.49422-0.16639
   2   2  -4   45.84    1.11   1-0.32077-0.29085 0.91803 0.77505-0.23305-0.56097
   2   2  -3   52.73    0.99   1-0.09950-0.07488-0.91149-0.99345 0.39908 0.08621
  -2  -2   3   52.70    1.04   1-0.02266-0.04727-0.99560-0.91364 0.09089 0.40375
  -2  -2   3   53.33    0.92   1-0.54733-0.57071 0.73640 0.81678-0.39766-0.08454
   2   2  -3   52.98    1.16   1-0.13231-0.10896 0.98653 0.90584-0.09613-0.40934
   2   2  -2   17.50    0.57   1-0.05271-0.03477-0.97596-0.99559 0.21143-0.08704
  -2  -2   2   17.25    0.59   1 0.02079 0.00296-0.99629-0.97657-0.08342 0.21514
  -2  -2   2   16.25    0.54   1-0.30914-0.32593 0.92410 0.94250-0.22461 0.07389
   2   2  -1    2.10    0.25   1 0.00109 0.01226-0.99998-0.95738-0.00438-0.28854
  -2  -2   1    2.05    0.20   1 0.07129 0.06012-0.95558-0.99818-0.28595-0.00179
  -2  -2   1    2.04    0.20   1-0.40465-0.41518-0.86591-0.90968-0.29400-0.01010
  -2  -2   1    1.95    0.22   1 0.01330 0.00309 0.99986 0.95596 0.00966 0.29346
   2   2   0    8.48    0.39   1-0.12232-0.11823 0.86274 0.96813 0.49062 0.22076
   2   2   0    8.04    0.38   1 0.05544 0.05995-0.97338-0.86846-0.22236-0.49211
   2   2   0    7.97    0.37   1-0.29595-0.29214-0.93068-0.82465-0.21502-0.48435
  -2  -2   0    8.11    0.35   1-0.59373-0.59754-0.67925-0.78529-0.43137-0.16204
  -2  -2  -1    0.62    0.18   1-0.10288-0.10009 0.90506 0.73733 0.41264 0.66806
   2   2   1    0.69    0.14   1-0.16546-0.16825 0.72951 0.89724 0.66364 0.40822
   2   2   1    0.65    0.14   1-0.47594-0.47885-0.80864-0.64034-0.34579-0.60055
  -2  -2  -1    0.62    0.17   1-0.69974-0.69702-0.50187-0.67058-0.50839-0.25389
  -2  -2  -2    9.53    0.40   1-0.13884-0.12917 0.81892 0.58886 0.55686 0.79784
   2   2   2    9.85    0.41   1-0.19725-0.20692 0.57896 0.80902 0.79113 0.55014
   2   2   2    9.58    0.42   1-0.57678-0.58641-0.70121-0.47064-0.41906-0.65924
  -2  -2  -2   10.08    0.41   1-0.75477-0.74534-0.36000-0.59099-0.54837-0.30851
  -2  -2  -3   41.49    0.96   1-0.16405-0.14749 0.73495 0.44256 0.65797 0.88452
   2   2   3   42.64    1.00   1-0.21828-0.23444 0.43112 0.72375 0.87549 0.64901
   2   2   3   41.21    0.96   1-0.63267-0.64901-0.62324-0.33040-0.45966-0.68527
  -2  -2  -3   42.13    1.05   1-0.78395-0.76783-0.24696-0.54022-0.56957-0.34437
  -2  -2  -4   15.67    0.54   1-0.18097-0.15753 0.66363 0.30890 0.72583 0.93795
   2   2   4   16.46    0.55   1-0.23100-0.25401 0.29697 0.65194 0.92651 0.71445
   2   2   4   16.84    0.60   1-0.66419-0.68725-0.57094-0.21584-0.48256-0.69360
  -2  -2  -4   16.92    0.61   1-0.79931-0.77649-0.15439-0.50993-0.58073-0.37017
  -2  -2  -5   29.88    0.67   1-0.19211-0.16180 0.60774 0.19068 0.77054 0.96822
   2   2   5   31.03    0.96   1-0.23803-0.26788 0.17862 0.59591 0.95469 0.75704
   2   2   5   30.42    0.95   1-0.68200-0.71178-0.53790-0.12053-0.49550-0.69197
  -2  -2  -5   29.75    0.76   1-0.80668-0.77715-0.07594-0.49375-0.58608-0.39017
  -2  -2  -6   32.43    1.01   1-0.19938-0.16218 0.56636 0.08697 0.79967 0.98292
   2   2   6   34.80    0.93   1-0.24124-0.27794 0.07495 0.55458 0.96756 0.78433
   2   2   6   32.40    0.91   1-0.69158-0.72808-0.51888-0.03924-0.50246-0.68436
  -2  -2  -6   32.08    1.00   1-0.80899-0.77276-0.00734-0.48741-0.58776-0.40650
  -2  -2  -7   46.27    1.45   1-0.20402-0.15994 0.53735-0.00437 0.81830 0.98711
   2   2   7   49.21    1.47   1-0.24189-0.28504-0.01476 0.52685 0.97018 0.80072
   2   2   7   43.87    1.39   1-0.69637-0.73929-0.50901 0.03334-0.50594-0.67255
  -2  -2  -7   44.35    1.43   1-0.80782-0.76490 0.05422-0.48812-0.58692-0.42030
  -2  -2  -8   36.90    1.29   1-0.20686-0.15589 0.51849-0.08556 0.82968 0.98405
   2   2   8   38.98    1.32   1-0.24080-0.29076-0.09583 0.50814 0.96583 0.81070
   2   2   8   33.71    1.19   1-0.69689-0.74652-0.50790 0.09671-0.50632-0.65828
  -2  -2  -8   36.02    1.26   1-0.80405-0.75442 0.11062-0.49399-0.58417-0.43221
  -2  -2  -9   18.62    0.81   1-0.20837-0.15113 0.50805-0.15856 0.83573 0.97571
   2   2   9   18.99    0.76   1-0.23845-0.29521-0.16870 0.49763 0.95638 0.81560
   2   2   9   17.38    0.72   1-0.69466-0.75099-0.51255 0.15434-0.50470-0.64201
  -2  -2  -9   19.32    0.84   1-0.79817-0.74185 0.16314-0.50375-0.57990-0.44259
  -2  -2 -10   20.07    1.00   1-0.20893-0.14484 0.50407-0.22487 0.83800 0.96356
   2   2  10   20.94    0.99   1-0.23515-0.29871-0.23493 0.49374 0.94313 0.81669
   2   2  10   19.82    0.97   1-0.68975-0.75312-0.52259 0.20612-0.50113-0.62475
  -2  -2 -10   21.38    1.03   1-0.79050-0.72747 0.21267-0.51649-0.57433-0.45167
  -2  -2 -11   14.86    0.80   1-0.20873-0.13779 0.50550-0.28578 0.83719 0.94833
   2   2  11   15.47    0.73   1-0.23109-0.30146-0.29579 0.49525 0.92687 0.81476
   2   2  11   15.25    0.75   1-0.68343-0.75352-0.53513 0.25585-0.49654-0.60558
  -2  -2 -11   15.93    0.83   1-0.78104-0.71137 0.26069-0.53104-0.56746-0.46036
  -2  -2 -12   10.04    0.58   1-0.20789-0.13011 0.51136-0.34224 0.83383 0.93055
   2   2  12   11.29    0.63   1-0.22641-0.30358-0.35222 0.50117 0.90811 0.81034
   2   2  12   11.15    0.61   1-0.67542-0.75223-0.55045 0.30280-0.49072-0.58519
  -2  -2 -12   11.66    0.62   1-0.77019-0.69387 0.30607-0.54796-0.55957-0.46719
   2   2  13    1.63    0.43   1-0.66582-0.74935-0.56802 0.34750-0.48375-0.56365
  -2  -2 -13    1.77    0.46   1-0.75786-0.67490 0.34993-0.56640-0.55062-0.47295
   2   3 -14   13.56    0.71   1-0.23992-0.19699-0.12825-0.87502 0.96228 0.44219
  -2  -3  14   12.86    0.64   1-0.11414-0.15542-0.88168-0.13505 0.45782 0.97857
  -2  -3  14   14.30    0.67   1-0.79343-0.83430-0.19529 0.54876-0.57646-0.05281
   2   3 -14   13.89    0.69   1-0.49930-0.45982 0.78682 0.04260-0.36276-0.88698
   2   3 -13   18.09    0.87   1-0.23765-0.20153-0.18690-0.87130 0.95319 0.44744
  -2  -3  13   17.39    0.81   1-0.11544-0.15003-0.87880-0.19450 0.46300 0.96935
  -2  -3  13   18.76    1.09   1-0.80136-0.83552-0.13724 0.54454-0.58222-0.07322
   2   3 -13   18.20    0.91   1-0.50455-0.47172 0.78169 0.09977-0.36658-0.87608
   2   3 -12   12.69    0.73   1-0.23437-0.20505-0.24783-0.86988 0.94002 0.44861
  -2  -3  12   12.54    0.65   1-0.11566-0.14359-0.87830-0.25633 0.46390 0.95586
   2   3 -12   11.81    1.49   1-0.50611-0.47992 0.78015 0.16052-0.36771-0.86249
   2   3 -11   13.93    0.71   1-0.22988-0.20736-0.31152-0.87122 0.92201 0.44493
  -2  -3  11   13.68    0.66   1-0.11462-0.13587-0.88063-0.32099 0.45972 0.93728
  -2  -3  11   12.43    1.46   1-0.80897-0.82974-0.00965 0.54758-0.58775-0.10805
   2   3 -11   14.08    0.68   1-0.50319-0.48365 0.78303 0.22570-0.36559-0.84565
   2   3 -10    4.00    0.32   1-0.22392-0.20821-0.37849-0.87584 0.89810 0.43536
  -2  -3  10    4.29    0.33   1-0.11203-0.12661-0.88631-0.38901 0.44933 0.91249
   2   3 -10    4.46    0.34   1-0.49461-0.48172 0.79133 0.29630-0.35935-0.82471
   2   3  -9   10.07    0.42   1-0.21612-0.20722-0.44929-0.88428 0.86684 0.41844
  -2  -3   9    9.70    0.41   1-0.10750-0.11540-0.89584-0.46087 0.43116 0.87992
  -2  -3   9    9.94    0.44   1-0.80090-0.80827 0.14124 0.57394-0.58189-0.13148
   2   3  -9   10.42    0.43   1-0.47859-0.47235 0.80624 0.37350-0.34772-0.79835
   2   3  -8    1.65    0.24   1-0.20606-0.20444-0.52389-0.89673 0.82647 0.39250
  -2  -3   8    1.94    0.31   1-0.10049-0.10172-0.90963-0.53700 0.40306 0.83742
  -2  -3   8    1.98    0.24   1-0.78732-0.78799 0.22999 0.60041-0.57202-0.13627
   2   3  -8    1.36    0.26   1-0.45243-0.45283 0.82900 0.45856-0.32871-0.76463
   2   3  -7    0.16    0.18   1-0.19288-0.19800-0.60355-0.91404 0.77363 0.35400
  -2  -3   7    0.09    0.18   1-0.09026-0.08482-0.92778-0.61748 0.36203 0.78199
  -2  -3   7    0.15    0.22   1-0.76284-0.75579 0.33299 0.64114-0.55423-0.13303
   2   3  -7    0.13    0.23   1-0.41197-0.41930 0.86062 0.55217-0.29932-0.72061
   2   3  -6    4.76    0.30   1-0.17571-0.18756-0.68735-0.93549 0.70474 0.29944
  -2  -3   6    4.53    0.29   1-0.07582-0.06370-0.94961-0.70164 0.30410 0.70967
  -2  -3   6    4.72    0.27   1-0.72280-0.70911 0.44917 0.69503-0.52515-0.11866
   2   3  -6    5.10    0.32   1-0.35137-0.36526 0.90075 0.65459-0.25528-0.66187
   2   3  -5   13.06    0.54   1-0.15332-0.17190-0.77352-0.95931 0.61493 0.22397
  -2  -3   5   12.95    0.50   1-0.05592-0.03714-0.97290-0.78727 0.22431 0.61548
  -2  -3   5   13.48    0.50   1-0.65786-0.63752 0.58203 0.76559-0.47796-0.08619
   2   3  -5   12.95    0.54   1-0.26226-0.28272 0.94599 0.76212-0.19054-0.58243
   2   3  -4   19.22    0.59   1-0.12430-0.14977-0.85788-0.98118 0.49857 0.12180
  -2  -3   4   18.83    0.59   1-0.02927-0.00381-0.99265-0.86934 0.11741 0.49418
  -2  -3   4   18.88    0.57   1-0.55503-0.52805 0.72754 0.84880-0.40325-0.02619
   2   3  -4   19.49    0.67   1-0.13603-0.16307 0.98576 0.86418-0.09883-0.47601
   2   3  -3   44.23    1.02   1-0.08783-0.11997-0.93175-0.99272 0.35229-0.01007
  -2  -3   3   44.06    1.04   1 0.00495 0.03721-0.99979-0.93872-0.01987 0.34264
  -2  -3   3   44.31    1.02   1-0.40225-0.36864 0.86762 0.92691-0.29225 0.07022
   2   3  -3   44.50    1.13   1 0.02953-0.00406 0.99933 0.94004 0.02146-0.34101
   2   3  -2   60.07    1.42   1-0.04418-0.08299-0.98317-0.98181 0.17722-0.17074
  -2  -3   2   60.03    1.39   1 0.04611 0.08503-0.98166-0.98292-0.18494 0.16316
  -2  -3   2   58.06    1.40   1-0.19931-0.15913 0.96917 0.96616-0.14481 0.20296
   2   3  -1   92.06    1.92   1-0.09142-0.13730 0.92584 0.98998 0.36667 0.03286
   2   3  -1   89.63    1.91   1 0.00373-0.04184-0.99988-0.93629-0.01499-0.34869
  -2  -3   1   90.48    1.92   1-0.39921-0.35279-0.86976-0.93469-0.29004 0.04330
  -2  -3   1   86.03    1.86   1 0.02280 0.06954 0.99960 0.93430 0.01656 0.34963
   2   3   0   33.23    0.87   1-0.13470-0.18746 0.83064 0.95710 0.54026 0.22089
   2   3   0   32.59    0.85   1 0.05112-0.00113-0.97741-0.85151-0.20503-0.52432
  -2  -3   0   33.32    0.82   1-0.54296-0.48982-0.74133-0.86852-0.39448-0.07570
   2   3   1  140.79    2.77   1-0.17136-0.23100 0.70586 0.89466 0.68730 0.38237
   2   3   1  140.79    2.78   1-0.36638-0.42623-0.89157-0.70210-0.26619-0.57040
  -2  -3  -1  144.52    2.80   1-0.64366-0.58381-0.60580-0.79527-0.46765-0.16343
  -2  -3  -2  142.27    2.75   1-0.12601-0.05948 0.85363 0.60249 0.50540 0.79590
   2   3   2  145.40    2.83   1-0.19904-0.26557 0.56835 0.81949 0.79834 0.50784
   2   3   2  138.90    2.78   1-0.46769-0.53427-0.81595-0.56422-0.33980-0.62944
  -2  -3  -2  152.49    2.96   1-0.71058-0.64424-0.47804-0.73035-0.51627-0.22700
  -2  -3  -3   29.68    0.63   1-0.15045-0.07704 0.78309 0.46961 0.60343 0.87950
   2   3   3   30.52    0.93   1-0.21815-0.29113 0.43220 0.74596 0.87498 0.59898
   2   3   3   28.67    0.82   1-0.53433-0.60763-0.75084-0.43684-0.38822-0.66329
  -2  -3  -3   30.73    0.94   1-0.75271-0.67966-0.36654-0.68112-0.54687-0.27225
  -2  -3  -4   45.33    1.25   1-0.16781-0.08752 0.72028 0.34447 0.67307 0.93470
   2   3   4   47.66    1.29   1-0.23030-0.31012 0.30611 0.68220 0.92371 0.66213
   2   3   4   45.51    1.30   1-0.57761-0.65762-0.70017-0.32390-0.41966-0.68016
  -2  -3  -4   48.08    1.39   1-0.77921-0.69947-0.26889-0.64575-0.56613-0.30616
  -2  -3  -5   30.36    0.85   1-0.17987-0.09269 0.66872 0.23057 0.72142 0.96862
   2   3   5   31.83    0.85   1-0.23740-0.32406 0.19242 0.63084 0.95216 0.70499
   2   3   5   32.50    0.89   1-0.60547-0.69220-0.66323-0.22469-0.43990-0.68583
  -2  -3  -5   32.32    0.96   1-0.79538-0.70893-0.18281-0.62194-0.57787-0.33255
  -2  -3  -6   23.36    0.87   1-0.18811-0.09406 0.62875 0.12828 0.75450 0.98726
   2   3   6   23.01    0.60   1-0.24092-0.33443 0.09093 0.59168 0.96627 0.73352
   2   3   6   22.95    0.64   1-0.62302-0.71646-0.63792-0.13711-0.45265-0.68401
  -2  -3  -6   23.12    0.89   1-0.80446-0.71131-0.10592-0.60733-0.58447-0.35380
  -2  -3  -7   23.35    0.89   1-0.19365-0.09271 0.59937 0.03656 0.77669 0.99502
   2   3   7   24.15    0.90   1-0.24192-0.34187 0.00184 0.56451 0.97029 0.75129
   2   3   7   23.66    0.89   1-0.63344-0.73360-0.62204-0.05896-0.46022-0.67701
  -2  -3  -7   23.83    0.92   1-0.80848-0.70863-0.03625-0.59993-0.58739-0.37136
  -2  -3  -8    1.88    0.35   1-0.19722-0.08940 0.57910-0.04603 0.79103 0.99493
   2   3   8    1.89    0.33   1-0.24115-0.34790-0.07961 0.54540 0.96721 0.76255
   2   3   8    1.57    0.29   1-0.63872-0.74561-0.61373 0.01161-0.46406-0.66627
  -2  -3  -8    1.81    0.33   1-0.80870-0.70215 0.02775-0.59820-0.58755-0.38617
  -2  -3  -9    4.60    0.43   1-0.19935-0.08465 0.56650-0.12097 0.79957 0.98904
   2   3   9    5.06    0.34   1-0.23905-0.35261-0.15343 0.53394 0.95880 0.76848
   2   3   9    4.05    0.36   1-0.64014-0.75374-0.61147 0.07614-0.46509-0.65273
  -2  -3  -9    4.61    0.51   1-0.80593-0.69268 0.08727-0.60095-0.58554-0.39881
  -2  -3 -10    0.95    0.28   1-0.20038-0.07879 0.56030-0.18951 0.80368 0.97871
   2   3  10    1.05    0.27   1-0.23594-0.35630-0.22092 0.52880 0.94632 0.77033
   2   3  10    0.86    0.30   1-0.63850-0.75882-0.61408 0.13580-0.46390-0.63697
  -2  -3 -10    0.78    0.33   1-0.80067-0.68072 0.14320-0.60729-0.58172-0.40964
  -2  -3 -11    0.68    0.29   1-0.20052-0.07205 0.55942-0.25272 0.80425 0.96485
   2   3  11    0.79    0.28   1-0.23201-0.35918-0.28318 0.52890 0.93057 0.76892
   2   3  11    0.64    0.31   1-0.63434-0.76137-0.62064 0.19150-0.46087-0.61937
  -2  -3 -11    0.76    0.32   1-0.79328-0.66663 0.19624-0.61652-0.57635-0.41892
  -2  -3 -12    1.24    0.39   1-0.19993-0.06458 0.56301-0.31147 0.80189 0.94805
   2   3  12    1.07    0.41   1-0.22741-0.36138-0.34107 0.53336 0.91211 0.76480
   2   3  12    0.86    0.32   1-0.62798-0.76174-0.63044 0.24397-0.45625-0.60018
  -2  -3 -12    1.23    0.43   1-0.78377-0.65044 0.24785-0.62759-0.56944-0.42783
   2   4 -14    0.08    0.39   1-0.23878-0.25265-0.16060-0.88632 0.95770 0.38806
  -2  -4  14    0.05    0.44   1-0.10207-0.08659-0.90662-0.18097 0.40941 0.97966
   2   4 -13    0.92    0.31   1-0.23597-0.25664-0.22046-0.88382 0.94642 0.39113
  -2  -4  13    0.93    0.43   1-0.10246-0.08030-0.90588-0.24257 0.41094 0.96680
   2   4 -12    1.13    0.30   1-0.23206-0.25954-0.28255-0.88356 0.93075 0.38980
  -2  -4  12    1.18    0.40   1-0.10163-0.07280-0.90747-0.30649 0.40762 0.94908
  -2  -4  12    1.05    0.33   1-0.80872-0.77926 0.02697 0.62515-0.58757-0.04380
   2   4 -12    1.24    0.32   1-0.42563-0.45645 0.85041 0.25220-0.30923-0.85325
   2   4 -11    6.82    0.48   1-0.22686-0.26115-0.34728-0.88594 0.90990 0.38328
  -2  -4  11    6.91    0.40   1-0.09936-0.06386-0.91175-0.37311 0.39852 0.92558
  -2  -4  11    7.27    0.50   1-0.80485-0.76870 0.10126 0.63718-0.58476-0.05564
   2   4 -11    7.35    0.41   1-0.41536-0.45336 0.85813 0.32191-0.30178-0.83116
   2   4 -10   35.17    1.32   1-0.22010-0.26119-0.41505-0.89135 0.88277 0.37049
  -2  -4  10   36.62    1.25   1-0.09534-0.05317-0.91906-0.44275 0.38240 0.89506
  -2  -4  10   38.44    1.36   1-0.79555-0.75270 0.18165 0.65528-0.57800-0.06353
   2   4 -10   37.31    1.34   1-0.39840-0.44297 0.87033 0.39640-0.28945-0.80413
   2   4  -9   21.65    0.83   1-0.21148-0.25991-0.48562-0.89982 0.84819 0.35037
  -2  -4   9   22.43    0.79   1-0.08915-0.04031-0.92960-0.51563 0.35759 0.85586
  -2  -4   9   23.35    0.83   1-0.77871-0.72794 0.27112 0.68245-0.56576-0.06590
   2   4  -9   23.49    0.84   1-0.37254-0.42368 0.88766 0.47602-0.27067-0.77064
   2   4  -8   44.98    1.49   1-0.20036-0.25552-0.56042-0.91226 0.80360 0.32012
  -2  -4   8   44.84    1.49   1-0.08025-0.02473-0.94336-0.59172 0.32189 0.80576
  -2  -4   8   45.10    1.44   1-0.75247-0.69506 0.36727 0.71630-0.54670-0.06155
   2   4  -8   45.83    1.57   1-0.33519-0.39290 0.91013 0.56078-0.24353-0.72879
   2   4  -7   41.12    1.39   1-0.18615-0.24805-0.63866-0.92815 0.74663 0.27747
  -2  -4   7   40.72    1.32   1-0.06793-0.00573-0.95976-0.67045 0.27246 0.74192
  -2  -4   7   40.53    1.31   1-0.71294-0.64888 0.47266 0.75940-0.51798-0.04754
   2   4  -7   41.34    1.45   1-0.28298-0.34727 0.93682 0.64977-0.20560-0.67616
   2   4  -6   68.67    1.58   1-0.16803-0.23666-0.71941-0.94655 0.67395 0.21913
  -2  -4   6   69.71    1.57   1-0.05132 0.01754-0.97723-0.75026 0.20584 0.66091
  -2  -4   6   70.92    1.55   1-0.65510-0.58440 0.58676 0.81121-0.47596-0.02024
   2   4  -6   70.95    1.77   1-0.21200-0.28285 0.96505 0.74029-0.15403-0.60988
   2   4  -5   67.40    1.54   1-0.14504-0.22041-0.80032-0.96512 0.58175 0.14127
  -2  -4   5   66.92    1.52   1-0.02950 0.04603-0.99253-0.82789 0.11832 0.55899
  -2  -4   5   64.48    1.45   1-0.57288-0.49553 0.70608 0.86823-0.41622 0.02477
   2   4  -5   69.32    1.64   1-0.11863-0.19606 0.98918 0.82671-0.08619-0.52734
   2   4  -4   38.42    1.12   1-0.11625-0.19846-0.87698-0.97929 0.46625 0.03998
  -2  -4   4   38.23    1.17   1-0.00173 0.08061-0.99997-0.89757 0.00696 0.43343
  -2  -4   4   38.11    1.12   1-0.46085-0.37685 0.82189 0.92174-0.33482 0.09145
   2   4  -4   40.90    1.28   1-0.00178-0.08578 0.99999 0.89982-0.00129-0.42774
   2   4  -3  109.55    2.70   1-0.08139-0.17027-0.94170-0.98168 0.32644-0.08543
  -2  -4   3  111.90    2.73   1 0.03193 0.12095-0.99125-0.95116-0.12807 0.28399
  -2  -4   3  109.58    2.68   1-0.31919-0.22863 0.91887 0.95675-0.23191 0.17983
   2   4  -2   33.35    0.92   1-0.04122-0.13678-0.98537-0.96301 0.16534-0.23212
  -2  -4   2   33.55    0.85   1 0.07015 0.16583-0.95703-0.97927-0.28136 0.11629
  -2  -4   2   32.39    0.85   1-0.15529-0.05815 0.98140 0.95699-0.11282 0.28421
   2   4  -1   34.91    0.86   1-0.11028-0.21301 0.89004 0.97526 0.44232 0.05900
   2   4  -1   31.50    2.06   1 0.00160-0.10073-0.99997-0.91541-0.00644-0.38969
  -2  -4   1   33.43    0.89   1-0.41028-0.30692-0.86186-0.94795-0.29808 0.08472
  -2  -4   1   31.58    0.85   1 0.01171 0.11541 0.99989 0.91319 0.00850 0.39083
   2   4   0   24.63    0.72   1-0.14740-0.25702 0.79293 0.94048 0.59120 0.22231
   2   4   0   22.13    2.07   1 0.04358-0.06542-0.98363-0.83675-0.17482-0.54365
  -2  -4   0   24.52    0.78   1-0.52404-0.41396-0.76184-0.91020-0.38074-0.01250
   2   4   1    1.73    0.19   1-0.17864-0.29514 0.67431 0.88419 0.71651 0.36205
  -2  -4  -1    1.74    0.23   1-0.61283-0.49603-0.65283-0.86345-0.44525-0.09157
  -2  -4  -2   13.03    0.48   1-0.11194 0.01143 0.88649 0.61427 0.44898 0.78900
   2   4   2   13.90    0.48   1-0.20258-0.32596 0.54662 0.81884 0.81250 0.47248
   2   4   2   13.68    0.52   1-0.37636-0.49987-0.88520-0.61230-0.27344-0.61254
  -2  -4  -2   14.47    0.52   1-0.67852-0.55500-0.54459-0.81748-0.49297-0.15387
  -2  -4  -3    0.95    0.18   1-0.13569-0.00543 0.82788 0.49332 0.54424 0.86982
   2   4   3    0.93    0.22   1-0.21954-0.34933 0.42005 0.75493 0.88054 0.55502
   2   4   3    0.91    0.19   1-0.44456-0.57479-0.83548-0.50031-0.32299-0.64752
  -2  -4  -3    0.99    0.19   1-0.72625-0.59628-0.44060-0.77651-0.52765-0.20361
  -2  -4  -4    5.43    0.33   1-0.15336-0.01622 0.77336 0.37647 0.61513 0.92628
   2   4   4    5.48    0.29   1-0.23067-0.36731 0.30134 0.69855 0.92519 0.61408
   2   4   4    5.55    0.31   1-0.49325-0.63020-0.79263-0.39520-0.35836-0.66832
  -2  -4  -4    5.79    0.36   1-0.75898-0.62231-0.34621-0.74440-0.55143-0.24203
  -2  -4  -5    8.76    0.37   1-0.16620-0.02217 0.72664 0.26742 0.66660 0.96332
   2   4   5    9.03    0.36   1-0.23739-0.38087 0.19264 0.65218 0.95212 0.65543
   2   4   5    8.63    0.42   1-0.52743-0.67110-0.75827-0.29856-0.38320-0.67858
  -2  -4  -5    9.01    0.44   1-0.78125-0.63788-0.25970-0.72016-0.56761-0.27287
  -2  -4  -6    8.62    0.37   1-0.17535-0.02444 0.68891 0.16735 0.70331 0.98559
   2   4   6    8.52    0.41   1-0.24084-0.39117 0.09417 0.61605 0.96598 0.68371
   2   4   6    8.33    0.39   1-0.55094-0.70133-0.73227-0.21030-0.40028-0.68110
  -2  -4  -6    8.98    0.47   1-0.79575-0.64569-0.18029-0.70302-0.57815-0.29805
  -2  -4  -7   13.00    0.48   1-0.18175-0.02395 0.65998 0.07609 0.72896 0.99681
   2   4   7   13.43    0.61   1-0.24191-0.39867 0.00673 0.59044 0.97027 0.70173
   2   4   7   13.27    0.64   1-0.56655-0.72366-0.71384-0.12960-0.41162-0.67787
  -2  -4  -7   13.57    0.62   1-0.80437-0.64760-0.10699-0.69200-0.58441-0.31896
  -2  -4  -8   10.47    0.52   1-0.18608-0.02140 0.63903-0.00719 0.74633 0.99974
   2   4   8   10.63    0.46   1-0.24125-0.40481-0.07409 0.57196 0.96762 0.71342
   2   4   8   10.53    0.53   1-0.57618-0.74001-0.70196-0.05545-0.41862-0.67029
  -2  -4  -8   11.76    0.52   1-0.80840-0.64493-0.03886-0.68614-0.58734-0.33654
  -2  -4  -9   19.49    0.97   1-0.18883-0.01727 0.62507-0.08348 0.75737 0.99635
   2   4   9   20.17    0.95   1-0.23926-0.40962-0.14791 0.56049 0.95962 0.71975
   2   4   9   18.36    0.92   1-0.58117-0.75172-0.69565 0.01312-0.42224-0.65935
  -2  -4  -9   18.63    0.97   1-0.80876-0.63859 0.02495-0.68460-0.58760-0.35145
  -2  -4 -10   12.24    0.69   1-0.19035-0.01191 0.61712-0.15376 0.76349 0.98803
   2   4  10   12.06    0.64   1-0.23622-0.41338-0.21582 0.55495 0.94742 0.72190
   2   4  10   11.28    0.65   1-0.58243-0.75970-0.69404 0.07700-0.42316-0.64569
  -2  -4 -10   12.65    0.81   1-0.80607-0.62920 0.08517-0.68665-0.58564-0.36414
  -2  -4 -11    6.93    0.43   1-0.19089-0.00556 0.61431-0.21890 0.76561 0.97573
   2   4  11    7.25    0.40   1-0.23233-0.41630-0.27873 0.55439 0.93184 0.72065
   2   4  11    7.09    0.45   1-0.58061-0.76459-0.69637 0.13694-0.42183-0.62979
  -2  -4 -11    7.68    0.49   1-0.80077-0.61720 0.14237-0.69172-0.58179-0.37494
   2   5 -13   19.20    1.14   1-0.23445-0.31193-0.24656-0.88889 0.94033 0.33550
  -2  -5  13   18.95    0.75   1-0.08769-0.00879-0.93198-0.28966 0.35172 0.95708
  -2  -5  13   19.18    0.79   1-0.80817-0.72850 0.04560 0.68473-0.58717 0.02066
   2   5 -13   21.12    1.11   1-0.35064-0.43246 0.90119 0.26178-0.25475-0.86281
   2   5 -12   20.78    1.07   1-0.23005-0.31434-0.30930-0.88928 0.92271 0.33221
  -2  -5  12   20.76    1.06   1-0.08573-0.00015-0.93509-0.35511 0.34386 0.93482
  -2  -5  12   21.74    1.07   1-0.80313-0.71675 0.12039 0.69725-0.58350 0.00967
   2   5 -12   21.58    1.10   1-0.34068-0.42907 0.90701 0.32989-0.24752-0.84087
   2   5 -11   21.16    1.06   1-0.22431-0.31540-0.37448-0.89210 0.89969 0.32353
  -2  -5  11   22.55    1.10   1-0.08216 0.01008-0.94055-0.42289 0.32955 0.90612
  -2  -5  11   23.39    1.09   1-0.79268-0.69960 0.19994 0.71452-0.57591 0.00262
   2   5 -11   23.93    1.13   1-0.32438-0.41934 0.91609 0.40126-0.23568-0.81432
   2   5 -10   24.39    1.05   1-0.21696-0.31485-0.44238-0.89765 0.87018 0.30836
  -2  -5  10   25.66    1.02   1-0.07667 0.02225-0.94845-0.49313 0.30750 0.86966
  -2  -5  10   25.62    1.01   1-0.77508-0.67395 0.28655 0.73877-0.56313 0.00067
   2   5 -10   26.41    1.08   1-0.30045-0.40197 0.92848 0.47594-0.21829-0.78223
   2   5  -9   15.43    0.71   1-0.20772-0.31294-0.51254-0.90574 0.83315 0.28581
  -2  -5   9   15.18    0.64   1-0.06882 0.03677-0.95868-0.56569 0.27602 0.82379
  -2  -5   9   15.84    0.63   1-0.74925-0.64147 0.37720 0.76713-0.54436 0.00473
   2   5  -9   15.70    0.70   1-0.26722-0.37532 0.94387 0.55363-0.19415-0.74338
   2   5  -8    6.56    0.36   1-0.19598-0.30792-0.58629-0.91714 0.78603 0.25303
  -2  -5   8    6.71    0.36   1-0.05810 0.05416-0.97073-0.64007 0.23303 0.76639
  -2  -5   8    6.72    0.34   1-0.71252-0.59809 0.47362 0.80124-0.51767 0.01670
   2   5  -8    6.65    0.37   1-0.22276-0.33743 0.96134 0.63339-0.16185-0.69638
   2   5  -7   18.44    0.57   1-0.18121-0.29989-0.66248-0.93098 0.72682 0.20815
  -2  -5   7   18.84    0.57   1-0.04388 0.07505-0.98340-0.71508 0.17602 0.69499
  -2  -5   7   18.95    0.53   1-0.66197-0.54090 0.57485 0.84019-0.48095 0.03870
   2   5  -7   19.20    0.60   1-0.16500-0.28624 0.97897 0.71332-0.11988-0.63971
   2   5  -6    1.01    0.21   1-0.16275-0.28816-0.73984-0.94600 0.65278 0.14845
  -2  -5   6    1.06    0.21   1-0.02551 0.10009-0.99442-0.78843 0.10235 0.60692
  -2  -5   6    0.87    0.18   1-0.59440-0.46668 0.67835 0.88139-0.43186 0.07308
   2   5  -6    1.00    0.23   1-0.09219-0.22000 0.99348 0.79012-0.06698-0.57210
   2   5  -5    6.22    0.38   1-0.13989-0.27203-0.81585-0.95965 0.56107 0.07107
  -2  -5   5    6.11    0.38   1-0.00238 0.13006-0.99995-0.85620 0.00957 0.49999
  -2  -5   5    6.34    0.32   1-0.50710-0.37274 0.77916 0.91990-0.36843 0.12179
   2   5  -5    6.59    0.42   1-0.00374-0.13812 0.99998 0.85891-0.00271-0.49313
   2   5  -4    3.23    0.26   1-0.11203-0.25099-0.88630-0.96762 0.44934-0.02642
  -2  -5   4    3.02    0.26   1 0.02560 0.16471-0.99438-0.91295-0.10268 0.37332
  -2  -5   4    2.90    0.29   1-0.40005-0.25910 0.86917 0.94795-0.29065 0.18505
   2   5  -3   11.66    0.43   1-0.07927-0.22491-0.94477-0.96376 0.31797-0.14340
  -2  -5   3   11.92    0.42   1 0.05792 0.20370-0.97091-0.95180-0.23232 0.22927
  -2  -5   3   11.41    0.45   1-0.27521-0.12769 0.94035 0.95684-0.19995 0.26104
   2   5  -2   10.36    0.38   1-0.09335-0.24606 0.92254 0.96651 0.37441-0.07285
  -2  -5   2    9.91    0.38   1-0.32183-0.16824-0.91746-0.96245-0.23382 0.21301
  -2  -5   2    9.59    0.43   1-0.14091 0.01317 0.98471 0.93890-0.10237 0.34392
   2   5  -1   26.51    0.69   1-0.12825-0.28784 0.84789 0.95419 0.51441 0.08156
   2   5  -1   24.11    1.40   1-0.00403-0.16313-0.99986-0.89432 0.01616-0.41662
  -2  -5   1   25.64    0.68   1-0.42803-0.26772-0.84857-0.95583-0.31098 0.12128
  -2  -5   1   25.03    0.68   1-0.00799 0.15267 0.99995 0.89184-0.00580 0.42578
   2   5   0   30.68    0.82   1-0.16010-0.32657 0.74967 0.91830 0.64214 0.22374
   2   5   0   30.52    0.86   1 0.03364-0.13212-0.99028-0.82242-0.13494-0.55332
  -2  -5   0   30.88    0.87   1-0.52117-0.35415-0.76484-0.93437-0.37865 0.03904
   2   5   1   40.73    1.03   1-0.18671-0.36007 0.63586 0.86682 0.74887 0.34490
   2   5   1   40.25    1.04   1 0.06770-0.10472-0.96003-0.72985-0.27156-0.67553
  -2  -5  -1   41.19    1.04   1-0.59836-0.42462-0.67302-0.90481-0.43473-0.03160
  -2  -5  -2   16.44    0.47   1-0.09673 0.08349 0.91656 0.62326 0.38800 0.77753
   2   5   2   17.07    0.46   1-0.20728-0.38704 0.51559 0.80926 0.83138 0.44192
   2   5   2   16.27    0.49   1-0.29878-0.47924-0.92930-0.63524-0.21707-0.60563
  -2  -5  -2   17.31    0.53   1-0.65963-0.47917-0.57895-0.87301-0.47925-0.09069
  -2  -5  -3   67.76    2.04   1-0.11982 0.06729 0.86871 0.51308 0.48059 0.85569
   2   5   3   68.94    2.05   1-0.22201-0.40861 0.39725 0.75325 0.89045 0.51540
   2   5   3   67.45    2.03   1-0.36436-0.55154-0.89283-0.53650-0.26473-0.63871
  -2  -5  -3   69.99    2.10   1-0.70756-0.52067-0.48485-0.84209-0.51407-0.14061
  -2  -5  -4   55.11    1.62   1-0.13768 0.05631 0.82224 0.40427 0.55223 0.91290
   2   5   4   55.96    1.61   1-0.23187-0.42532 0.28515 0.70349 0.93001 0.56938
   2   5   4   54.59    1.60   1-0.41433-0.60823-0.85889-0.44029-0.30103-0.66044
  -2  -5  -4   57.46    1.68   1-0.74273-0.54914-0.39641-0.81593-0.53962-0.18081
  -2  -5  -5   17.99    0.72   1-0.15115 0.04972 0.78076 0.30046 0.60626 0.95249
   2   5   5   18.33    0.73   1-0.23790-0.43820 0.18139 0.66206 0.95419 0.60798
   2   5   5   18.01    0.70   1-0.45164-0.65225-0.82966-0.34879-0.32813-0.67298
  -2  -5  -5   19.15    0.74   1-0.76841-0.56812-0.31280-0.79459-0.55828-0.21412
  -2  -5  -6   20.36    0.77   1-0.16111 0.04665 0.74596 0.20333 0.64619 0.97799
   2   5   6   20.29    0.78   1-0.24101-0.44816 0.08634 0.62934 0.96667 0.63487
   2   5   6   19.93    0.76   1-0.47891-0.68624-0.80595-0.26282-0.34795-0.67822
  -2  -5  -6   21.61    0.82   1-0.78652-0.57953-0.23414-0.77820-0.57144-0.24193
  -2  -5  -7   15.00    0.70   1-0.16832 0.04632 0.71824 0.11327 0.67511 0.99248
   2   5   7   15.15    0.71   1-0.24192-0.45547 0.00118 0.60593 0.97029 0.65221
   2   5   7   14.78    0.69   1-0.49827-0.71233-0.78781-0.18241-0.36202-0.67772
  -2  -5  -7   16.32    0.75   1-0.79857-0.58488-0.16015-0.76649-0.58019-0.26533
  -2  -5  -8   10.32    0.62   1-0.17339 0.04813 0.69733 0.03002 0.69545 0.99838
   2   5   8   10.54    0.64   1-0.24117-0.46153-0.07833 0.58877 0.96731 0.66357
   2   5   8   10.26    0.61   1-0.51137-0.73214-0.77489-0.10722-0.37153-0.67266
  -2  -5  -8   10.88    0.71   1-0.80570-0.58531-0.09039-0.75900-0.58537-0.28516
  -2  -5  -9    8.22    0.55   1-0.17678 0.05162 0.68262-0.04701 0.70906 0.99755
   2   5   9    8.40    0.51   1-0.23913-0.46629-0.15146 0.57799 0.95910 0.66969
   2   5   9    8.08    0.61   1-0.51940-0.74689-0.76668-0.03674-0.37736-0.66392
  -2  -5  -9    8.23    0.57   1-0.80877-0.58168-0.02437-0.75525-0.58761-0.30204
  -2  -5 -10    0.13    0.29   1-0.17883 0.05645 0.67344-0.11853 0.71728 0.99134
   2   5  10    0.01    0.27   1-0.23604-0.47001-0.21912 0.57269 0.94671 0.67164
   2   5  10    0.13    0.44   1-0.52328-0.75749-0.76264 0.02956-0.38018-0.65217
  -2  -5 -10   -0.08    0.36   1-0.80842-0.57462 0.03838-0.75476-0.58735-0.31643
   2   6 -13    0.09    0.44   1-0.23326-0.36754-0.26519-0.88648 0.93555 0.28118
  -2  -6  13    0.27    0.31   1-0.07114 0.06451-0.95578-0.33445 0.28534 0.94020
  -2  -6  13    0.22    0.34   1-0.80273-0.66614 0.12433 0.74214-0.58322 0.07403
  -2  -6  12    0.17    0.29   1-0.79228-0.64898 0.20231 0.75784-0.57563 0.06697
   2   6 -11    0.13    0.27   1-0.22242-0.37031-0.39331-0.88988 0.89209 0.26639
  -2  -6  11    0.06    0.38   1-0.06310 0.08589-0.96538-0.46871 0.25309 0.87916
  -2  -6  11    0.26    0.25   1-0.77525-0.62375 0.28584 0.77895-0.56326 0.06449
   2   6 -11    0.31    0.29   1-0.23352-0.38544 0.95743 0.46400-0.16966-0.79757
   2   6 -10    1.48    0.28   1-0.21469-0.36939-0.46086-0.89508 0.86111 0.24975
  -2  -6  10    1.63    0.29   1-0.05613 0.09954-0.97270-0.53837 0.22513 0.83680
  -2  -6  10    1.50    0.26   1-0.75107-0.59293 0.37162 0.80243-0.54569 0.06734
   2   6  -9    5.21    0.34   1-0.20513-0.36712-0.53012-0.90232 0.82273 0.22588
  -2  -6   9    5.70    0.36   1-0.04669 0.11565-0.98119-0.60920 0.18726 0.78453
  -2  -6   9    5.50    0.32   1-0.71789-0.55310 0.46105 0.82957-0.52158 0.07674
   2   6  -9    5.65    0.38   1-0.16695-0.33201 0.97847 0.60963-0.12130-0.71980
   2   6  -8   31.23    1.11   1-0.19309-0.36182-0.60241-0.91226 0.77447 0.19195
  -2  -6   8   32.57    1.10   1-0.03432 0.13470-0.98988-0.68022 0.13765 0.72052
  -2  -6   8   31.75    1.05   1-0.67392-0.50248 0.55324 0.85946-0.48963 0.09397
   2   6  -8   34.03    1.21   1-0.11929-0.29092 0.98906 0.68251-0.08667-0.67046
   2   6  -7   19.51    0.75   1-0.17820-0.35366-0.67631-0.92382 0.71473 0.14654
  -2  -6   7   20.25    0.76   1-0.01853 0.15716-0.99706-0.74973 0.07433 0.64280
  -2  -6   7   19.89    0.72   1-0.61731-0.43922 0.64635 0.89027-0.44850 0.12038
   2   6  -7   20.58    0.84   1-0.06072-0.23891 0.99717 0.75292-0.04411-0.61320
   2   6  -6   37.45    1.26   1-0.15989-0.34209-0.75042-0.93558 0.64131 0.08746
  -2  -6   6   38.13    1.30   1 0.00116 0.18370-0.99998-0.81489-0.00465 0.54971
  -2  -6   6   37.63    1.24   1-0.54655-0.36181 0.73729 0.91891-0.39709 0.15708
   2   6  -6   38.72    1.40   1 0.00909-0.17567 0.99993 0.81797 0.00660-0.54777
   2   6  -5   45.87    1.42   1-0.13767-0.32660-0.82226-0.94507 0.55219 0.01268
  -2  -6   5   47.48    1.44   1 0.02484 0.21404-0.99471-0.87194-0.09963 0.44033
  -2  -6   5   46.86    1.43   1-0.46113-0.26975 0.82164 0.94097-0.33503 0.20442
   2   6  -4   33.53    1.07   1-0.11120-0.30691-0.88809-0.94842 0.44599-0.07927
  -2  -6   4   34.66    1.11   1 0.05235 0.24822-0.97630-0.91585-0.20998 0.31557
  -2  -6   4   33.98    1.10   1-0.36301-0.16510 0.89367 0.95105-0.26374 0.26122
   2   6  -3   41.99    2.13   1-0.08073-0.28312-0.94266-0.94066 0.32382-0.18705
  -2  -6   3   43.00    1.39   1-0.25458-0.05010 0.94919 0.94428-0.18496 0.32530
   2   6  -2   45.91    1.45   1-0.11482-0.32438 0.88018 0.94522 0.46053-0.03626
   2   6  -2   40.41    2.28   1-0.04717-0.25623-0.98080-0.91647 0.18919-0.30728
  -2  -6   2   45.09    1.45   1-0.36187-0.15133-0.89438-0.96053-0.26291 0.23338
  -2  -6   2   43.06    1.42   1-0.14210 0.06894 0.98445 0.91724-0.10324 0.39231
   2   6  -1   71.05    2.11   1-0.14533-0.36177 0.79945 0.92682 0.58288 0.10052
   2   6  -1   70.18    2.12   1-0.01221-0.22795-0.99872-0.87205 0.04900-0.43307
  -2  -6   1   72.80    2.18   1-0.44901-0.23176-0.83184-0.96026-0.32622 0.15550
  -2  -6   1   65.71    2.02   1-0.03223 0.18538 0.99920 0.86970-0.02342 0.45743
   2   6   0   20.65    2.43   1-0.17258-0.39591 0.70076 0.89047 0.69220 0.22427
  -2  -6   0   24.03    0.89   1-0.52721-0.30324-0.75850-0.94919-0.38304 0.08411
   2   6   1   16.47    0.46   1-0.19515-0.42537 0.59095 0.84300 0.78274 0.32925
   2   6   1   16.83    0.52   1 0.05308-0.17610-0.97562-0.72446-0.21292-0.66643
  -2  -6  -1   17.51    0.51   1-0.59445-0.36376-0.67830-0.93126-0.43189 0.02069
   2   6   2   15.84    0.45   1-0.21262-0.44918 0.47704 0.79183 0.85277 0.41378
  -2  -6  -2   16.19    0.49   1-0.65028-0.41287-0.59490-0.91013-0.47245-0.03444
  -2  -6  -3    0.15    0.26   1-0.10286 0.14110 0.90509 0.52837 0.41257 0.83719
   2   6   3    0.09    0.17   1-0.22519-0.46861 0.36536 0.74249 0.90321 0.47864
   2   6   3    0.11    0.20   1-0.29231-0.53643-0.93244-0.55494-0.21237-0.63582
  -2  -6  -3    0.08    0.27   1-0.69618-0.45237-0.50939-0.88796-0.50581-0.08293
  -2  -6  -4    9.22    0.43   1-0.12079 0.13006 0.86641 0.42736 0.48448 0.89467
   2   6   4    9.49    0.43   1-0.23365-0.48392 0.25918 0.69864 0.93713 0.52698
   2   6   4    8.86    0.45   1-0.34126-0.59210-0.90667-0.46691-0.24794-0.65681
  -2  -6  -4    8.85    0.44   1-0.73148-0.48097-0.42718-0.86803-0.53145-0.12322
  -2  -6  -5    0.78    0.22   1-0.13476 0.12297 0.83047 0.32909 0.54050 0.93625
   2   6   5    0.71    0.21   1-0.23879-0.49591 0.16016 0.66195 0.95776 0.56203
   2   6   5    0.71    0.23   1-0.37948-0.63704-0.88316-0.38112-0.27571-0.67001
  -2  -6  -5    0.85    0.32   1-0.75854-0.50133-0.34767-0.85079-0.55111-0.15753
  -2  -6  -6    1.66    0.26   1-0.14541 0.11920 0.79918 0.23547 0.58322 0.96454
   2   6   6    1.44    0.25   1-0.24135-0.50531 0.06869 0.63281 0.96800 0.58668
   2   6   6    1.53    0.36   1-0.40869-0.67297-0.86301-0.29871-0.29693-0.67666
  -2  -6  -6    1.91    0.34   1-0.77866-0.51475-0.27135-0.83674-0.56573-0.18680
  -2  -6  -7    1.04    0.32   1-0.15336 0.11813 0.77336 0.14731 0.61512 0.98200
   2   6   7    1.18    0.26   1-0.24189-0.51225-0.01384 0.61195 0.97020 0.60258
   2   6   7    1.24    0.28   1-0.43043-0.70143-0.84671-0.22014-0.31272-0.67788
  -2  -6  -7    1.29    0.29   1-0.79294-0.52232-0.19835-0.82601-0.57610-0.21182
  -2  -6  -8    3.32    0.33   1-0.15914 0.11924 0.75315 0.06476 0.63830 0.99075
   2   6   8    3.76    0.41   1-0.24090-0.51806-0.09156 0.59658 0.96622 0.61293
   2   6   8    3.36    0.35   1-0.44597-0.72369-0.83433-0.14549-0.32402-0.67461
  -2  -6  -8    3.49    0.37   1-0.80230-0.52498-0.12858-0.81851-0.58290-0.23327
  -2  -6  -9    4.77    0.38   1-0.16316 0.12210 0.73831-0.01240 0.65442 0.99243
   2   6   9    4.27    0.44   1-0.23866-0.52263-0.16350 0.58699 0.95723 0.61829
   2   6   9    4.42    0.46   1-0.45635-0.74079-0.82571-0.07460-0.33156-0.66758
  -2  -6  -9    4.33    0.43   1-0.80746-0.52345-0.06182-0.81403-0.58666-0.25167
  -2  -6 -10    2.52    0.39   1-0.16574 0.12640 0.72841-0.08463 0.66478 0.98836
   2   6  10    2.61    0.38   1-0.23541-0.52618-0.23040 0.58244 0.94419 0.61958
   2   6  10    2.70    0.54   1-0.46237-0.75352-0.82058-0.00720-0.33593-0.65737
  -2  -6 -10    3.17    0.60   1-0.80901-0.51830 0.00218-0.81230-0.58778-0.26744
   2   7 -12   13.66    0.78   1-0.22758-0.42547-0.33911-0.87700 0.91280 0.22322
  -2  -7  12   14.24    0.64   1-0.04848 0.15059-0.97970-0.44170 0.19446 0.88443
  -2  -7  12   14.95    0.62   1-0.77819-0.57632 0.27341 0.80740-0.56538 0.12631
   2   7 -12   15.97    0.70   1-0.16997-0.37228 0.97767 0.44336-0.12349-0.81537
   2   7 -11   20.36    1.01   1-0.22131-0.42600-0.40390-0.87943 0.88762 0.21239
  -2  -7  11   22.59    1.02   1-0.04227 0.16347-0.98461-0.50893 0.16957 0.84513
  -2  -7  11   22.55    0.96   1-0.75626-0.54775 0.35517 0.82686-0.54946 0.12752
   2   7 -11   23.08    1.06   1-0.14531-0.35418 0.98373 0.51170-0.10557-0.78275
   2   7 -10   24.57    1.18   1-0.21343-0.42493-0.47075-0.88393 0.85605 0.19515
  -2  -7  10   26.16    1.18   1-0.03390 0.17852-0.99013-0.57679 0.13597 0.79714
  -2  -7  10   26.37    1.14   1-0.72678-0.51162 0.43926 0.84865-0.52804 0.13422
   2   7 -10   27.87    1.26   1-0.11352-0.32896 0.99010 0.58037-0.08247-0.74494
   2   7  -9   20.04    1.05   1-0.20379-0.42257-0.53883-0.89004 0.81738 0.17101
  -2  -7   9   22.10    1.08   1-0.02301 0.19608-0.99546-0.64446 0.09229 0.73906
  -2  -7   9   21.50    0.99   1-0.68859-0.46678 0.52491 0.87202-0.50029 0.14725
   2   7  -9   22.12    1.12   1-0.07389-0.29591 0.99581 0.64837-0.05369-0.70145
   2   7  -8   30.49    1.25   1-0.19179-0.41730-0.60948-0.89834 0.76924 0.13721
  -2  -7   8   33.51    1.27   1-0.00924 0.21652-0.99926-0.71059 0.03708 0.66945
  -2  -7   8   32.42    1.22   1-0.64056-0.41210 0.61080 0.89561-0.46539 0.16744
   2   7  -8   34.69    1.36   1-0.02590-0.25449 0.99948 0.71433-0.01882-0.65188
   2   7  -7   12.61    0.48   1-0.17712-0.40936-0.68113-0.90764 0.71041 0.09271
  -2  -7   7   13.22    0.47   1 0.00780 0.24044-0.99947-0.77304-0.03131 0.58701
  -2  -7   7   12.64    0.43   1-0.58178-0.34668 0.69488 0.91739-0.42268 0.19543
   2   7  -7   13.06    0.53   1 0.03063-0.20452 0.99928 0.77642 0.02225-0.59609
   2   7  -6    7.26    0.36   1-0.15936-0.39833-0.75237-0.91654 0.63916 0.03580
  -2  -7   6    8.01    0.39   1 0.02815 0.26745-0.99320-0.82909-0.11293 0.49098
  -2  -7   6    7.05    0.38   1-0.51190-0.27015 0.77435 0.93457-0.37192 0.23148
   2   7  -5   19.74    0.75   1-0.13814-0.38385-0.82091-0.92273 0.55408-0.03494
  -2  -7   5   20.06    0.73   1 0.05181 0.29778-0.97679-0.87500-0.20781 0.38169
  -2  -7   5   20.09    0.72   1-0.43152-0.18312 0.84586 0.94379-0.31351 0.27517
   2   7  -4    0.16    0.19   1-0.11330-0.36576-0.88355-0.92289 0.45442-0.12035
  -2  -7   4    0.34    0.21   1 0.07824 0.33087-0.94625-0.90678-0.31382 0.26127
  -2  -7   4    0.14    0.29   1-0.34308-0.08822 0.90562 0.94160-0.24926 0.32496
   2   7  -3   17.70    0.72   1-0.10682-0.36636 0.89723 0.92101 0.42844-0.13229
   2   7  -3   16.28    0.73   1-0.08515-0.34430-0.93599-0.91300 0.34155-0.21882
  -2  -7   3   16.84    0.69   1-0.32085-0.06009-0.91799-0.94303-0.23311 0.32721
  -2  -7   3   16.11    0.66   1-0.24854 0.01289 0.95164 0.92532-0.18057 0.37895
  -2  -7   2    1.57    0.31   1-0.39835-0.13088-0.87037-0.95768-0.28942 0.25633
  -2  -7   2    1.55    0.32   1-0.15250 0.11550 0.98207 0.89346-0.11079 0.43402
   2   7  -1    6.87    0.47   1-0.16148-0.43478 0.74459 0.89305 0.64768 0.11581
   2   7  -1    6.75    0.64   1-0.02275-0.29524-0.99556-0.84790 0.09125-0.44032
  -2  -7   1    6.90    0.38   1-0.47170-0.19751-0.81242-0.96201-0.34271 0.18847
  -2  -7   1    6.03    0.53   1-0.05926 0.21531 0.99731 0.84641-0.04306 0.48706
   2   7   0    2.81    0.66   1-0.18467-0.46485 0.64599 0.85678 0.74067 0.22322
   2   7   0    3.25    0.29   1 0.00823-0.27104-0.99941-0.78960-0.03304-0.55051
  -2  -7   0    3.43    0.28   1-0.53855-0.25764-0.74622-0.95807-0.39128 0.12532
  -2  -7   0    3.15    0.31   1 0.02744 0.30859 0.99942 0.78623 0.01994 0.53536
   2   7   1   10.11    0.38   1-0.20366-0.49073 0.53969 0.81282 0.81685 0.31384
   2   7   1   10.16    0.44   1 0.03721-0.24873-0.98809-0.71595-0.14927-0.65233
  -2  -7  -1   10.78    0.48   1-0.59747-0.30984-0.67423-0.94835-0.43408 0.06795
   2   7   2   11.75    0.44   1-0.21827-0.51165 0.43120 0.76712 0.87545 0.38694
   2   7   2   11.45    0.50   1 0.06287-0.22973-0.96563-0.63116-0.25219-0.74084
  -2  -7  -2   12.47    0.44   1-0.64789-0.35354-0.59887-0.93526-0.47072 0.01674
   2   7   3   15.47    0.61   1-0.22876-0.52899 0.32530 0.72355 0.91752 0.44343
  -2  -7  -3   15.10    0.62   1-0.68995-0.38888-0.52218-0.92084-0.50128-0.02838
  -2  -7  -4    5.96    0.40   1-0.10269 0.20501 0.90542 0.44529 0.41189 0.87159
   2   7   4    6.45    0.33   1-0.23574-0.54282 0.22444 0.68503 0.94553 0.48586
  -2  -7  -4    6.03    0.34   1-0.72495-0.41752-0.44386-0.90603-0.52671-0.06906
  -2  -7  -5   28.19    1.28   1-0.11702 0.19757 0.87522 0.35276 0.46934 0.91461
   2   7   5   29.10    1.31   1-0.23987-0.55379 0.12993 0.65284 0.96206 0.51681
   2   7   5   27.92    1.27   1-0.31114-0.62564-0.92308-0.39988-0.22605-0.66981
  -2  -7  -5   28.62    1.32   1-0.75205-0.43792-0.36860-0.89304-0.54639-0.10339
  -2  -7  -6   18.42    0.83   1-0.12824 0.19323 0.84791 0.26312 0.51437 0.94521
   2   7   6   18.58    0.83   1-0.24170-0.56248 0.04206 0.62731 0.96943 0.53860
   2   7   6   18.63    0.89   1-0.34097-0.66219-0.90684-0.32137-0.24773-0.67691
  -2  -7  -6   18.11    0.86   1-0.77295-0.45212-0.29522-0.88194-0.56158-0.13323
  -2  -7  -7    7.83    0.57   1-0.13686 0.19150 0.82459 0.17746 0.54891 0.96531
   2   7   7    8.25    0.52   1-0.24175-0.56891-0.03762 0.60921 0.96960 0.55245
   2   7   7    7.88    0.52   1-0.36394-0.69188-0.89309-0.24536-0.26442-0.67903
  -2  -7  -7    8.18    0.54   1-0.78844-0.46091-0.22406-0.87305-0.57283-0.15913
  -2  -7  -8    8.19    0.43   1-0.14329 0.19195 0.80571 0.09624 0.57470 0.97667
   2   7   8    7.92    0.41   1-0.24036-0.57432-0.11323 0.59595 0.96405 0.56123
   2   7   8    8.23    0.45   1-0.38102-0.71568-0.88214-0.17214-0.27683-0.67687
  -2  -7  -8    8.14    0.46   1-0.79921-0.46497-0.15523-0.86649-0.58065-0.18160
   2   8 -11    0.90    0.31   1-0.22105-0.48254-0.40629-0.86079 0.88659 0.16182
  -2  -8  11    1.17    0.45   1-0.01983 0.24267-0.99663-0.54195 0.07954 0.80461
   2   8 -10    0.65    0.29   1-0.21324-0.48154-0.47222-0.86436 0.85529 0.14485
  -2  -8  10    0.61    0.30   1-0.01018 0.25899-0.99911-0.60676 0.04083 0.75150
   2   8 -10    0.55    0.33   1-0.02825-0.30066 0.99939 0.61105-0.02053-0.73226
   2   8  -9    0.01    0.26   1-0.20377-0.47933-0.53897-0.86919 0.81730 0.12141
  -2  -8   9    0.06    0.38   1 0.00206 0.27813-0.99996-0.66987-0.00827 0.68841
  -2  -8   9   -0.02    0.33   1-0.66359-0.38477 0.57201 0.89770-0.48212 0.21465
   2   8  -9   -0.09    0.30   1 0.01143-0.26753 0.99989 0.67386 0.00830-0.68872
   2   8  -8    1.16    0.27   1-0.19207-0.47436-0.60796-0.87583 0.77038 0.08882
  -2  -8   8    1.17    0.28   1 0.01689 0.29962-0.99755-0.72978-0.06776 0.61452
  -2  -8   8    1.05    0.33   1-0.61400-0.32854 0.65113 0.91453-0.44610 0.23596
   2   8  -8    1.67    0.32   1 0.05793-0.22761 0.99743 0.73368 0.04208-0.64023
   2   8  -7    2.32    0.29   1-0.17793-0.46695-0.67754-0.88306 0.71363 0.04641
  -2  -8   7    2.57    0.31   1 0.03459 0.32399-0.98971-0.78426-0.13877 0.52910
  -2  -8   7    2.48    0.28   1-0.55565-0.26354 0.72681 0.92792-0.40370 0.26363
   2   8  -6   18.93    0.84   1-0.16100-0.45675-0.74639-0.88956 0.64573-0.00714
  -2  -8   6   20.34    0.85   1 0.05515 0.35121-0.97366-0.83053-0.22119 0.43226
  -2  -8   6   19.40    0.81   1-0.48883-0.19007 0.79680 0.93561-0.35515 0.29747
   2   8  -5   14.23    0.68   1-0.14104-0.44352-0.81247-0.89329 0.56568-0.07286
  -2  -8   5   14.89    0.64   1 0.07822 0.38094-0.94628-0.86547-0.31373 0.32531
  -2  -8   5   14.13    0.61   1-0.41508-0.10983 0.85834 0.93520-0.30158 0.33662
   2   8  -4   22.38    0.93   1-0.10354-0.41305 0.90377 0.88630 0.41530-0.20939
   2   8  -4   20.67    0.89   1-0.11795-0.42717-0.87309-0.89143 0.47307-0.15120
  -2  -8   4   22.14    0.84   1-0.29881 0.01217-0.92929-0.91323-0.21709 0.40725
  -2  -8   4   20.30    0.86   1-0.33519-0.02337 0.91012 0.92470-0.24353 0.37996
   2   8  -3   40.02    1.41   1-0.12913-0.44552 0.84562 0.89049 0.51792-0.09233
   2   8  -3   37.78    1.37   1-0.09208-0.40797-0.92471-0.88073 0.36934-0.24053
  -2  -8   3   40.82    1.34   1-0.36629-0.04859-0.89162-0.93783-0.26613 0.34365
  -2  -8   3   36.11    1.21   1-0.25213 0.06625 0.95019 0.90247-0.18318 0.42561
  -2  -8   2    9.01    0.40   1-0.43247-0.10805-0.84512-0.95360-0.31421 0.28100
  -2  -8   2    7.52    0.39   1-0.16883 0.15613 0.97798 0.86797-0.12266 0.47142
   2   8  -1   21.74    1.49   1-0.17669-0.50685 0.68304 0.85258 0.70868 0.12728
   2   8  -1   22.12    1.68   1-0.03517-0.36441-0.98937-0.82072 0.14106-0.44001
  -2  -8   1   24.00    0.89   1-0.49532-0.16418-0.79065-0.96140-0.35987 0.22076
  -2  -8   1   21.51    0.84   1-0.08820 0.24333 0.99403 0.82173-0.06408 0.51530
   2   8   0   35.51    1.47   1-0.19621-0.53325 0.58497 0.81684 0.78695 0.22000
   2   8   0   36.84    1.48   1-0.00659-0.34250-0.99962-0.76864 0.02643-0.54025
  -2  -8   0   37.15    1.27   1-0.55324-0.21539-0.72962-0.96263-0.40195 0.16411
  -2  -8   0   34.91    1.24   1-0.01274 0.32535 0.99987 0.76528-0.00926 0.55541
   2   8   1   30.51    1.14   1-0.21200-0.55535 0.48174 0.77645 0.85028 0.29783
   2   8   1   29.81    1.19   1 0.02013-0.32257-0.99652-0.70340-0.08077-0.63337
  -2  -8  -1   30.85    1.19   1-0.60516-0.26059-0.66366-0.95895-0.43968 0.11181
  -2  -8  -1   28.13    1.12   1 0.05572 0.40040 0.99762 0.70073 0.04048 0.59046
   2   8   2   13.36    0.60   1-0.22395-0.57415 0.37822 0.73526 0.89821 0.36019
   2   8   2   13.23    0.69   1 0.04442-0.30495-0.98299-0.62755-0.17817-0.71636
  -2  -8  -2   13.05    0.61   1-0.65055-0.29926-0.59444-0.95200-0.47265 0.06427
   2   8   3    6.32    0.34   1-0.23242-0.58947 0.27746 0.69683 0.93219 0.40858
   2   8   3    6.46    0.42   1 0.06552-0.29051-0.96261-0.54485-0.26281-0.78659
  -2  -8  -3    6.83    0.37   1-0.68932-0.33131-0.52344-0.94327-0.50082 0.02153
   2   8   4    7.02    0.42   1-0.23790-0.60179 0.18148 0.66319 0.95418 0.44499
  -2  -8  -4    6.80    0.37   1-0.72247-0.35812-0.45000-0.93350-0.52490-0.01784
  -2  -8  -5    0.05    0.25   1-0.09790 0.27354 0.91444 0.37090 0.39268 0.88747
   2   8   5    0.24    0.34   1-0.24091-0.61165 0.09125 0.63528 0.96624 0.47147
  -2  -8  -5    0.00    0.25   1-0.74875-0.37770-0.37871-0.92448-0.54400-0.05158
  -2  -8  -6    4.29    0.35   1-0.10958 0.26874 0.89151 0.28563 0.43952 0.91988
   2   8   6    4.48    0.43   1-0.24191-0.61907 0.00881 0.61433 0.97025 0.48922
  -2  -8  -6    4.26    0.35   1-0.76958-0.39183-0.30838-0.91643-0.55913-0.08136
  -2  -8  -7    0.30    0.36   1-0.11875 0.26646 0.87122 0.20300 0.47630 0.94222
   2   8   7    0.30    0.28   1-0.24133-0.62529-0.06973 0.59813 0.96793 0.50123
   2   8   7    0.27    0.30   1-0.29917-0.68405-0.92911-0.26021-0.21736-0.68143
   2   9 -10   12.61    0.71   1-0.21414-0.53924-0.46521-0.83631 0.85890 0.09892
  -2  -9  10   14.68    0.70   1 0.01495 0.34111-0.99808-0.62665-0.05996 0.70067
  -2  -9  10   14.08    0.64   1-0.68604-0.35685 0.53000 0.89658-0.49843 0.26228
   2   9 -10   13.96    0.71   1 0.05090-0.27845 0.99801 0.63108 0.03698-0.72401
   2   9  -9   14.37    0.90   1-0.20506-0.53740-0.53057-0.83979 0.82246 0.07705
  -2  -9   9   16.06    0.87   1 0.02802 0.36085-0.99326-0.68414-0.11242 0.63381
  -2  -9   9   15.78    0.82   1-0.64384-0.30801 0.60550 0.90978-0.46778 0.27822
   2   9  -8   22.30    1.18   1-0.19390-0.53297-0.59796-0.84484 0.77771 0.04664
  -2  -9   8   25.02    1.25   1 0.04357 0.38306-0.98364-0.73685-0.17477 0.55705
  -2  -9   8   23.10    1.09   1-0.59447-0.25199 0.67826 0.92025-0.43191 0.29937
   2   9  -7   14.21    0.81   1-0.18052-0.52632-0.66572-0.85025 0.72403 0.00729
  -2  -9   7   15.52    0.82   1 0.06158 0.40773-0.96706-0.78258-0.24698 0.47043
  -2  -9   7   14.31    0.71   1-0.53810-0.18897 0.74672 0.92642-0.39095 0.32562
   2   9  -6   25.17    1.16   1-0.16464-0.51718-0.73266-0.85484 0.66037-0.04202
  -2  -9   6   25.90    1.09   1-0.47531-0.11954 0.80920 0.92660-0.34533 0.35652
   2   9  -5    8.76    0.58   1-0.10425-0.46373 0.90238 0.84366 0.41813-0.27051
   2   9  -5    8.12    0.51   1-0.14611-0.50537-0.79701-0.85684 0.58602-0.10204
  -2  -9   5    8.54    0.53   1-0.29077 0.07043-0.93317-0.87601-0.21126 0.47712
  -2  -9   5    8.27    0.56   1-0.40775-0.04553 0.86369 0.91916-0.29624 0.39122
   2   9  -4    6.74    0.58   1-0.12724-0.49361 0.85048 0.85410 0.51036-0.16384
   2   9  -4    6.30    0.60   1-0.12484-0.49081-0.85654-0.85390 0.50073-0.17304
  -2  -9   4    6.88    0.45   1-0.34906 0.01886-0.90212-0.90723-0.25360 0.42020
  -2  -9   4    6.09    0.44   1-0.33597 0.03280 0.90969 0.90286-0.24409 0.42866
   2   9  -3   12.99    0.81   1-0.15011-0.52336 0.78420 0.85015 0.60207-0.05770
   2   9  -3   12.67    0.98   1-0.10119-0.47384-0.90830-0.84333 0.40587-0.25350
  -2  -9   3   13.42    0.74   1-0.40761-0.03297-0.86379-0.93116-0.29615 0.36309
  -2  -9   3   11.73    0.65   1-0.26243 0.11291 0.94592 0.87680-0.19066 0.46739
  -2  -9   2    0.04    0.33   1-0.46487-0.08351-0.81842-0.94806-0.33775 0.30691
  -2  -9   2   -0.05    0.26   1-0.18927 0.19265 0.97224 0.84083-0.13751 0.50584
   2   9  -1   19.56    0.95   1-0.19089-0.57791 0.61427 0.80489 0.76564 0.13473
   2   9  -1   19.50    0.94   1-0.04928-0.43527-0.97902-0.78938 0.19768-0.43290
  -2  -9   1   20.11    1.00   1-0.51942-0.13133-0.76667-0.95858-0.37738 0.25271
  -2  -9   1   18.56    0.92   1-0.11856 0.26992 0.98920 0.79550-0.08614 0.54250
  -2  -9   0    0.80    0.35   1-0.57009-0.17529-0.70952-0.96371-0.41419 0.20132
  -2  -9   0    0.68    0.30   1-0.05207 0.34298 0.99792 0.74193-0.03783 0.57610
   2   9   1    2.75    0.35   1-0.21987-0.62003 0.41711 0.73294 0.88185 0.27989
   2   9   1    2.88    0.42   1 0.00182-0.39764-0.99997-0.68587-0.00733-0.60947
  -2  -9  -1    2.79    0.39   1-0.61607-0.21456-0.64814-0.96459-0.44760 0.15334
  -2  -9  -1    2.81    0.46   1 0.00886 0.41049 0.99993 0.68165 0.00643 0.60567
   2   9   2    0.68    0.24   1-0.22937-0.63638 0.31790 0.69607 0.91995 0.33241
   2   9   2    0.62    0.28   1 0.02480-0.38132-0.99472-0.61830-0.09949-0.68722
  -2  -9  -2    0.60    0.32   1-0.65689-0.24865-0.58370-0.96242-0.47726 0.10912
   2   9   3    3.05    0.30   1-0.23589-0.64975 0.22184 0.66234 0.94611 0.37298
   2   9   3    2.89    0.40   1 0.04517-0.36762-0.98241-0.54367-0.18117-0.75450
  -2  -9  -3    3.17    0.32   1-0.69326-0.27868-0.51545-0.95801-0.50368 0.06744
   2   9   4    3.87    0.33   1-0.23985-0.66056 0.13042 0.63325 0.96200 0.40329
   2   9   4    3.58    0.45   1 0.06269-0.35676-0.96583-0.46477-0.25145-0.81037
  -2  -9  -4    3.38    0.33   1-0.72330-0.30202-0.44796-0.95279-0.52551 0.03097
   2   9   5    4.69    0.36   1-0.24168-0.66924 0.04430 0.60946 0.96934 0.42504
   2   9   5    4.34    0.37   1 0.07739-0.34873-0.94744-0.38406-0.31040-0.85491
  -2  -9  -5    5.04    0.37   1-0.74825-0.32028-0.38021-0.94731-0.54364-0.00180
   2  10  -8    0.53    0.45   1-0.19721-0.59306-0.57920-0.80509 0.79096 0.01038
  -2 -10   8    0.60    0.34   1 0.07060 0.46685-0.95646-0.73065-0.28317 0.49819
  -2 -10   8    0.72    0.28   1-0.58152-0.18202 0.69521 0.91579-0.42250 0.35802
   2  10  -7    0.44    0.30   1-0.08878-0.49136 0.93022 0.76791 0.35609-0.41093
   2  10  -7    0.40    0.43   1-0.18479-0.58737-0.64538-0.80892 0.74116-0.02508
  -2 -10   7    0.24    0.33   1-0.52794-0.12180 0.75771 0.91600-0.38357 0.38222
   2  10  -6    0.51    0.29   1-0.10833-0.51778 0.89413 0.79416 0.43449-0.31810
   2  10  -6    0.35    0.41   1-0.17015-0.57947-0.71083-0.81202 0.68246-0.06945
  -2 -10   6    0.26    0.28   1-0.29323 0.11820-0.93200-0.83373-0.21304 0.53936
  -2 -10   6    0.30    0.37   1-0.46953-0.05674 0.81434 0.91033-0.34113 0.40995
   2  10  -5    1.15    0.29   1-0.12890-0.54524 0.84621 0.80857 0.51701-0.22115
   2  10  -5    0.72    0.34   1-0.15316-0.56921-0.77405-0.81289 0.61430-0.12327
  -2 -10   5    1.02    0.40   1-0.34340 0.07475-0.90544-0.86944-0.24949 0.48834
  -2 -10   5    0.90    0.38   1-0.40782 0.01134 0.86364 0.89771-0.29630 0.44043
   2  10  -4    9.03    0.68   1-0.14969-0.57291 0.78558 0.81028 0.60037-0.12335
   2  10  -4    8.26    0.71   1-0.13381-0.55660-0.83308-0.80956 0.53671-0.18652
  -2 -10   4    8.94    0.55   1-0.39468 0.03018-0.87292-0.89919-0.28675 0.43651
  -2 -10   4    7.05    0.68   1-0.34317 0.08256 0.90557 0.87734-0.24933 0.47269
   2  10  -3    7.33    1.10   1-0.16972-0.59983 0.71258 0.79961 0.68074-0.02854
   2  10  -3    7.30    0.91   1-0.11227-0.54166-0.88579-0.79982 0.45029-0.25859
  -2 -10   3    8.68    0.54   1-0.44591-0.01432-0.83438-0.92292-0.32397 0.38472
  -2 -10   3    7.59    0.57   1-0.27760 0.15470 0.93928 0.84876-0.20169 0.50563
   2  10  -2    8.53    1.16   1-0.18808-0.62507 0.62892 0.77829 0.75436 0.05950
   2  10  -2    7.73    1.26   1-0.08911-0.52518-0.92968-0.78138 0.35741-0.33707
  -2 -10   2    9.81    0.58   1-0.49594-0.05763-0.79007-0.94087-0.36032 0.33380
  -2 -10   2    8.81    0.62   1-0.21272 0.22615 0.96481 0.81199-0.15455 0.53806
   2  10  -1   20.61    1.21   1-0.20400-0.64787 0.53747 0.74917 0.81823 0.13780
   2  10  -1   20.43    1.37   1-0.06502-0.50776-0.96320-0.75256 0.26079-0.41930
  -2 -10   1   20.77    1.01   1-0.54370-0.09867-0.74049-0.95357-0.39502 0.28453
  -2 -10   1   19.04    0.98   1-0.15006 0.29538 0.98264 0.76754-0.10903 0.56888
  -2 -10   0    0.72    0.28   1-0.58835-0.13660-0.68638-0.96172-0.42746 0.23752
  -2 -10   0    0.69    0.32   1-0.09093 0.36108 0.99366 0.71626-0.06606 0.59714
   2  10   1    9.96    0.60   1-0.22708-0.68406 0.34481 0.68177 0.91078 0.25929
   2  10   1    9.91    0.61   1-0.01757-0.47366-0.99735-0.66205 0.07050-0.58079
  -2 -10  -1   10.25    0.56   1-0.62922-0.17075-0.62855-0.96617-0.45715 0.19325
  -2 -10  -1    9.95    0.60   1-0.03633 0.42225 0.99899 0.65930-0.02639 0.62210
   2  10   2   20.30    1.04   1-0.23425-0.69809 0.24968 0.64897 0.93956 0.30249
   2  10   2   21.70    1.10   1 0.00391-0.45898-0.99986-0.60246-0.01569-0.65296
  -2 -10  -2   19.79    1.10   1-0.66590-0.20072-0.56789-0.96777-0.48380 0.15203
  -2 -10  -2   18.84    1.00   1 0.01306 0.47822 0.99987 0.59788 0.00949 0.64329
   2  10   3    9.70    0.50   1-0.23888-0.70955 0.15805 0.61967 0.95809 0.33544
   2  10   3    9.02    0.61   1 0.02348-0.44606-0.99527-0.53555-0.09421-0.71708
  -2 -10  -3    9.13    0.57   1-0.69906-0.22756-0.50334-0.96722-0.50789 0.11265
  -2 -10  -3    8.98    0.54   1 0.05691 0.52864 0.99752 0.53324 0.04134 0.66044
   2  11  -5    8.64    0.52   1-0.15244-0.62563 0.77649 0.75993 0.61140-0.17627
   2  11  -5    8.25    0.53   1-0.16205-0.63488-0.74249-0.76033 0.64995-0.13714
  -2 -11   5    9.60    0.53   1-0.39146 0.08363-0.87513-0.86030-0.28441 0.50288
  -2 -11   5    8.16    0.49   1-0.41369 0.06243 0.85937 0.87203-0.30056 0.48543
   2  11  -4   14.66    1.00   1-0.17078-0.65086 0.70826 0.75404 0.68497-0.08827
   2  11  -4   14.25    0.85   1-0.14462-0.62418-0.80163-0.75713 0.58004-0.19271
  -2 -11   4   14.89    0.68   1-0.43679 0.04502-0.84172-0.88915-0.31734 0.45537
  -2 -11   4   13.04    0.63   1-0.35529 0.12740 0.89840 0.84878-0.25813 0.51316
   2  11  -3    4.65    0.95   1-0.18791-0.67487 0.62980 0.73791 0.75368-0.00513
   2  11  -3    4.99    1.05   1-0.12519-0.61134-0.85568-0.74872 0.50212-0.25626
  -2 -11   3    5.64    0.53   1-0.48189 0.00663-0.80323-0.91294-0.35011 0.40803
  -2 -11   3    4.78    0.49   1-0.29648 0.19278 0.93042 0.81851-0.21540 0.54118
   2  11  -2    3.87    0.67   1-0.20311-0.69696 0.54321 0.71365 0.81465 0.07027
   2  11  -2    3.80    0.92   1-0.10427-0.59709-0.90233-0.73304 0.41823-0.32576
  -2 -11   2    4.77    0.56   1-0.52589-0.03064-0.75989-0.93186-0.38208 0.36149
  -2 -11   2    3.98    0.46   1-0.23851 0.25731 0.95555 0.78134-0.17329 0.56858
   2  11  -1    4.72    0.67   1-0.21588-0.71598 0.45131 0.68473 0.86585 0.13600
   2  11  -1    4.86    0.96   1-0.08239-0.58188-0.94021-0.70859 0.33046-0.39912
  -2 -11   1    5.18    0.58   1-0.56799-0.06601-0.71210-0.94634-0.41266 0.31634
  -2 -11   1    4.78    0.51   1-0.18255 0.31985 0.97420 0.73770-0.13263 0.59454
   3 -12   3    0.07    0.43   1-0.40066 0.43944 0.86875 0.89391-0.29110 0.08833
   3 -11  -3    0.46    0.37   1-0.09640 0.72616 0.99287 0.66568-0.07004 0.17189
   3 -11  -2    0.40    0.50   1-0.13968 0.67632 0.98498 0.72008-0.10148 0.15515
   3 -11  -1    1.63    0.37   1-0.18655 0.62287 0.97304 0.77044-0.13554 0.13580
   3 -11   0    2.38    0.37   1-0.23633 0.56653 0.95638 0.81606-0.17170 0.11434
   3 -11   1    0.01    0.31   1-0.28814 0.50815 0.93442 0.85640-0.20934 0.09140
   3 -11   2   44.17    1.12   1-0.34099 0.44872 0.90682 0.89110-0.24775 0.06771
   3 -11   3   10.00    0.57   1-0.39385 0.38929 0.87349 0.92005-0.28615 0.04401
   3 -11   4    3.56    0.35   1-0.44603 0.33073 0.83428 0.94349-0.32406 0.02054
   3 -11   5   10.74    0.59   1-0.49585 0.27426 0.79014 0.96165-0.36026-0.00093
   3 -11   6    6.22    0.39   1-0.54293 0.22054 0.74136 0.97516-0.39446-0.02042
   3 -11   7   13.65    0.61   1-0.58664 0.17018 0.68860 0.98470-0.42622-0.03746
   3 -10  -5    3.36    0.42   1 0.02342 0.80218 0.99958 0.56920 0.01702 0.18028
   3 -10  -4    9.44    0.65   1-0.01519 0.75699 0.99982 0.63173-0.01103 0.16692
   3 -10  -3   12.61    0.71   1-0.05899 0.70662 0.99733 0.69154-0.04286 0.14981
   3 -10  -2    8.02    0.57   1-0.10760 0.65144 0.99111 0.74761-0.07817 0.12919
   3 -10  -1   13.92    0.76   1-0.16040 0.59207 0.98014 0.79894-0.11653 0.10554
   3 -10   0   11.57    0.75   1-0.21647 0.52942 0.96353 0.84462-0.15728 0.07950
   3 -10   1   20.90    1.03   1-0.27469 0.46464 0.94059 0.88397-0.19957 0.05191
   3 -10   2    0.07    0.37   1-0.33372 0.39904 0.91095 0.91662-0.24246 0.02373
   3 -10   3   10.12    0.59   1-0.39223 0.33396 0.87461 0.94257-0.28497-0.00406
   3 -10   4    2.19    0.30   1-0.44929 0.27046 0.83161 0.96223-0.32643-0.03104
   3 -10   5    0.15    0.26   1-0.50302 0.21008 0.78320 0.97611-0.36546-0.05536
   3 -10   6    1.28    0.28   1-0.55297 0.15349 0.72994 0.98514-0.40175-0.07694
   3 -10   7    3.06    0.32   1-0.59854 0.10127 0.67277 0.99027-0.43487-0.09533
  -3  10  -7    3.14    0.36   1 0.03818-0.66172 0.99888 0.68175 0.02774-0.31198
   3 -10   8    0.05    0.27   1-0.63941 0.05375 0.61264 0.99244-0.46456-0.11031
  -3  10  -8   -0.11    0.43   1-0.00448-0.69783 0.99998 0.62055-0.00325-0.35768
   3 -10   9    7.39    0.44   1-0.67544 0.01107 0.55040 0.99249-0.49074-0.12178
  -3  10  -9    7.89    0.50   1-0.04148-0.72826 0.99868 0.55696-0.03014-0.39927
   3  -9  -4   11.47    0.68   1 0.02760 0.74283 0.99941 0.65273 0.02005 0.14876
   3  -9  -3    0.06    0.31   1-0.02156 0.68709 0.99964 0.71525-0.01567 0.12773
   3  -9  -2    0.09    0.42   1-0.07653 0.62555 0.99551 0.77341-0.05560 0.10250
   3  -9  -1    0.37    0.40   1-0.13647 0.55904 0.98566 0.82586-0.09915 0.07365
   3  -9   0    0.41    0.34   1-0.20017 0.48877 0.96890 0.87139-0.14543 0.04208
   3  -9   1    1.62    0.29   1-0.26603 0.41634 0.94438 0.90916-0.19328 0.00894
   3  -9   2    4.49    0.39   1-0.33229 0.34351 0.91175 0.93882-0.24142-0.02449
   3  -9   3    1.00    0.36   1-0.39714 0.27210 0.87122 0.96058-0.28853-0.05690
   3  -9   4   67.24    1.33   1-0.45938 0.20336 0.82314 0.97517-0.33375-0.08760
   3  -9   5   14.30    0.80   1-0.51689 0.13920 0.76927 0.98360-0.37554-0.11467
  -3   9  -6    7.78    0.55   1-0.15330-0.80044 0.77359 0.49445 0.61486 0.33881
   3  -9   6    7.54    0.59   1 0.01819 0.66610-0.99716-0.71759-0.07298 0.20337
   3  -9   6    8.15    0.46   1-0.56925 0.08019 0.71056 0.98717-0.41358-0.13800
  -3   9  -6    8.52    0.44   1 0.01283-0.63669 0.99987 0.72363 0.00932-0.26642
  -3   9  -7   21.02    1.20   1-0.19426-0.83451 0.59594 0.25448 0.77917 0.48870
   3  -9   7   21.37    1.18   1-0.05273 0.58846-0.97595-0.63395 0.21150 0.50180
   3  -9   7   23.13    1.15   1-0.61598 0.02682 0.64828 0.98719-0.44753-0.15723
  -3   9  -7   24.22    1.15   1-0.03745-0.68041 0.99892 0.66039-0.02721-0.31767
  -3   9  -8    7.01    0.52   1-0.20804-0.84162 0.51035 0.10673 0.83441 0.52941
   3  -9   8    6.89    0.50   1-0.08428 0.55023-0.93734-0.53300 0.33805 0.64275
   3  -9   8    7.11    0.50   1-0.65694-0.02078 0.58362 0.98482-0.47729-0.17227
  -3   9  -8    7.30    0.55   1-0.08091-0.71729 0.99498 0.59415-0.05878-0.36395
  -3   9  -9   19.07    1.12   1-0.21446-0.84119 0.46275-0.00319 0.86015 0.54072
   3  -9   9   20.18    1.17   1-0.10184 0.52600-0.90707-0.44040 0.40847 0.72757
   3  -9   9   21.07    1.03   1-0.69222-0.06271 0.51757 0.98107-0.50293-0.18319
  -3   9  -9   21.12    1.04   1-0.11767-0.74749 0.98936 0.52624-0.08549-0.40536
  -3   9 -10   13.43    0.91   1-0.21758-0.83746 0.43714-0.09114 0.87267 0.53883
   3  -9  10   14.26    0.85   1-0.11210 0.50907-0.88615-0.35715 0.44962 0.78312
   3  -9  10   14.69    0.86   1-0.72209-0.09923 0.45092 0.97671-0.52463-0.19018
  -3   9 -10   14.47    1.09   1-0.14811-0.77135 0.98309 0.45768-0.10761-0.44218
  -3   9 -11   10.27    0.80   1-0.21891-0.83194 0.42563-0.16497 0.87801 0.52975
   3  -9  11   11.41    0.71   1-0.11796 0.49654-0.87306-0.28172 0.47312 0.82102
   3  -9  11   10.79    0.58   1-0.74690-0.13068 0.38426 0.97236-0.54265-0.19349
  -3   9 -11   11.91    0.78   1-0.17269-0.78936 0.97695 0.38924-0.12546-0.47474
   3  -8  -8    0.09    0.37   1-0.21213 0.47419 0.48074-0.09182 0.85081 0.87561
  -3   8   8   -0.01    0.37   1-0.13372-0.81898-0.83334-0.26107 0.53632 0.51099
   3  -8  -8    0.01    0.44   1-0.78121-0.09550-0.25989-0.83304-0.56758-0.54490
   3  -8  -7    0.64    0.44   1-0.21037 0.46910 0.49375-0.01647 0.84376 0.88299
  -3   8   7    0.68    0.35   1-0.13081-0.80934-0.84118-0.33126 0.52467 0.48500
   3  -8  -7    0.60    0.42   1-0.76007-0.08106-0.34254-0.85341-0.55222-0.51489
   3  -8  -6    5.23    0.39   1-0.20644 0.46618 0.52135 0.07345 0.82799 0.88163
  -3   8   6    5.30    0.43   1-0.12451-0.79571-0.85738-0.41004 0.49938 0.44576
   3  -8  -5    4.32    0.41   1-0.19863 0.46733 0.57080 0.18532 0.79669 0.86443
  -3   8   5    4.20    0.34   1-0.11213-0.77666-0.88609-0.50108 0.44974 0.38172
   3  -8  -4   15.77    0.93   1-0.18205 0.47703 0.65853 0.33539 0.73019 0.81237
  -3   8   4   15.23    0.87   1-0.08791-0.74576-0.93163-0.60896 0.35259 0.27017
   3  -8  -3    9.78    0.77   1-0.13669 0.51553 0.82507 0.56426 0.54824 0.64485
  -3   8   3    9.36    0.47   1-0.02960-0.68080-0.99248-0.73213 0.11875 0.02193
   3  -8  -3    9.21    0.48   1 0.01606 0.66776 0.99980 0.73681 0.01167 0.10581
   3  -8  -2   22.92    0.96   1-0.04666 0.59846 0.99833 0.79763-0.03390 0.07494
   3  -8  -1   29.23    1.11   1-0.11547 0.52308 0.98976 0.85135-0.08389 0.03965
   3  -8   0   19.01    0.79   1-0.18860 0.44338 0.97244 0.89633-0.13703 0.00122
   3  -8   1   31.01    1.07   1-0.26380 0.36162 0.94534 0.93152-0.19166-0.03869
   3  -8   2   26.82    1.03   1-0.33853 0.28031 0.90823 0.95670-0.24596-0.07829
   3  -8   3   40.27    1.36   1-0.41040 0.20187 0.86177 0.97254-0.29817-0.11580
   3  -8   4    0.40    0.23   1-0.47786 0.12785 0.80690 0.98034-0.34719-0.15026
  -3   8  -5   21.93    0.90   1-0.14089-0.73805 0.81290 0.57502 0.56509 0.35301
   3  -8   5   22.02    0.98   1-0.02826 0.56954-0.99315-0.75481 0.11335 0.32536
   3  -8   5   22.30    0.86   1-0.53864 0.06044 0.74612 0.98186-0.39134-0.17970
  -3   8  -5   23.80    0.97   1-0.00761-0.60675 0.99995 0.76460-0.00553-0.21731
  -3   8  -6    4.76    0.38   1-0.19108-0.78135 0.61328 0.31307 0.76639 0.53987
   3  -8   6    5.12    0.36   1-0.09601 0.49511-0.91787-0.61721 0.38507 0.61147
   3  -8   6    5.16    0.33   1-0.59248-0.00005 0.68092 0.97894-0.43046-0.20411
  -3   8  -6    5.55    0.45   1-0.06748-0.66005 0.99651 0.69887-0.04902-0.27551
  -3   8  -7    1.95    0.29   1-0.20788-0.79149 0.51144 0.14904 0.83378 0.59272
   3  -8   7    1.72    0.34   1-0.12300 0.46144-0.86109-0.49810 0.49333 0.73414
   3  -8   7    1.91    0.27   1-0.63922-0.05342 0.61295 0.97327-0.46442-0.22334
  -3   8  -7    1.50    0.29   1-0.11884-0.70484 0.98915 0.62921-0.08634-0.32754
  -3   8  -8    1.77    0.29   1-0.21562-0.79238 0.45341 0.02866 0.86482 0.60934
   3  -8   8    1.83    0.39   1-0.13704 0.44049-0.82408-0.39876 0.54964 0.80433
   3  -8   8    1.79    0.40   1-0.67904-0.09989 0.54360 0.96622-0.49335-0.23756
  -3   8  -8    1.81    0.51   1-0.16192-0.74136 0.97976 0.55753-0.11764-0.37355
  -3   8  -9    3.13    0.44   1-0.21946-0.78937 0.42077-0.06629 0.88021 0.61031
   3  -8   9    3.25    0.36   1-0.14433 0.42646-0.80251-0.31484 0.57891 0.84794
   3  -8   9    3.32    0.36   1-0.71238-0.13989 0.47393 0.95884-0.51757-0.24707
  -3   8  -9    3.00    0.59   1-0.19729-0.77015 0.96980 0.48528-0.14334-0.41395
  -3   8 -10    0.01    0.31   1-0.22126-0.78433 0.40431-0.14509 0.88745 0.60313
   3  -8  10    0.22    0.33   1-0.14794 0.41612-0.79121-0.24119 0.59337 0.87673
  -3   8 -11    5.89    0.45   1-0.22184-0.77806 0.39888-0.21285 0.88976 0.59102
   3  -8  11    6.01    0.46   1-0.14917 0.40816-0.78725-0.17489 0.59830 0.89600
   3  -8  11    5.38    1.09   1-0.76188-0.20268 0.33633 0.94583-0.55354-0.25360
  -3   8 -11    5.90    0.95   1-0.24776-0.80748 0.95194 0.34284-0.18001-0.48002
   3  -7  -9    7.95    0.59   1-0.22711 0.40924 0.34446-0.26930 0.91091 0.87177
  -3   7   9    7.32    0.58   1-0.13966-0.77487-0.81652-0.20289 0.56015 0.59866
  -3   7   9    5.99    0.42   1-0.29640-0.93202-0.93046-0.31744-0.21535-0.17479
   3  -7  -9    6.94    0.48   1-0.79971-0.16422-0.15117-0.76526-0.58103-0.62241
   3  -7  -8   10.77    0.72   1-0.22800 0.40150 0.33432-0.21712 0.91446 0.88974
  -3   7   8   10.74    0.73   1-0.13926-0.76774-0.81767-0.26639 0.55857 0.58275
   3  -7  -8   10.31    0.65   1-0.78659-0.15780-0.23381-0.78563-0.57149-0.59822
   3  -7  -7   17.71    0.90   1-0.22827 0.39438 0.33111-0.15799 0.91556 0.90526
  -3   7   7   17.56    0.85   1-0.13677-0.75851-0.82484-0.33591 0.54856 0.55840
   3  -7  -7   17.15    0.86   1-0.76646-0.14437-0.32005-0.80959-0.55686-0.56895
   3  -7  -6   13.50    0.77   1-0.22768 0.38812 0.33797-0.08880 0.91319 0.91731
  -3   7   6   13.24    0.72   1-0.13117-0.74618-0.84023-0.41365 0.52612 0.52162
   3  -7  -6   12.88    0.73   1-0.73808-0.12270-0.40946-0.83673-0.53625-0.53369
   3  -7  -5   18.99    0.82   1-0.22566 0.38330 0.36043-0.00401 0.90507 0.92361
  -3   7   5   18.48    0.82   1-0.12067-0.72844-0.86671-0.50270 0.48398 0.46546
   3  -7  -5   17.55    0.86   1-0.70011-0.09143-0.50109-0.86608-0.50866-0.49145
   3  -7  -4   16.59    0.71   1-0.22070 0.38141 0.40955 0.10744 0.88518 0.91813
  -3   7   4   16.61    0.69   1-0.10104-0.70214-0.90859-0.60691 0.40526 0.37234
   3  -7  -3    9.04    0.53   1-0.20776 0.38751 0.51230 0.27251 0.83329 0.88066
  -3   7   3    8.51    0.41   1-0.06174-0.65617-0.96688-0.72753 0.24764 0.20032
   3  -7  -3    9.15    0.42   1-0.58939 0.00590-0.68500-0.92440-0.42822-0.38135
   3  -7  -3    8.30    0.46   1 0.05419 0.64893 0.99775 0.75616 0.03937 0.08425
   3  -7  -2   38.54    2.58   1-0.14846 0.44004 0.78954 0.61214 0.59546 0.65699
  -3   7   2   48.38    1.59   1 0.05061-0.53710-0.97786-0.80080-0.20302-0.26501
   3  -7  -2   45.23    1.58   1-0.01832 0.56985 0.99974 0.82044-0.01331 0.04627
   3  -7  -1    0.04    0.23   1-0.09849 0.48311 0.99256 0.87555-0.07156 0.00272
   3  -7   0    0.00    0.21   1-0.18369 0.39134 0.97388 0.91916-0.13345-0.04446
   3  -7   1    0.21    0.29   1-0.27046 0.29800 0.94246 0.95004-0.19650-0.09280
   3  -7   2    0.55    0.21   1-0.35512 0.20676 0.89850 0.96837-0.25801-0.13961
   3  -7   3    0.89    0.22   1-0.43498 0.12037 0.84315 0.97570-0.31603-0.18305
  -3   7  -4   10.23    0.39   1-0.11075-0.65793 0.88905 0.69243 0.44419 0.29606
   3  -7   4    9.89    0.61   1-0.08534 0.46238-0.93570-0.73872 0.34229 0.49039
   3  -7   4    9.60    0.41   1-0.50660 0.04210 0.77965 0.97450-0.36807-0.22037
  -3   7  -4   10.17    0.44   1-0.02132-0.57007 0.99965 0.80519-0.01549-0.16331
  -3   7  -5    3.55    0.28   1-0.18039-0.72068 0.66632 0.40737 0.72351 0.56094
   3  -7   5    3.85    0.29   1-0.14343 0.39751-0.80527-0.54600 0.57529 0.73746
   3  -7   5    3.33    0.35   1-0.56939-0.02732 0.71038 0.96753-0.41368-0.25127
  -3   7  -5    3.75    0.32   1-0.09371-0.63589 0.99326 0.73651-0.06808-0.23060
  -3   7  -6   63.39    1.85   1-0.20356-0.73697 0.54036 0.21907 0.81643 0.63943
   3  -7   6   67.20    1.23   1-0.16252 0.37169-0.74071-0.41909 0.65186 0.82837
   3  -7   6   66.04    1.17   1-0.62307-0.08765 0.63784 0.95727-0.45269-0.27556
  -3   7  -6   64.70    1.87   1-0.15515-0.69076 0.98143 0.66239-0.11272-0.28995
  -3   7  -7   20.04    0.82   1-0.21396-0.74075 0.46668 0.08315 0.85815 0.66660
   3  -7   7   20.65    0.94   1-0.17093 0.35655-0.70765-0.32369 0.68556 0.87640
   3  -7   7   20.69    0.87   1-0.66805-0.13927 0.56402 0.94575-0.48537-0.29352
  -3   7  -7   20.39    1.06   1-0.20598-0.73502 0.96704 0.58570-0.14965-0.34158
  -3   7  -8   14.77    0.90   1-0.21919-0.73913 0.42318-0.02268 0.87913 0.67317
   3  -7   8   14.92    0.73   1-0.17457 0.34618-0.69230-0.24599 0.70016 0.90534
   3  -7   8   14.97    0.70   1-0.70507-0.18294 0.49035 0.93438-0.51226-0.30570
  -3   7  -8   15.15    0.70   1-0.24708-0.76955 0.95221 0.50859-0.17951-0.38615
  -3   7  -9   29.18    1.40   1-0.22182-0.73492 0.39905-0.10913 0.88968 0.66930
   3  -7   9   29.38    1.39   1-0.17559 0.33843-0.68788-0.17922 0.70425 0.92376
   3  -7   9   30.84    1.43   1-0.73502-0.21954 0.41779 0.92411-0.53402-0.31275
  -3   7  -9   30.53    1.43   1-0.27958-0.79548 0.93838 0.43246-0.20312-0.42447
  -3   7 -10    5.54    0.39   1-0.22296-0.72922 0.38800-0.18252 0.89428 0.65948
   3  -7  10    5.81    0.40   1-0.17495 0.33233-0.69065-0.11964 0.70169 0.93554
   3  -7  10    5.97    0.60   1-0.75878-0.24995 0.34686 0.91548-0.55129-0.31529
  -3   7 -10    6.25    0.42   1-0.30461-0.81395 0.92640 0.35819-0.22131-0.45736
  -3   7 -11   18.47    1.01   1-0.22315-0.72255 0.38619-0.24666 0.89501 0.64580
   3  -7  11   19.72    1.04   1-0.17315 0.32740-0.69837-0.06502 0.69446 0.94264
   3  -7  11   19.60    0.97   1-0.77716-0.27497 0.27784 0.90875-0.56464-0.31393
  -3   7 -11   21.61    1.08   1-0.32324-0.82600 0.91671 0.28620-0.23484-0.48559
  -3   7 -12   17.09    0.78   1-0.22264-0.71520 0.39118-0.30400 0.89297 0.62934
   3  -7  12   17.37    0.82   1-0.17045 0.32336-0.70961-0.01390 0.68365 0.94617
   3  -7  12   17.74    0.74   1-0.79091-0.29614 0.21033 0.90398-0.57463-0.30840
  -3   7 -12   17.82    0.85   1-0.33634-0.83254 0.90947 0.21667-0.24437-0.50983
   3  -6 -10    5.78    0.43   1-0.23487 0.35151 0.23956-0.41541 0.94204 0.83896
  -3   6  10    6.18    0.50   1-0.14130-0.72646-0.81169-0.15670 0.56673 0.66909
  -3   6  10    5.83    0.43   1-0.37266-0.95806-0.88758-0.23346-0.27076-0.16616
   3  -6 -10    5.88    0.49   1-0.80864-0.22337-0.03046-0.68549-0.58751-0.69296
   3  -6  -9    3.89    0.38   1-0.23635 0.34319 0.21339-0.37926 0.94794 0.85929
  -3   6   9    3.72    0.37   1-0.14228-0.72070-0.80876-0.21613 0.57065 0.65868
  -3   6   9    3.88    0.36   1-0.35842-0.93709-0.89650-0.30465-0.26041-0.17039
   3  -6  -9    3.78    0.40   1-0.80413-0.22556-0.10969-0.70245-0.58423-0.67504
   3  -6  -8    1.20    0.30   1-0.23752 0.33516 0.18971-0.34060 0.95267 0.87843
  -3   6   8    1.20    0.36   1-0.14177-0.71346-0.81029-0.28000 0.56861 0.64230
  -3   6   8    1.08    0.38   1-0.33765-0.90960-0.90874-0.37915-0.24531-0.16986
   3  -6  -8    1.24    0.31   1-0.79367-0.22180-0.19385-0.72434-0.57663-0.65279
   3  -6  -7    0.11    0.35   1-0.23842 0.32742 0.16938-0.29860 0.95627 0.89645
  -3   6   7    0.15    0.35   1-0.13924-0.70420-0.81774-0.34981 0.55848 0.61783
  -3   6   7    0.05    0.24   1-0.30913-0.87437-0.92411-0.45680-0.22459-0.16372
   3  -6  -7    0.07    0.25   1-0.77588-0.21071-0.28325-0.75146-0.56371-0.62521
   3  -6  -6    0.08    0.23   1-0.23904 0.31995 0.15380-0.25184 0.95875 0.91334
  -3   6   6    0.03    0.22   1-0.13379-0.69202-0.83316-0.42757 0.53660 0.58162
   3  -6  -6    0.04    0.23   1-0.74904-0.19057-0.37784-0.78378-0.54421-0.59107
   3  -6  -5    0.37    0.21   1-0.23934 0.31280 0.14548-0.19783 0.95997 0.92898
  -3   6   5    0.48    0.25   1-0.12378-0.67481-0.85917-0.51615 0.49648 0.52746
   3  -6  -5    0.46    0.22   1-0.71107-0.15930-0.47694-0.82061-0.51662-0.54883
   3  -6  -4   10.95    0.45   1-0.23920 0.30609 0.14930-0.13168 0.95941 0.94284
  -3   6   4   11.28    0.43   1-0.10589-0.65024-0.89911-0.61842 0.42470 0.44128
   3  -6  -4   11.22    0.51   1-0.65877-0.11368-0.58046-0.86096-0.47862-0.49579
   3  -6  -3    9.28    0.46   1-0.23812 0.30033 0.17654-0.04211 0.95505 0.95290
  -3   6   3    9.09    0.37   1-0.07287-0.61055-0.95354-0.73518 0.29229 0.29448
   3  -6  -2   26.76    1.02   1-0.23346 0.29814 0.26208 0.10575 0.93637 0.94864
  -3   6   2   26.24    0.93   1-0.00588-0.53680-0.99970-0.84363 0.02358 0.01114
   3  -6  -2   26.31    1.09   1 0.00793 0.53915 0.99995 0.84205 0.00576 0.01608
   3  -6  -1   18.57    0.66   1-0.08744 0.43720 0.99414 0.89853-0.06352-0.03850
   3  -6   0   37.79    1.08   1-0.18859 0.32948 0.97244 0.93913-0.13702-0.09729
   3  -6   1   51.14    1.30   1-0.28994 0.22156 0.93357 0.96255-0.21065-0.15622
   3  -6   2   37.28    1.04   1-0.38592 0.11901 0.87888 0.97016-0.28039-0.21125
   3  -6   3   48.38    1.92   1-0.16689 0.33074-0.72393-0.56837 0.66937 0.75336
   3  -6   3   50.01    1.71   1 0.06508 0.56269-0.96312-0.80758-0.26105-0.17656
   3  -6   3   47.94    1.56   1-0.47291 0.02543 0.81135 0.96531-0.34358-0.25983
  -3   6  -3   49.02    1.61   1-0.02503-0.52340 0.99952 0.84595-0.01818-0.10203
  -3   6  -4   45.79    1.51   1-0.15927-0.64958 0.75270 0.53501 0.63879 0.54018
   3  -6   4   49.52    1.63   1-0.19386 0.29703-0.59818-0.38027 0.77755 0.87587
   3  -6   4   46.06    1.51   1-0.54743-0.05573 0.73628 0.95253-0.39773-0.29926
  -3   6  -4   48.68    1.59   1-0.11465-0.60644 0.98990 0.77404-0.08329-0.18185
  -3   6  -5   54.41    1.65   1-0.19338-0.67681 0.60085 0.32082 0.77561 0.66256
   3  -6   5   57.09    1.74   1-0.20078 0.28338-0.55782-0.27757 0.80530 0.91795
   3  -6   5   57.19    1.70   1-0.60975-0.12470 0.65721 0.93576-0.44301-0.32982
  -3   6  -5   58.08    1.74   1-0.18957-0.67480 0.97215 0.69400-0.13773-0.25099
  -3   6  -6    2.29    0.28   1-0.20870-0.68553 0.50571 0.16338 0.83707 0.70946
   3  -6   6    2.18    0.25   1-0.20262 0.27481-0.54636-0.20375 0.81267 0.93965
   3  -6   6    2.39    0.31   1-0.66063-0.18222 0.57721 0.91805-0.47998-0.35208
  -3   6  -6    2.40    0.27   1-0.25025-0.72891 0.95095 0.61050-0.18182-0.30978
  -3   6  -7   31.31    1.06   1-0.21642-0.68640 0.44688 0.04222 0.86801 0.72599
   3  -6   7   32.53    1.08   1-0.20225 0.26845-0.54870-0.14374 0.81118 0.95250
   3  -6   7   32.64    1.95   1-0.70142-0.22966 0.49828 0.90142-0.50961-0.36700
  -3   6  -7   33.42    1.07   1-0.29818-0.77026 0.92959 0.52686-0.21664-0.35931
  -3   6  -8    7.38    0.42   1-0.22045-0.68359 0.41178-0.05520 0.88421 0.72777
   3  -6   8    7.51    0.39   1-0.20063 0.26333-0.55874-0.09144 0.80470 0.96035
  -3   6  -8    7.31    0.69   1-0.33520-0.80072 0.91012 0.44509-0.24354-0.40091
  -3   6  -9    3.77    0.33   1-0.22249-0.67877 0.39264-0.13667 0.89236 0.72151
   3  -6   9    3.92    0.40   1-0.19818 0.25905-0.57349-0.04384 0.79487 0.96486
   3  -6   9    3.28    1.07   1-0.75856-0.30009 0.34762 0.87535-0.55112-0.37908
  -3   6  -9    4.41    0.36   1-0.36313-0.82208 0.89359 0.36627-0.26383-0.43591
  -3   6 -10    1.47    0.29   1-0.22330-0.67273 0.38470-0.20694 0.89562 0.71034
   3  -6  10    1.80    0.29   1-0.19510 0.25540-0.59128 0.00071 0.78250 0.96683
  -3   6 -10    2.03    0.36   1-0.38354-0.83591 0.88047 0.29086-0.27866-0.46544
  -3   6 -11    1.36    0.31   1-0.22328-0.66587 0.38490-0.26908 0.89554 0.69585
   3  -6  11    1.32    0.29   1-0.19149 0.25228-0.61111 0.04323 0.76802 0.96668
   3  -6  11    1.28    0.30   1-0.79132-0.34677 0.20798 0.86069-0.57493-0.37276
  -3   6 -11    1.10    0.46   1-0.39772-0.84352 0.87081 0.21890-0.28896-0.49045
  -3   6 -12    0.36    0.31   1-0.22264-0.65838 0.39121-0.32510 0.89296 0.67885
   3  -6  12    0.56    0.36   1-0.18741 0.24963-0.63235 0.08434 0.75166 0.96466
   3  -6  12    0.34    0.33   1-0.80077-0.36292 0.14238 0.85736-0.58179-0.36498
  -3   6 -12    0.29    0.49   1-0.40670-0.84593 0.86445 0.15025-0.29548-0.51168
  -3   6 -13    3.70    0.46   1-0.22148-0.65037 0.40226-0.37638 0.88832 0.65980
   3  -6  13    3.94    0.45   1-0.18289 0.24741-0.65456 0.12448 0.73355 0.96087
   3  -6  13    3.87    0.62   1-0.80647-0.37532 0.07917 0.85643-0.58594-0.35447
  -3   6 -13    3.33    0.62   1-0.41128-0.84394 0.86113 0.08464-0.29881-0.52971
   3  -5 -11    1.09    0.40   1-0.23876 0.29765 0.16109-0.53510 0.95762 0.79061
  -3   5  11    0.81    0.46   1-0.14006-0.67517-0.81534-0.11900 0.56177 0.72799
  -3   5  11    0.74    0.35   1-0.44283-0.97800-0.83688-0.14166-0.32173-0.15311
   3  -5 -11    0.77    0.50   1-0.80513-0.27008 0.09781-0.59816-0.58496-0.75448
   3  -5 -10    3.45    0.36   1-0.24004 0.28952 0.12418-0.50967 0.96278 0.81018
  -3   5  10    3.75    0.37   1-0.14188-0.67026-0.80994-0.17595 0.56908 0.72095
  -3   5  10    3.76    0.38   1-0.43573-0.96418-0.84256-0.20960-0.31657-0.16253
   3  -5 -10    3.51    0.44   1-0.80875-0.28040 0.02533-0.60837-0.58759-0.74246
   3  -5  -9   10.76    0.69   1-0.24099 0.28173 0.08740-0.48412 0.96658 0.82840
  -3   5   9   10.76    0.60   1-0.14253-0.66418-0.80800-0.23635 0.57167 0.70922
  -3   5   9   10.65    0.59   1-0.42296-0.94469-0.85244-0.28176-0.30730-0.16782
   3  -5  -9   11.52    0.67   1-0.80790-0.28625-0.05246-0.62389-0.58697-0.72719
   3  -5  -8   27.14    1.16   1-0.24161 0.27426 0.05065-0.45854 0.96904 0.84529
  -3   5   8   27.40    1.13   1-0.14168-0.65659-0.81056-0.30127 0.56825 0.69146
  -3   5   8   26.93    1.09   1-0.40326-0.91827-0.86691-0.35849-0.29298-0.16808
   3  -5  -8   28.57    1.20   1-0.80144-0.28650-0.13648-0.64564-0.58228-0.70785
   3  -5  -7   11.66    0.51   1-0.24189 0.26686 0.01491-0.43216 0.97018 0.86140
  -3   5   7   12.24    0.52   1-0.13879-0.64697-0.81905-0.37211 0.55667 0.66554
  -3   5   7   12.21    0.45   1-0.37497-0.88327-0.88609-0.43994-0.27243-0.16210
   3  -5  -7   12.34    0.51   1-0.78777-0.27952-0.22765-0.67453-0.57235-0.68327
   3  -5  -6   22.48    0.88   1-0.24186 0.26009-0.02228-0.40701 0.97005 0.87560
  -3   5   6   22.47    0.79   1-0.13299-0.63444-0.83534-0.45074 0.53340 0.62794
  -3   5   6   21.46    0.78   1-0.33599-0.83757-0.90967-0.52579-0.24411-0.14835
   3  -5  -6   22.49    0.89   1-0.76463-0.26308-0.32667-0.71128-0.55553-0.65181
   3  -5  -5   55.47    1.72   1-0.24148 0.25366-0.06018-0.38255 0.96853 0.88842
  -3   5   5   56.51    1.68   1-0.12272-0.61699-0.86177-0.53974 0.49222 0.57270
   3  -5  -5   56.78    1.84   1-0.72898-0.23414-0.43365-0.75599-0.52964-0.61126
   3  -5  -4   34.27    1.30   1-0.24072 0.24762-0.09941-0.35942 0.96548 0.89971
  -3   5   4   34.65    1.17   1-0.10512-0.59271-0.90066-0.64095 0.42161 0.48770
   3  -5  -4   35.87    1.27   1-0.67621-0.18807-0.54895-0.80830-0.49129-0.55791
   3  -5  -3   38.10    1.40   1-0.23949 0.24204-0.14130-0.33897 0.96056 0.90912
  -3   5   3   38.62    1.26   1-0.07454-0.55547-0.95134-0.75397 0.29899 0.35067
   3  -5  -3   40.34    1.38   1-0.60376-0.12234-0.66561-0.86269-0.43866-0.49070
   3  -5  -2   28.79    0.93   1-0.23755 0.23718-0.18911-0.32442 0.95278 0.91569
  -3   5   2   29.97    0.85   1-0.01973-0.49399-0.99666-0.86163 0.07917 0.11646
   3  -5  -2   30.93    0.95   1-0.50810-0.03339-0.77817-0.91298-0.36915-0.40663
   3  -5  -2   29.66    0.93   1 0.03108 0.50534 0.99926 0.86276 0.02258-0.01636
   3  -5  -1   19.68    0.83   1-0.23403 0.23389-0.25321-0.32617 0.93867 0.91591
   3  -5  -1   20.62    0.62   1-0.08582 0.38186 0.99435 0.92015-0.06235-0.08659
   3  -5   0  110.21    3.34   1-0.20347 0.25762 0.54089 0.53035 0.81610 0.80768
   3  -5   0  101.86    4.02   1-0.22300 0.23805-0.38770-0.39820 0.89440 0.88586
   3  -5   0  108.32    2.83   1-0.20899 0.25212 0.96605 0.95414-0.15184-0.16137
   3  -5   1    0.44    0.21   1-0.24191 0.21241-0.00769 0.04405 0.97026 0.97618
   3  -5   1    0.39    0.19   1-0.14688 0.30735-0.79457-0.74260 0.58913 0.59503
   3  -5   1    0.39    0.17   1-0.32865 0.12589 0.91376 0.96414-0.23878-0.23361
   3  -5   2    0.11    0.15   1-0.23834 0.20918-0.17135-0.05725 0.95594 0.97619
   3  -5   2    0.09    0.14   1 0.01910 0.46661-0.99687-0.88268-0.07662-0.05608
   3  -5   2    0.11    0.16   1-0.43706 0.01091 0.84151 0.95458-0.31754-0.29773
  -3   5  -2    0.10    0.17   1-0.01248-0.46046 0.99988 0.88720-0.00906-0.02894
  -3   5  -3    5.53    0.28   1-0.12537-0.56572 0.85521 0.67877 0.50287 0.46820
   3  -5   3    5.48    0.32   1-0.23484 0.20587-0.24009-0.06363 0.94191 0.97650
   3  -5   3    5.44    0.35   1-0.52794-0.08660 0.75772 0.93309-0.38357-0.34904
  -3   5  -3    5.59    0.33   1-0.12744-0.56884 0.98751 0.81254-0.09259-0.12717
  -3   5  -4    0.99    0.15   1-0.17485-0.60831 0.69109 0.45231 0.70129 0.65220
   3  -5   4    1.04    0.18   1-0.23166 0.20224-0.28807-0.04926 0.92916 0.97809
   3  -5   4    1.13    0.20   1-0.60135-0.16666 0.66894 0.90660-0.43690-0.38766
  -3   5  -4    0.91    0.21   1-0.22157-0.65641 0.96176 0.72450-0.16098-0.21027
  -3   5  -5   -0.01    0.19   1-0.19834-0.62492 0.57256 0.27145 0.79550 0.73197
   3  -5   5    0.09    0.20   1-0.22849 0.19862-0.32857-0.02740 0.91642 0.97969
   3  -5   5    0.03    0.28   1-0.65893-0.23089 0.58017 0.88013-0.47874-0.41479
  -3   5  -5    0.04    0.18   1-0.29540-0.72367 0.93095 0.63140-0.21462-0.27861
  -3   5  -6   12.89    0.53   1-0.21025-0.63027 0.49460 0.13115 0.84329 0.76521
   3  -5   6   12.77    0.47   1-0.22518 0.19512-0.36547-0.00195 0.90317 0.98077
   3  -5   6   13.12    0.50   1-0.70327-0.28187 0.49429 0.85654-0.51095-0.43228
  -3   5  -6   12.95    0.50   1-0.35165-0.77334 0.90059 0.53874-0.25548-0.33418
  -3   5  -7    6.78    0.36   1-0.21666-0.62983 0.44485 0.01907 0.86899 0.77649
   3  -5   7    6.79    0.35   1-0.22169 0.19181-0.40031 0.02555 0.88915 0.98109
   3  -5   7    6.75    0.37   1-0.73694-0.32220 0.41258 0.83713-0.53542-0.44203
  -3   5  -7    6.79    0.36   1-0.39357-0.80869 0.87369 0.44955-0.28594-0.37935
  -3   5  -8   33.50    1.20   1-0.22013-0.62645 0.41473-0.07338 0.88291 0.77599
   3  -5   8   34.22    1.11   1-0.21797 0.18872-0.43381 0.05441 0.87423 0.98052
   3  -5   8   34.44    1.49   1-0.76216-0.35405 0.33537 0.82222-0.55374-0.44564
  -3   5  -8   35.30    1.13   1-0.42477-0.83287 0.85107 0.36422-0.30861-0.41671
  -3   5  -9   21.00    0.87   1-0.22189-0.62136 0.39840-0.15204 0.88996 0.76863
   3  -5   9   22.08    0.83   1-0.21400 0.18589-0.46633 0.08424 0.85833 0.97895
   3  -5   9   22.77    0.95   1-0.78064-0.37918 0.26250 0.81164-0.56717-0.44435
  -3   5  -9   23.24    0.91   1-0.44643-0.84788 0.83396 0.28482-0.32435-0.44716
  -3   5 -10   16.96    0.88   1-0.22255-0.61517 0.39205-0.22072 0.89261 0.75686
   3  -5  10   17.81    0.90   1-0.20978 0.18394-0.49805 0.11493 0.84138 0.97619
   3  -5  10   16.72    0.84   1-0.79376-0.39943 0.19327 0.80503-0.57670-0.43860
  -3   5 -10   18.26    0.97   1-0.46105-0.85587 0.82171 0.21028-0.33498-0.47251
  -3   5 -11   24.30    1.10   1-0.22244-0.60821 0.39313-0.28197 0.89216 0.74199
   3  -5  11   27.31    1.13   1-0.20526 0.18172-0.52920 0.14613 0.82328 0.97242
   3  -5  11   25.71    1.12   1-0.80238-0.41475 0.12777 0.80180-0.58296-0.43021
  -3   5 -11   24.87    1.15   1-0.47005-0.85822 0.81388 0.14015-0.34151-0.49376
  -3   5 -12    4.73    0.38   1-0.22173-0.60066 0.39988-0.33755 0.88933 0.72475
   3  -5  12    4.98    0.39   1-0.20046 0.17980-0.55980 0.17788 0.80400 0.96748
   3  -5  12    4.94    0.43   1-0.80729-0.42636 0.06527 0.80158-0.58653-0.41913
  -3   5 -12    4.18    0.43   1-0.47446-0.85598 0.80996 0.07394-0.34472-0.51168
  -3   5 -13   13.24    0.66   1-0.22053-0.59261 0.41109-0.38867 0.88451 0.70550
   3  -5  13   13.08    0.58   1-0.19534 0.17818-0.58990 0.21013 0.78348 0.96129
   3  -5  13   13.04    0.72   1-0.80900-0.43477 0.00537 0.80396-0.58777-0.40573
  -3   5 -13   12.41    0.65   1-0.47503-0.84990 0.80945 0.01114-0.34513-0.52681
   3  -4 -12   14.03    0.73   1-0.24060 0.24585 0.10436-0.63303 0.96499 0.73404
  -3   4  12   14.72    0.74   1-0.13669-0.62176-0.82506-0.08736 0.54825 0.77832
  -3   4  12   13.33    0.69   1-0.50498-0.98992-0.78126-0.04493-0.36689-0.13424
   3  -4 -12   15.70    0.76   1-0.78768-0.30285 0.22814-0.50877-0.57228-0.80586
   3  -4 -11   10.06    0.58   1-0.24147 0.23812 0.06040-0.61466 0.96852 0.75198
  -3   4  11   10.36    0.66   1-0.13908-0.61741-0.81822-0.14287 0.55782 0.77355
  -3   4  11    9.76    0.59   1-0.50481-0.98303-0.78143-0.10737-0.36676-0.14869
   3  -4 -11   11.04    0.74   1-0.79794-0.31981 0.16490-0.50974-0.57973-0.79867
   3  -4 -10   11.54    0.65   1-0.24188 0.23047 0.01662-0.59647 0.97016 0.76882
  -3   4  10   11.47    0.68   1-0.14047-0.61206-0.81415-0.20115 0.56339 0.76479
  -3   4  10   11.14    0.62   1-0.50013-0.97164-0.78601-0.17422-0.36337-0.15986
   3  -4 -10   12.25    0.83   1-0.80520-0.33377 0.09701-0.51536-0.58501-0.78930
   3  -4  -9   13.50    0.76   1-0.24181 0.22374-0.02982-0.58056 0.96986 0.78286
  -3   4   9   12.92    0.75   1-0.14063-0.60550-0.81366-0.26301 0.56406 0.75112
  -3   4   9   13.63    0.73   1-0.48991-0.95470-0.79579-0.24626-0.35594-0.16701
   3  -4  -9   13.56    0.78   1-0.80879-0.34407 0.02334-0.52675-0.58762-0.77726
   3  -4  -8   12.80    0.63   1-0.24117 0.21758-0.07833-0.56673 0.96731 0.79465
  -3   4   8   12.73    0.53   1-0.13923-0.59736-0.81778-0.32947 0.55843 0.73116
  -3   4   8   12.48    0.50   1-0.47264-0.93071-0.81159-0.32433-0.34339-0.16903
   3  -4  -8   13.74    0.66   1-0.80767-0.34965-0.05751-0.54534-0.58681-0.76180
   3  -4  -7   19.52    0.78   1-0.23987 0.21208-0.12983-0.55587 0.96208 0.80375
  -3   4   7   20.29    0.74   1-0.13571-0.58711-0.82783-0.40188 0.54430 0.70270
  -3   4   7   19.83    0.72   1-0.44617-0.89752-0.83417-0.40919-0.32416-0.16437
   3  -4  -7   21.21    0.82   1-0.80019-0.34887-0.14728-0.57283-0.58137-0.74171
   3  -4  -6    1.15    0.29   1-0.23771 0.20743-0.18565-0.54934 0.95342 0.80944
  -3   4   6    1.21    0.22   1-0.12918-0.57384-0.84549-0.48189 0.51811 0.66217
  -3   4   6    1.24    0.28   1-0.40746-0.85209-0.86390-0.50119-0.29603-0.15081
   3  -4  -6    1.11    0.30   1-0.78375-0.33913-0.24792-0.61121-0.56943-0.71512
   3  -4  -5    1.43    0.30   1-0.23436 0.20398-0.24797-0.54930 0.93998 0.81034
  -3   4   5    1.31    0.25   1-0.11811-0.55563-0.87272-0.57167 0.47371 0.60370
  -3   4   5    1.49    0.25   1-0.35244-0.79035-0.90011-0.59967-0.25606-0.12541
   3  -4  -5    1.54    0.22   1-0.75436-0.31644-0.36129-0.66230-0.54808-0.67912
   3  -4  -4    1.90    0.23   1-0.22916 0.20237-0.32038-0.55936 0.91914 0.80383
  -3   4   4    1.99    0.26   1-0.09994-0.53079-0.91066-0.67195 0.40087 0.51645
   3  -4  -4    2.01    0.26   1-0.70610-0.27488-0.48809-0.72683-0.51301-0.62941
   3  -4  -3    0.85    0.21   1-0.22074 0.20399-0.40912-0.58574 0.88537 0.78440
  -3   4   3    0.80    0.16   1-0.07008-0.49426-0.95711-0.78073 0.28111 0.38230
   3  -4  -3    0.90    0.18   1-0.63018-0.20570-0.62708-0.80299-0.45785-0.55936
   3  -4  -2   11.65    0.53   1-0.20581 0.21192-0.52559-0.63980 0.82546 0.73874
  -3   4   2   11.92    0.49   1-0.02113-0.43864-0.99617-0.88213 0.08478 0.17157
   3  -4  -2   12.57    0.59   1-0.52034-0.10258-0.76571-0.87935-0.37805-0.46498
   3  -4  -2   13.66    0.58   1 0.04898 0.46628 0.99816 0.88306 0.03558-0.05261
   3  -4  -1   15.38    0.63   1-0.17661 0.23439-0.68339-0.73525 0.70835 0.63597
  -3   4   1   15.58    0.54   1 0.05399-0.35674-0.97477-0.92298-0.21654-0.14431
   3  -4  -1   15.73    0.62   1-0.10089 0.30983 0.99219 0.93938-0.07330-0.14680
   3  -4   0   39.75    1.04   1-0.14411 0.26001 0.80319 0.81371 0.57801 0.51986
   3  -4   0   39.03    1.11   1-0.11636 0.28779-0.87672-0.86610 0.46670 0.40870
   3  -4   0   38.91    1.01   1-0.25577 0.14838 0.94870 0.95819-0.18583-0.24462
   3  -4   1   21.87    0.66   1-0.20877 0.18866 0.50522 0.57814 0.83735 0.79382
   3  -4   1   21.67    0.73   1-0.01718 0.38029-0.99747-0.92451 0.06892 0.02532
   3  -4   1   21.37    0.75   1-0.39701 0.00057 0.87130 0.94308-0.28844-0.33253
  -3   4  -1   22.16    0.69   1 0.02969-0.36789 0.99932 0.92754 0.02157 0.06566
   3  -4   2   53.41    1.47   1-0.23454 0.15604 0.24506 0.38031 0.94070 0.91159
   3  -4   2   53.53    1.53   1-0.51357-0.12260 0.77266 0.90714-0.37313-0.40255
  -3   4  -2   56.71    1.56   1-0.12597-0.51699 0.98780 0.85372-0.09152-0.06213
  -3   4  -3   70.65    1.80   1-0.14568-0.52916 0.79836 0.60083 0.58429 0.59914
   3  -4   3   72.74    1.85   1-0.24135 0.14239 0.06874 0.26632 0.96799 0.95330
   3  -4   3   72.26    1.87   1-0.60176-0.21744 0.66837 0.86515-0.43720-0.45191
  -3   4  -3   74.24    1.93   1-0.25004-0.63449 0.95103 0.75467-0.18166-0.16698
  -3   4  -4   50.87    1.38   1-0.18053-0.55714 0.66565 0.40579 0.72409 0.72451
   3  -4   4   53.65    1.44   1-0.24161 0.13550-0.05066 0.20919 0.96904 0.96844
   3  -4   4   52.62    1.46   1-0.66650-0.28882 0.56682 0.82589-0.48424-0.48423
  -3   4  -4   52.28    1.48   1-0.34260-0.72048 0.90590 0.64724-0.24891-0.24894
  -3   4  -5   58.57    1.44   1-0.19921-0.56893 0.56738 0.24518 0.79899 0.78498
   3  -4   5   59.43    1.38   1-0.23954 0.13076-0.13982 0.18238 0.96076 0.97449
   3  -4   5   59.68    1.37   1-0.71323-0.34220 0.47199 0.79335-0.51819-0.50346
  -3   4  -5   59.21    1.42   1-0.40920-0.78051 0.86265 0.54169-0.29730-0.31203
  -3   4  -6   50.32    1.63   1-0.20947-0.57266 0.50028 0.11571 0.84014 0.81158
   3  -4   6   49.95    1.57   1-0.23648 0.12701-0.21079 0.17376 0.94849 0.97656
   3  -4   6   49.53    1.54   1-0.74671-0.38233 0.38482 0.76848-0.54251-0.51307
  -3   4  -6   51.36    1.66   1-0.45681-0.82119 0.82532 0.44166-0.33189-0.36133
  -3   4  -7   51.74    1.58   1-0.21527-0.57162 0.45621 0.00930 0.86343 0.82046
   3  -4   7   53.49    1.60   1-0.23289 0.12380-0.27056 0.17635 0.93410 0.97651
   3  -4   7   51.00    1.52   1-0.77050-0.41276 0.30486 0.75081-0.55980-0.51564
  -3   4  -7   55.48    1.67   1-0.48931-0.84704 0.79636 0.35040-0.35550-0.39966
  -3   4  -8    5.65    0.39   1-0.21853-0.56803 0.42898-0.08025 0.87647 0.81908
   3  -4   8    5.96    0.34   1-0.22895 0.12094-0.32300 0.18626 0.91828 0.97502
   3  -4   8    6.06    0.35   1-0.78713-0.43631 0.23103 0.73957-0.57188-0.51249
  -3   4  -8    6.41    0.38   1-0.51126-0.86235 0.77499 0.26674-0.37145-0.43033
  -3   4  -9   29.90    1.20   1-0.22021-0.56286 0.41405-0.15751 0.88321 0.81140
   3  -4   9   31.60    1.06   1-0.22471 0.11837-0.37039 0.20123 0.90128 0.97236
   3  -4   9   31.39    1.13   1-0.79826-0.45415 0.16251 0.73333-0.57997-0.50593
  -3   4  -9   31.99    1.19   1-0.52540-0.86984 0.76041 0.18987-0.38172-0.45531
  -3   4 -10    7.03    0.39   1-0.22084-0.55664 0.40826-0.22563 0.88574 0.79951
   3  -4  10    7.81    0.44   1-0.22020 0.11608-0.41412 0.21985 0.88318 0.96860
   3  -4  10    7.19    0.94   1-0.80509-0.46768 0.09835 0.73144-0.58493-0.49625
  -3   4 -10    7.18    0.65   1-0.53359-0.87139 0.75165 0.11881-0.38767-0.47598
  -3   4 -11    4.65    0.36   1-0.22071-0.54967 0.40941-0.28681 0.88524 0.78459
   3  -4  11    4.44    0.33   1-0.21541 0.11407-0.45510 0.24122 0.86398 0.96374
   3  -4  11    3.42    0.91   1-0.80844-0.47773 0.03777 0.73313-0.58736-0.48403
  -3   4 -11    3.78    0.96   1-0.53713-0.86828 0.74779 0.05265-0.39024-0.49327
  -3   4 -12    1.42    0.42   1-0.21999-0.54210 0.41597-0.34259 0.88236 0.76730
   3  -4  12    1.14    0.37   1-0.21035 0.11312-0.49390 0.26478 0.84368 0.95764
  -3   4 -13    0.17    0.42   1-0.21878-0.53404 0.42681-0.39408 0.87747 0.74799
   3  -4  13   -0.05    0.27   1-0.20499 0.11175-0.53103 0.29000 0.82218 0.95047
   3  -3 -12    1.18    0.32   1-0.24188 0.18729 0.01818-0.69858 0.97013 0.69058
  -3   3  12    1.27    0.32   1-0.13440-0.56269-0.83145-0.11475 0.53908 0.81866
  -3   3  12    1.19    0.36   1-0.56383-0.99183-0.71713-0.00196-0.40964-0.12754
   3  -3 -12    1.28    0.32   1-0.77043-0.34343 0.30513-0.41110-0.55975-0.84442
   3  -3 -11    0.10    0.28   1-0.24179 0.18056-0.03184-0.68625 0.96980 0.70459
  -3   3  11    0.13    0.35   1-0.13631-0.55786-0.82614-0.17179 0.54671 0.81195
  -3   3  11    0.19    0.38   1-0.56641-0.98768-0.71402-0.06112-0.41152-0.14398
   3  -3 -11    0.13    0.42   1-0.78350-0.36314 0.24914-0.40479-0.56925-0.83920
   3  -3 -10    0.95    0.39   1-0.24106 0.17449-0.08388-0.67593 0.96687 0.71600
  -3   3  10    1.14    0.39   1-0.13715-0.55197-0.82375-0.23175 0.55009 0.80101
  -3   3  10    1.22    0.37   1-0.56499-0.97955-0.71573-0.12510-0.41049-0.15753
   3  -3 -10    1.18    0.39   1-0.79493-0.38043 0.18574-0.40530-0.57755-0.83126
   3  -3  -9    1.62    0.29   1-0.23958 0.16917-0.13860-0.66830 0.96092 0.72439
  -3   3   9    1.65    0.34   1-0.13669-0.54477-0.82507-0.29541 0.54824 0.78482
  -3   3   9    1.76    0.29   1-0.55855-0.96639-0.72341-0.19505-0.40581-0.16742
   3  -3  -9    1.42    0.30   1-0.80316-0.39535 0.12007-0.40870-0.58353-0.82258
   3  -3  -8    8.93    0.45   1-0.23718 0.16477-0.19693-0.66428 0.95129 0.72909
  -3   3   8    9.76    0.43   1-0.13455-0.53590-0.83106-0.36375 0.53965 0.76189
  -3   3   8    9.79    0.43   1-0.54546-0.94659-0.73851-0.27242-0.39630-0.17248
   3  -3  -8    8.44    0.46   1-0.80811-0.40700 0.04727-0.41922-0.58712-0.81153
   3  -3  -7   23.06    1.00   1-0.23359 0.16156-0.26014-0.66514 0.93688 0.72902
  -3   3   7   23.40    0.86   1-0.13015-0.52477-0.84295-0.43799 0.52200 0.72991
  -3   3   7   23.72    0.89   1-0.52318-0.91759-0.76275-0.35892-0.38011-0.17086
   3  -3  -7   22.88    0.89   1-0.80851-0.41411-0.03509-0.43932-0.58742-0.79718
   3  -3  -6   44.11    1.54   1-0.22836 0.15998-0.33008-0.67272 0.91591 0.72238
  -3   3   6   46.08    1.50   1-0.12252-0.50997-0.86225-0.51986 0.49143 0.68532
  -3   3   6   45.93    1.45   1-0.48768-0.87537-0.79788-0.45633-0.35432-0.15964
   3  -3  -6   46.32    1.53   1-0.80210-0.41440-0.13047-0.47242-0.58276-0.77787
   3  -3  -5   15.62    0.52   1-0.22072 0.16081-0.40931-0.68960 0.88529 0.70610
  -3   3   5   15.77    0.48   1-0.11031-0.49108-0.88997-0.60992 0.44246 0.62195
  -3   3   5   15.89    0.47   1-0.43263-0.81360-0.84500-0.56571-0.31432-0.13422
   3  -3  -5   16.23    0.55   1-0.78466-0.40366-0.24350-0.52318-0.57009-0.75055
   3  -3  -4   39.42    1.28   1-0.20926 0.16515-0.50172-0.71963 0.83933 0.67442
  -3   3   4   40.09    1.14   1-0.09109-0.46518-0.92640-0.70868 0.36534 0.53044
  -3   3   4   39.70    1.16   1-0.34864-0.72289-0.90237-0.68536-0.25330-0.08776
   3  -3  -4   40.37    1.20   1-0.74843-0.37413-0.37967-0.59708-0.54377-0.70958
   3  -3  -3  123.00    3.00   1-0.19151 0.17617-0.61097-0.76653 0.76813 0.61756
  -3   3   3  125.24    3.02   1-0.06113-0.42856-0.96753-0.81215 0.24521 0.39590
   3  -3  -3  134.30    3.28   1-0.67892-0.31139-0.54382-0.69856-0.49326-0.64423
   3  -3  -2   76.34    1.70   1-0.16279 0.19815-0.73970-0.83291 0.65294 0.51670
  -3   3   2   78.35    1.69   1-0.01561-0.37636-0.99791-0.90486 0.06263 0.19893
   3  -3  -2   79.75    1.79   1-0.55689-0.19608-0.72536-0.81784-0.40460-0.54100
   3  -3  -2   73.31    1.72   1 0.05645 0.41680 0.99756 0.90386 0.04101-0.09645
   3  -3  -1   61.29    1.42   1-0.11573 0.23834-0.87814-0.90886 0.46419 0.34229
  -3   3   1   61.94    1.40   1 0.04788-0.30609-0.98021-0.94940-0.19205-0.07028
   3  -3  -1   65.44    1.55   1-0.36706-0.01296-0.89114-0.92135-0.26668-0.38850
   3  -3  -1   60.09    1.60   1-0.15023 0.20354 0.98260 0.95120-0.10915-0.23191
   3  -3   0   53.03    1.33   1-0.12063 0.22664 0.86680 0.89841 0.48382 0.37615
   3  -3   0   51.79    1.28   1-0.04569 0.30170-0.98199-0.95038 0.18328 0.07578
   3  -3   0   49.72    1.36   1-0.35138-0.00417 0.90075 0.93164-0.25529-0.36335
   3  -3   1   39.53    0.94   1-0.18075 0.15963 0.66463 0.75856 0.72497 0.63173
   3  -3   1   38.46    0.93   1 0.03646 0.37711-0.98857-0.89474-0.14624-0.23919
   3  -3   1   37.41    1.01   1-0.51078-0.17018 0.77548 0.86908-0.37110-0.46447
  -3   3  -1   39.66    0.97   1-0.09466-0.43530 0.99313 0.89995-0.06877 0.02457
  -3   3  -2  166.07    3.14   1-0.10670-0.44022 0.89746 0.74119 0.42798 0.50678
   3  -3   2  174.34    3.28   1-0.21663 0.11714 0.44513 0.60150 0.86886 0.79023
   3  -3   2  171.64    3.35   1-0.61907-0.28511 0.64377 0.79966-0.44978-0.52842
  -3   3  -2  169.27    3.27   1-0.27235-0.60641 0.94163 0.78615-0.19787-0.11922
  -3   3  -3    0.19    0.16   1-0.15341-0.48004 0.77321 0.55461 0.61530 0.67967
   3  -3   3    0.35    0.17   1-0.23353 0.09338 0.26098 0.47968 0.93666 0.87245
   3  -3   3    0.21    0.13   1-0.68935-0.36204 0.52339 0.74158-0.50084-0.56477
  -3   3  -3    0.22    0.18   1-0.39420-0.72169 0.87325 0.65549-0.28640-0.22245
  -3   3  -4    1.04    0.16   1-0.18124-0.50099 0.66236 0.38142 0.72692 0.77686
   3  -3   4    1.09    0.16   1-0.24025 0.07982 0.11717 0.39820 0.96361 0.91381
   3  -3   4    1.16    0.22   1-0.73476-0.41410 0.41849 0.69897-0.53383-0.58305
  -3   3  -4    0.96    0.18   1-0.47455-0.79521 0.80989 0.52940-0.34478-0.29556
  -3   3  -5   14.57    0.57   1-0.19743-0.51030 0.57789 0.23462 0.79186 0.82737
   3  -3   5   14.63    0.53   1-0.24191 0.07158 0.00552 0.34876 0.97028 0.93447
   3  -3   5   14.06    0.51   1-0.76442-0.45040 0.32742 0.67019-0.55538-0.58988
  -3   3  -5   14.81    0.57   1-0.52570-0.83971 0.76010 0.41732-0.38194-0.34744
  -3   3  -6    0.65    0.18   1-0.20690-0.51328 0.51820 0.11251 0.82984 0.85080
   3  -3   6    0.66    0.24   1-0.24102 0.06567-0.08589 0.31970 0.96670 0.94523
   3  -3   6    0.70    0.44   1-0.78387-0.47650 0.24735 0.65242-0.56952-0.58930
  -3   3  -7    0.16    0.18   1-0.21251-0.51204 0.47783 0.00980 0.85235 0.85889
   3  -3   7    0.15    0.25   1-0.23870 0.06119-0.16255 0.30540 0.95739 0.95025
  -3   3  -8   10.30    0.42   1-0.21577-0.50845 0.45222-0.07813 0.86540 0.85753
   3  -3   8   10.67    0.42   1-0.23550 0.05759-0.22886 0.30144 0.94454 0.95174
  -3   3  -8    9.85    1.62   1-0.59120-0.88528 0.68262 0.15296-0.42953-0.43918
  -3   3  -9    6.36    0.37   1-0.21750-0.50334 0.43777-0.15491 0.87237 0.85008
   3  -3   9    6.59    0.36   1-0.23169 0.05460-0.28772 0.30493 0.92926 0.95080
  -3   3 -10    8.32    0.48   1-0.21820-0.49719 0.43184-0.22317 0.87515 0.83844
   3  -3  10    9.17    0.46   1-0.22741 0.05207-0.34104 0.31397 0.91212 0.94800
   3  -3  10    7.00    1.24   1-0.80900-0.52851-0.00648 0.64793-0.58777-0.54850
  -3   3 -10    7.23    0.96   1-0.59930-0.88008 0.67175 0.01749-0.43541-0.47449
  -3   3 -11   16.88    0.91   1-0.21812-0.49026 0.43252-0.28483 0.87484 0.82371
   3  -3  11   18.65    0.89   1-0.22275 0.04993-0.39013 0.32723 0.89340 0.94362
   3  -3  11   16.42    1.60   1-0.80755-0.53376-0.06003 0.65666-0.58672-0.53281
  -3   3 -11   14.76    1.67   1-0.59766-0.87179 0.67398-0.04256-0.43422-0.48801
  -3   3 -12   13.11    0.72   1-0.21743-0.48273 0.43840-0.34128 0.87207 0.80653
   3  -3  12   13.61    0.72   1-0.21772 0.04815-0.43591 0.34380 0.87325 0.93780
   3  -3  12   13.84    0.95   1-0.80399-0.53691-0.11120 0.66776-0.58414-0.51557
  -3   3 -12   13.42    1.02   1-0.59318-0.86066 0.68000-0.09883-0.43097-0.49947
  -3   3 -13   15.49    0.87   1-0.21622-0.47467 0.44848-0.39353 0.86724 0.78728
   3  -3  13   15.26    0.81   1-0.21235 0.04672-0.47904 0.36302 0.85171 0.93060
   3  -3  13   15.89    1.03   1-0.79853-0.53814-0.16047 0.68076-0.58016-0.49695
  -3   3 -13   16.41    1.02   1-0.58627-0.84712 0.68908-0.15205-0.42595-0.50918
   3  -2 -13    4.75    0.59   1-0.24191 0.13726-0.00889-0.76697 0.97025 0.62682
  -3   2  13    5.33    0.53   1-0.12819-0.50642-0.84807-0.09000 0.51414 0.85757
  -3   2  13    6.06    0.60   1-0.61207-0.98985-0.65390 0.10236-0.44470-0.09857
   3  -2 -13    5.89    0.59   1-0.72895-0.35231 0.43373-0.32338-0.52961-0.87823
   3  -2 -12   12.12    0.69   1-0.24145 0.13091-0.06197-0.75769 0.96843 0.63933
  -3   2  12   12.51    0.65   1-0.13047-0.50197-0.84209-0.14638 0.52330 0.85240
  -3   2  12   13.11    0.76   1-0.62044-0.99149-0.64175 0.05224-0.45077-0.11921
   3  -2 -12   13.15    0.65   1-0.74511-0.37512 0.38952-0.30529-0.54135-0.87525
   3  -2 -11   17.25    0.89   1-0.24025 0.12530-0.11714-0.75051 0.96361 0.64886
  -3   2  11   18.42    0.85   1-0.13180-0.49657-0.83855-0.20519 0.52863 0.84339
  -3   2  11   18.33    0.90   1-0.62611-0.99044-0.63328-0.00155-0.45489-0.13790
   3  -2 -11   18.92    0.89   1-0.75986-0.39651 0.34324-0.28928-0.55207-0.87125
   3  -2 -10   26.53    1.34   1-0.23818 0.12057-0.17501-0.74602 0.95532 0.65490
  -3   2  10   27.97    1.27   1-0.13198-0.49002-0.83806-0.26704 0.52936 0.82979
  -3   2  10   27.64    1.28   1-0.62858-0.98619-0.62953-0.06006-0.45669-0.15427
   3  -2 -10   29.77    1.34   1-0.77320-0.41650 0.29424-0.27599-0.56176-0.86623
   3  -2  -9   19.23    0.81   1-0.23506 0.11689-0.23634-0.74501 0.94280 0.65672
  -3   2   9   20.00    0.77   1-0.13075-0.48205-0.84135-0.33269 0.52442 0.81051
  -3   2   9   20.02    0.80   1-0.62701-0.97791-0.63191-0.12472-0.45555-0.16770
   3  -2  -9   20.34    0.80   1-0.78505-0.43500 0.24157-0.26637-0.57037-0.86012
   3  -2  -8   35.19    1.24   1-0.23061 0.11454-0.30215-0.74847 0.92494 0.65320
  -3   2   8   35.13    1.19   1-0.12769-0.47226-0.84934-0.40303 0.51216 0.78391
  -3   2   8   36.62    1.28   1-0.61997-0.96415-0.64244-0.19751-0.45044-0.17716
   3  -2  -8   37.64    1.36   1-0.79576-0.45158 0.18023-0.26493-0.57815-0.85198
   3  -2  -7   32.98    1.13   1-0.22439 0.11396-0.37373-0.75769 0.89998 0.64257
  -3   2   7   33.38    1.12   1-0.12213-0.45949-0.86321-0.47948 0.48984 0.74763
  -3   2   7   34.44    1.12   1-0.60497-0.94243-0.66394-0.28128-0.43953-0.18083
   3  -2  -7   31.74    1.09   1-0.80366-0.46618 0.11478-0.26811-0.58389-0.84307
   3  -2  -6   20.33    0.61   1-0.21571 0.11583-0.45271-0.77431 0.86517 0.62210
  -3   2   6   20.30    0.54   1-0.11327-0.44396-0.88360-0.56220 0.45433 0.69772
  -3   2   6   20.51    0.59   1-0.57746-0.90821-0.70035-0.37997-0.41955-0.17542
   3  -2  -6   18.96    0.60   1-0.80842-0.47764 0.03811-0.28251-0.58735-0.83188
   3  -2  -5   67.86    1.58   1-0.20345 0.12092-0.54105-0.80032 0.81600 0.58724
  -3   2   5   67.71    1.58   1-0.09964-0.42365-0.91124-0.65218 0.39963 0.62862
  -3   2   5   67.44    1.53   1-0.52889-0.85292-0.75670-0.49858-0.38426-0.15470
   3  -2  -5   63.54    1.53   1-0.80773-0.48365-0.05633-0.31468-0.58685-0.81673
   3  -2  -4    0.17    0.21   1-0.18585 0.13178-0.64013-0.83704 0.74544 0.53102
  -3   2   4    0.19    0.15   1-0.07910-0.39644-0.94503-0.74830 0.31726 0.53185
  -3   2   4    0.16    0.12   1-0.44261-0.75992-0.83706-0.64121-0.32157-0.10658
   3  -2  -4    0.16    0.18   1-0.79574-0.47836-0.18037-0.37645-0.57814-0.79337
   3  -2  -3    8.56    0.40   1-0.16011 0.15078-0.74962-0.88419 0.64219 0.44211
  -3   2   3    8.81    0.38   1-0.04876-0.35943-0.97947-0.84507 0.19559 0.39579
   3  -2  -3    8.82    0.43   1-0.75645-0.44577-0.35457-0.48837-0.54959-0.75018
   3  -2  -2   10.94    0.45   1-0.12223 0.18176-0.86295-0.93501 0.49026 0.30447
  -3   2   2   10.90    0.43   1-0.00582-0.30970-0.99971-0.92755 0.02336 0.20909
   3  -2  -2   10.79    0.47   1-0.64543-0.34156-0.60292-0.67423-0.46893-0.65478
   3  -2  -2   10.25    0.47   1 0.03668 0.34006 0.99897 0.92667 0.02664-0.16008
   3  -2  -1    3.94    0.26   1-0.06931 0.22801-0.95807-0.96780 0.27800 0.10660
  -3   2   1    3.92    0.25   1 0.05005-0.24716-0.97835-0.96852-0.20077-0.02945
   3  -2  -1    4.09    0.28   1-0.38677-0.08962-0.87831-0.88735-0.28101-0.45229
   3  -2  -1    3.68    0.30   1-0.28836 0.00844 0.93431 0.92431-0.20951-0.38154
   3  -2   0    3.38    0.23   1-0.11148 0.17893 0.88748 0.94016 0.44715 0.28996
   3  -2   0    3.12    0.26   1-0.00371 0.28684-0.99988-0.94739 0.01489-0.14201
   3  -2   0    3.15    0.23   1-0.54052-0.25028 0.74405 0.79676-0.39271-0.55001
  -3   2   0    3.20    0.24   1 0.02042-0.26982 0.99968 0.94739 0.01483 0.17216
   3  -2   1   20.08    0.59   1-0.16488 0.11865 0.73174 0.84675 0.66133 0.51857
   3  -2   1   20.67    0.65   1 0.06291 0.34680-0.96559-0.85078-0.25233-0.39483
   3  -2   1   19.40    0.58   1-0.67219-0.38860 0.55645 0.67146-0.48837-0.63097
  -3   2  -1   19.90    0.64   1-0.28048-0.56416 0.93797 0.82339-0.20378-0.06116
  -3   2  -2   43.69    0.97   1-0.11734-0.39400 0.87448 0.69713 0.47064 0.59897
   3  -2   2   45.62    0.99   1-0.20198 0.07467 0.55037 0.72772 0.81011 0.68179
   3  -2   2   43.22    1.00   1-0.73660-0.45966 0.41351 0.59081-0.53517-0.66305
  -3   2  -2   45.01    1.08   1-0.45687-0.73381 0.82527 0.64797-0.33194-0.20406
  -3   2  -3   16.03    0.54   1-0.15487-0.42465 0.76820 0.52852 0.62118 0.73507
   3  -2   3   16.06    0.50   1-0.22387 0.04623 0.37898 0.61880 0.89791 0.78418
   3  -2   3   15.12    0.51   1-0.77029-0.50000 0.30567 0.54527-0.55965-0.67281
  -3   2  -3   15.74    0.53   1-0.55136-0.82166 0.73179 0.49219-0.40059-0.28742
  -3   2  -4   56.06    1.49   1-0.17880-0.44169 0.67359 0.37158 0.71714 0.81659
   3  -2   4   58.42    1.52   1-0.23526 0.02800 0.23303 0.53519 0.94358 0.84426
   3  -2   4   55.09    1.50   1-0.78905-0.52528 0.22076 0.52287-0.57328-0.67132
  -3   2  -4   57.42    1.54   1-0.60339-0.86704 0.66612 0.36423-0.43839-0.33995
  -3   2  -5   56.78    1.53   1-0.19365-0.44966 0.59935 0.23499 0.77670 0.86172
   3  -2   5   58.66    1.53   1-0.24041 0.01599 0.11140 0.47589 0.96425 0.87935
   3  -2   5   54.08    1.51   1-0.79999-0.54291 0.14895 0.51333-0.58122-0.66462
  -3   2  -5   59.00    1.60   1-0.63270-0.88970 0.62320 0.25901-0.45968-0.37595
  -3   2  -6   45.47    1.15   1-0.20284-0.45197 0.54493 0.11824 0.81357 0.88415
   3  -2   6   46.67    1.16   1-0.24190 0.00799 0.01076 0.43740 0.97024 0.89922
   3  -2   6   43.48    1.26   1-0.80599-0.55562 0.08629 0.51295-0.58559-0.65433
  -3   2  -6   46.82    1.20   1-0.64903-0.89938 0.59699 0.17051-0.47154-0.40253
  -3   2  -7   51.15    1.71   1-0.20848-0.45120 0.50729 0.01814 0.83617 0.89223
   3  -2   7   53.19    1.68   1-0.24121 0.00187-0.07615 0.41283 0.96747 0.91080
   3  -2   7   48.14    1.57   1-0.80865-0.56498 0.02983 0.51875-0.58752-0.64162
  -3   2  -7   48.61    2.02   1-0.65737-0.90108 0.58287 0.09410-0.47761-0.42331
  -3   2  -8   36.19    1.27   1-0.21189-0.44776 0.48256-0.06892 0.84984 0.89149
   3  -2   8   37.27    1.24   1-0.23911-0.00282-0.15181 0.39953 0.95904 0.91671
   3  -2   8   34.17    1.19   1-0.80881-0.57184-0.02228 0.52891-0.58763-0.62708
  -3   2  -8   32.19    1.73   1-0.66042-0.89748 0.57758 0.02651-0.47982-0.44024
  -3   2  -9   34.78    1.14   1-0.21378-0.44281 0.46804-0.14577 0.85745 0.88468
   3  -2   9   35.96    1.12   1-0.23605-0.00656-0.21893 0.39477 0.94675 0.91875
   3  -2   9   36.78    1.31   1-0.80695-0.57669-0.07126 0.54221-0.58629-0.61109
  -3   2  -9   33.86    1.43   1-0.65969-0.89011 0.57885-0.03451-0.47929-0.45443
  -3   2 -10    7.80    0.40   1-0.21461-0.43679 0.46153-0.21461 0.86077 0.87358
   3  -2  10    8.10    0.39   1-0.23228-0.00959-0.27950 0.39655 0.93162 0.91796
   3  -2  10    7.57    0.78   1-0.80337-0.57980-0.11791 0.55783-0.58368-0.59383
  -3   2 -10    8.09    0.92   1-0.65609-0.87985 0.58508-0.09057-0.47667-0.46652
  -3   2 -11   20.27    1.01   1-0.21463-0.42996 0.46134-0.27713 0.86086 0.85926
   3  -2  11   20.62    1.00   1-0.22794-0.01206-0.33495 0.40345 0.91424 0.91492
   3  -2  11   19.04    1.65   1-0.79822-0.58135-0.16279 0.57522-0.57994-0.57544
  -3   2 -11   21.55    1.50   1-0.65014-0.86726 0.59513-0.14281-0.47235-0.47692
  -3   2 -12    5.92    0.39   1-0.21401-0.42249 0.46624-0.33456 0.85837 0.84235
   3  -2  12    5.56    0.36   1-0.22313-0.01405-0.38633 0.41442 0.89495 0.90997
   3  -2  12    4.47    0.93   1-0.79160-0.58144-0.20632 0.59396-0.57513-0.55599
  -3   2 -12    5.47    1.06   1-0.64219-0.85267 0.60818-0.19206-0.46658-0.48586
  -3   2 -13    3.79    0.37   1-0.21285-0.41448 0.47527-0.38786 0.85370 0.82326
   3  -2  13    3.84    0.34   1-0.21790-0.01562-0.43441 0.42870 0.87395 0.90330
   3  -1 -13    2.17    0.46   1-0.24119 0.08117-0.07749-0.81453 0.96737 0.57441
  -3   1  13    2.03    0.45   1-0.12312-0.44377-0.86079-0.12406 0.49382 0.88750
  -3   1  13    2.26    0.48   1-0.66240-0.98322-0.57411 0.16099-0.48126-0.08567
   3  -1 -13    2.16    0.32   1-0.69296-0.37334 0.51605-0.21965-0.50347-0.90131
   3  -1 -12    8.29    0.55   1-0.23972 0.07583-0.13433-0.80901 0.96150 0.58287
  -3   1  12    8.58    0.55   1-0.12482-0.43880-0.85661-0.18220 0.50063 0.87991
  -3   1  12    9.34    0.60   1-0.67302-0.98713-0.55491 0.11792-0.48898-0.10796
   3  -1 -12    9.00    0.55   1-0.70884-0.39586 0.48198-0.19143-0.51500-0.89813
   3  -1 -11    0.44    0.28   1-0.23734 0.07142-0.19363-0.80596 0.95193 0.58763
  -3   1  11    0.46    0.27   1-0.12548-0.43278-0.85496-0.24289 0.50327 0.86815
  -3   1  11    0.76    0.30   1-0.68166-0.98905-0.53856 0.07199-0.49525-0.12880
   3  -1 -11    0.52    0.25   1-0.72344-0.41711 0.44761-0.16351-0.52561-0.89402
   3  -1 -10    5.79    0.45   1-0.23386 0.06810-0.25600-0.80598 0.93796 0.58800
  -3   1  10    5.71    0.37   1-0.12488-0.42552-0.85644-0.30671 0.50090 0.85138
  -3   1  10    5.98    0.40   1-0.68805-0.98873-0.52599 0.02230-0.49990-0.14802
   3  -1 -10    6.41    0.43   1-0.73684-0.43716 0.41286-0.13596-0.53535-0.88904
   3  -1  -9    0.55    0.24   1-0.22902 0.06613-0.32220-0.80982 0.91855 0.58293
  -3   1   9    0.51    0.33   1-0.12274-0.41670-0.86172-0.37431 0.49230 0.82839
  -3   1   9    0.36    0.25   1-0.69184-0.98580-0.51835-0.03223-0.50265-0.16476
   3  -1  -9    0.59    0.22   1-0.74912-0.45608 0.37761-0.10892-0.54426-0.88324
   3  -1  -8    1.61    0.25   1-0.22244 0.06590-0.39309-0.81836 0.89218 0.57090
  -3   1   8    1.57    0.30   1-0.11861-0.40590-0.87154-0.44647 0.47574 0.79743
  -3   1   8    1.60    0.26   1-0.69197-0.97923-0.51809-0.09424-0.50274-0.17950
   3  -1  -8    1.51    0.31   1-0.76033-0.47394 0.34166-0.08257-0.55241-0.87667
   3  -1  -7    2.91    0.27   1-0.21357 0.06797-0.46970-0.83261 0.85659 0.54965
  -3   1   7    2.97    0.27   1-0.11186-0.39247-0.88667-0.52394 0.44865 0.75594
  -3   1   7    2.92    0.28   1-0.68679-0.96731-0.52851-0.16702-0.49898-0.19082
   3  -1  -7    2.65    0.26   1-0.77055-0.49080 0.30468-0.05725-0.55983-0.86938
   3  -1  -6   17.21    0.54   1-0.20157 0.07275-0.55296-0.85358 0.80845 0.51585
  -3   1   6   17.36    0.53   1-0.10155-0.37549-0.90762-0.60722 0.40731 0.70020
  -3   1   6   18.20    0.54   1-0.67299-0.94679-0.55496-0.25574-0.48896-0.19537
   3  -1  -6   17.93    0.60   1-0.77985-0.50676 0.26605-0.03359-0.56660-0.86143
   3  -1  -5   37.95    1.23   1-0.18518 0.08241-0.64348-0.88175 0.74272 0.46444
  -3   1   5   38.88    1.13   1-0.08636-0.35363-0.93410-0.69603 0.34638 0.62488
  -3   1   5   40.42    1.17   1-0.64244-0.90953-0.60777-0.37081-0.46676-0.18774
   3  -1  -5   38.26    1.17   1-0.78924-0.52208 0.21973-0.01728-0.57341-0.85271
   3  -1  -4   55.50    1.34   1-0.16262 0.09823-0.74035-0.91627 0.65224 0.38831
  -3   1   4   56.12    1.36   1-0.06448-0.32507-0.96381-0.78808 0.25863 0.52273
  -3   1   4   57.50    1.37   1-0.57336-0.83372-0.70548-0.53080-0.41657-0.15212
   3  -1  -4   57.20    1.50   1-0.79711-0.53666 0.17088-0.00386-0.57913-0.84378
   3  -1  -3   14.92    0.55   1-0.13160 0.12252-0.83909-0.95267 0.52782 0.27821
  -3   1   3   14.58    0.51   1-0.03381-0.28773-0.99018-0.87677 0.13561 0.38531
  -3   1   3   14.87    0.52   1-0.39448-0.64812-0.87306-0.76064-0.28660-0.03672
   3  -1  -3   14.42    0.63   1-0.80459-0.55083 0.10442-0.00805-0.58457-0.83457
   3  -1  -2   59.44    1.38   1-0.08981 0.15742-0.92852-0.97959 0.36024 0.12494
  -3   1   2   59.28    1.37   1 0.00702-0.24009-0.99957-0.94840-0.02818 0.20708
   3  -1  -1  173.85    1.97   1-0.03752 0.20304-0.98789-0.97663 0.15050-0.07039
   3  -1  -1  172.45    2.57   1-0.55741-0.31720-0.72475-0.71263-0.40498-0.62572
   3  -1   0  132.66    1.61   1-0.11013 0.12342 0.89035 0.96411 0.44173 0.23502
   3  -1   0  128.64    1.65   1 0.02058 0.25438-0.99637-0.92290-0.08257-0.28902
   3  -1   0  137.46    1.84   1-0.79300-0.55978 0.19799 0.27211-0.57614-0.78268
  -3   1   0  131.23    1.61   1-0.23223-0.46552 0.95791 0.88422-0.16872 0.03786
   3  -1   1   71.61    1.11   1-0.15721 0.06946 0.76005 0.89614 0.63055 0.43828
   3  -1   1   71.89    1.13   1 0.07571 0.30284-0.94976-0.81397-0.30366-0.49570
  -3   1  -1   69.58    1.07   1-0.54466-0.77123 0.73942 0.60300-0.39572-0.20390
  -3   1  -2   69.65    1.53   1-0.12047-0.34028 0.86717 0.66874 0.48321 0.66105
   3  -1   2   71.69    1.53   1-0.19261 0.02719 0.60507 0.80350 0.77252 0.59467
   3  -1   2   65.02    1.60   1-0.80688-0.58662 0.07260 0.27149-0.58623-0.76299
  -3   1  -2   71.70    1.56   1-0.64854-0.86846 0.59780 0.39909-0.47119-0.29408
  -3   1  -3   48.46    1.14   1-0.15249-0.36541 0.77630 0.51553 0.61163 0.77504
   3  -1   3   49.25    1.14   1-0.21604-0.00275 0.44998 0.71093 0.86650 0.70325
   3  -1   3   45.26    1.14   1-0.80869-0.59513 0.02835 0.28951-0.58754-0.74965
  -3   1  -3   49.82    1.21   1-0.69084-0.90412 0.52039 0.25939-0.50192-0.33953
  -3   1  -4  100.93    2.06   1-0.17406-0.38010 0.69448 0.37138 0.69813 0.84711
   3  -1   4  108.02    2.16   1-0.23001-0.02357 0.30981 0.63309 0.92255 0.77371
   3  -1   4   96.96    2.15   1-0.80895-0.60210-0.01208 0.31135-0.58774-0.73520
  -3   1  -4  102.11    2.15   1-0.70992-0.91655 0.47955 0.15625-0.51578-0.36811
  -3   1  -5    2.75    0.24   1-0.18819-0.38734 0.62836 0.24293 0.75481 0.88935
   3  -1   5    2.97    0.27   1-0.23763-0.03803 0.18735 0.57297 0.95311 0.81869
   3  -1   5    3.13    0.30   1-0.80798-0.60783-0.05051 0.33519-0.58703-0.71984
  -3   1  -5    2.74    0.28   1-0.71827-0.91825 0.46016 0.07457-0.52185-0.38889
  -3   1  -6    3.92    0.32   1-0.19735-0.38963 0.57833 0.13057 0.79156 0.91166
   3  -1   6    4.00    0.31   1-0.24112-0.04836 0.08131 0.52926 0.96708 0.84707
  -3   1  -6    3.43    0.31   1-0.72076-0.91410 0.45416 0.00627-0.52366-0.40542
  -3   1  -7   13.01    0.52   1-0.20324-0.38863 0.54241 0.03231 0.81515 0.92082
   3  -1   7   13.60    0.50   1-0.24191-0.05561-0.00968 0.50034 0.97025 0.86403
   3  -1   7   13.71    0.53   1-0.80273-0.61599-0.12432 0.38592-0.58322-0.68674
  -3   1  -7   12.66    0.52   1-0.71959-0.90629 0.45699-0.05319-0.52281-0.41929
  -3   1  -8    0.01    0.20   1-0.20691-0.38542 0.51811-0.05431 0.82990 0.92113
   3  -1   8   -0.12    0.27   1-0.24091-0.06142-0.09106 0.48132 0.96626 0.87438
  -3   1  -9    0.07    0.31   1-0.20902-0.38123 0.50349-0.13144 0.83833 0.91508
   3  -1   9    0.17    0.30   1-0.23865-0.06596-0.16374 0.47100 0.95719 0.87966
  -3   1 -10    6.17    0.44   1-0.21004-0.37540 0.49615-0.20111 0.84244 0.90477
   3  -1  10    6.75    0.37   1-0.23546-0.06958-0.22949 0.46760 0.94439 0.88119
   3  -1  10    5.93    0.81   1-0.78699-0.62035-0.23172 0.46535-0.57178-0.63135
  -3   1 -10    5.51    1.24   1-0.70266-0.86941 0.49561-0.20145-0.51051-0.45113
  -3   1 -11    2.91    0.41   1-0.21021-0.36873 0.49490-0.26469 0.84313 0.89105
   3  -1  11    3.17    0.32   1-0.23154-0.07246-0.28970 0.46974 0.92868 0.87982
  -3   1 -12    1.27    0.41   1-0.20970-0.36136 0.49862-0.32331 0.84107 0.87457
   3  -1  12    1.32    0.39   1-0.22703-0.07475-0.34541 0.47639 0.91057 0.87604
   3  -1  12    1.07    0.54   1-0.77112-0.61787-0.30247 0.51914-0.56025-0.59052
  -3   1 -13   10.18    0.61   1-0.20860-0.35342 0.50641-0.37785 0.83667 0.85575
   3  -1  13   10.88    0.52   1-0.22199-0.07652-0.39742 0.48673 0.89037 0.87019
   3  -1  13   10.12    0.64   1-0.76147-0.61492-0.33776 0.54612-0.55324-0.56886
  -3   1 -13   10.82    0.61   1-0.67165-0.81847 0.55744-0.32650-0.48798-0.47275
   3   0 -13    6.17    0.42   1-0.23958 0.02598-0.13874-0.85474 0.96091 0.51840
  -3   0  13    6.55    0.42   1-0.11657-0.38048-0.87623-0.16048 0.46757 0.91075
  -3   0  13    6.52    0.89   1-0.70732-0.97116-0.48538 0.22849-0.51390-0.06799
   3   0 -13    7.04    1.01   1-0.64623-0.38362 0.60161-0.11269-0.46951-0.91658
   3   0 -12   11.48    0.66   1-0.23710 0.02165-0.19852-0.85217 0.95098 0.52281
  -3   0  12   11.63    0.64   1-0.11761-0.37483-0.87387-0.22046 0.47171 0.90049
  -3   0  12   12.62    1.09   1-0.71950-0.97664-0.45721 0.19439-0.52275-0.09149
   3   0 -12   12.15    1.31   1-0.65992-0.40395 0.57846-0.07354-0.47946-0.91181
   3   0 -11    6.85    0.49   1-0.23354 0.01842-0.26093-0.85222 0.93668 0.52284
  -3   0  11    7.25    0.41   1-0.11750-0.36806-0.87411-0.28303 0.47128 0.88567
  -3   0  11    7.76    0.84   1-0.73024-0.98069-0.43040 0.15893-0.53055-0.11394
   3   0 -11    7.36    0.48   1-0.67184-0.42252 0.55709-0.03261-0.48812-0.90576
   3   0 -10   36.38    1.33   1-0.22866 0.01649-0.32651-0.85545 0.91711 0.51762
  -3   0  10   37.33    1.27   1-0.11603-0.35991-0.87747-0.34873 0.46537 0.86536
  -3   0  10   40.79    1.60   1-0.73955-0.98329-0.40539 0.12167-0.53731-0.13536
   3   0 -10   39.22    1.32   1-0.68186-0.43919 0.53817 0.01075-0.49540-0.89832
   3   0  -9   28.62    1.00   1-0.22215 0.01619-0.39587-0.86245 0.89102 0.50586
  -3   0   9   28.98    0.96   1-0.11285-0.35006-0.88451-0.41810 0.45264 0.83823
  -3   0   9   30.19    1.02   1-0.74736-0.98440-0.38288 0.08190-0.54299-0.15568
   3   0  -9   29.49    0.97   1-0.68970-0.45367 0.52269 0.05757-0.50109-0.88930
   3   0  -8   41.39    1.35   1-0.21358 0.01796-0.46965-0.87388 0.85662 0.48580
  -3   0   8   43.42    1.35   1-0.10752-0.33806-0.89579-0.49171 0.43126 0.80245
  -3   0   8   41.48    1.33   1-0.75351-0.98385-0.36401 0.03850-0.54745-0.17479
   3   0  -8   40.42    1.27   1-0.69480-0.46542 0.51227 0.10944-0.50480-0.87829
   3   0  -7   38.15    1.30   1-0.20232 0.02194-0.54822-0.89020 0.81148 0.45502
  -3   0   7   36.93    1.25   1-0.09938-0.32324-0.91171-0.56997 0.39861 0.75541
  -3   0   7   36.14    1.27   1-0.75761-0.98125-0.35075-0.01051-0.55044-0.19242
   3   0  -7   36.92    1.28   1-0.69606-0.47333 0.50964 0.16911-0.50572-0.86449
   3   0  -6   65.43    1.55   1-0.18747 0.03007-0.63206-0.91169 0.75190 0.40977
   3   0  -6   65.58    1.51   1-0.69107-0.47498 0.51992 0.24168-0.50209-0.84615
   3   0  -5   63.74    1.73   1-0.16783 0.04297-0.72020-0.93748 0.67315 0.34536
  -3   0   5   64.59    1.69   1-0.07081-0.28132-0.95620-0.73912 0.28400 0.61200
  -3   0   5   62.33    1.71   1-0.75453-0.96476-0.36077-0.14507-0.54820-0.21948
   3   0  -5   63.78    1.68   1-0.67363-0.46419 0.55378 0.33783-0.48942-0.81876
   3   0  -4   25.35    0.74   1-0.14194 0.06213-0.80979-0.96472 0.56928 0.25583
  -3   0   4   25.41    0.72   1-0.04774-0.25158-0.98033-0.82558 0.19148 0.50508
  -3   0   4   26.13    0.78   1-0.73608-0.93962-0.41492-0.26150-0.53479-0.22073
   3   0  -4   25.30    0.72   1-0.62334-0.42054 0.63745 0.48380-0.45288-0.76751
   3   0  -3  139.81    2.76   1-0.10816 0.08900-0.89447-0.98689 0.43383 0.13463
  -3   0   3  143.09    2.82   1-0.01697-0.21414-0.99753-0.90512 0.06808 0.36728
  -3   0   3  155.16    3.04   1-0.64518-0.84201-0.60333-0.51218-0.46875-0.16933
   3   0  -3  148.02    3.05   1-0.42908-0.23303 0.84776 0.75597-0.31174-0.61171
   3   0  -2    0.75    0.17   1-0.06609 0.12440-0.96195-0.99203 0.26508-0.01971
  -3   0   2    0.64    0.20   1 0.02180-0.16855-0.99592-0.96573-0.08746 0.19734
   3   0  -1   25.27    0.72   1-0.01719 0.16663-0.99747-0.96521 0.06894-0.20145
  -3   0   1   25.24    0.72   1 0.06688-0.11682-0.96102-0.99315-0.26824 0.00215
   3   0   0   19.27    0.59   1-0.11349 0.06321 0.88311 0.97796 0.45521 0.19898
   3   0   0   18.73    0.61   1 0.03374 0.21078-0.99022-0.89577-0.13535-0.39135
   3   0   0   19.43    0.60   1-0.64007-0.46334-0.61159-0.51591-0.46504-0.72051
  -3   0   0   18.12    0.57   1-0.70917-0.88537 0.48124 0.38572-0.51524-0.25947
   3   0   1    5.63    0.31   1-0.15502 0.01480 0.76769 0.92487 0.62177 0.37998
   3   0   1    5.77    0.30   1-0.74915-0.57911-0.37751-0.21957-0.54429-0.78511
  -3   0  -1    5.72    0.34   1-0.76451-0.93407 0.32707 0.16925-0.55545-0.31440
  -3   0  -2    0.27    0.18   1-0.11900-0.28194 0.87065 0.65114 0.47728 0.70463
   3   0   2    0.26    0.13   1-0.18768-0.02473 0.63099 0.85050 0.75274 0.52538
   3   0   2    0.25    0.13   1-0.77416-0.61083-0.29032-0.07011-0.56246-0.78864
  -3   0  -2    0.22    0.15   1-0.77634-0.93925 0.28131 0.06119-0.56404-0.33771
  -3   0  -3   14.73    0.49   1-0.14742-0.30348 0.79287 0.51103 0.59127 0.80420
   3   0   3   15.06    0.51   1-0.21085-0.05437 0.49022 0.77229 0.84570 0.63292
   3   0   3   14.66    0.55   1-0.78212-0.62549-0.25570 0.02678-0.56824-0.77977
  -3   0  -3   13.48    0.58   1-0.77881-0.93508 0.27066-0.01175-0.56584-0.35422
  -3   0  -4   27.94    0.79   1-0.16747-0.31665 0.72162 0.37744 0.67171 0.87020
   3   0   4   28.39    0.79   1-0.22587-0.07624 0.35809 0.70249 0.90595 0.70759
   3   0   4   26.12    0.82   1-0.78425-0.63432-0.24552 0.09923-0.56979-0.76667
  -3   0  -4   25.95    0.84   1-0.77762-0.92724 0.27586-0.06884-0.56497-0.36807
  -3   0  -5    8.46    0.39   1-0.18123-0.32353 0.66238 0.25587 0.72690 0.91096
   3   0   5    8.90    0.39   1-0.23493-0.09215 0.23858 0.64532 0.94227 0.75833
   3   0   5    8.61    0.46   1-0.78360-0.64037-0.24866 0.15837-0.56932-0.75155
  -3   0  -5    8.90    0.45   1-0.77435-0.91732 0.28956-0.11743-0.56260-0.38041
  -3   0  -6   37.54    0.99   1-0.19054-0.32595 0.61617 0.14732 0.76421 0.93383
   3   0   6   39.64    0.99   1-0.23979-0.10386 0.13222 0.60129 0.96177 0.79224
   3   0   6   38.24    1.03   1-0.78122-0.64469-0.25984 0.20946-0.56759-0.73517
  -3   0  -6   39.25    1.08   1-0.76959-0.90592 0.30835-0.16094-0.55914-0.39167
  -3   0  -7   31.74    1.11   1-0.19673-0.32527 0.58194 0.05076 0.78907 0.94425
   3   0   7   33.75    1.07   1-0.24175-0.11266 0.03772 0.56912 0.96960 0.81449
   3   0   7   31.54    1.05   1-0.77753-0.64770-0.27627 0.25531-0.56490-0.71784
  -3   0  -7   33.70    1.15   1-0.76357-0.89325 0.33041-0.20117-0.55477-0.40201
  -3   0  -8   27.07    1.01   1-0.20075-0.32240 0.55801-0.03550 0.80518 0.94593
   3   0   8   28.77    1.01   1-0.24167-0.11898-0.04529 0.54813 0.96929 0.82788
   3   0   8   27.99    0.99   1-0.77268-0.64955-0.29631 0.29754-0.56138-0.69967
  -3   0  -8   29.14    1.04   1-0.75641-0.87945 0.35469-0.23919-0.54956-0.41152
  -3   0  -9   32.65    1.16   1-0.20320-0.31797 0.54266-0.11318 0.81500 0.94132
   3   0   9   34.81    1.16   1-0.24013-0.12424-0.12137 0.53441 0.96312 0.83604
   3   0   9   34.04    1.15   1-0.76675-0.65033-0.31896 0.33717-0.55708-0.68072
  -3   0  -9   35.83    1.22   1-0.74814-0.86453 0.38054-0.27564-0.54356-0.42023
  -3   0 -10   19.73    0.89   1-0.20448-0.31236 0.53439-0.18379 0.82012 0.93201
   3   0  10   20.30    0.85   1-0.23748-0.12840-0.19059 0.52754 0.95250 0.83976
   3   0  10   19.80    0.87   1-0.75977-0.65005-0.34355 0.37485-0.55200-0.66099
  -3   0 -10   20.83    0.88   1-0.73878-0.84852 0.40753-0.31094-0.53675-0.42815
  -3   0 -11   16.23    0.80   1-0.20485-0.30585 0.53196-0.24855 0.82161 0.91906
   3   0  11   17.87    0.85   1-0.23397-0.13169-0.25417 0.52631 0.93842 0.84002
   3   0  11   17.17    0.79   1-0.75172-0.64869-0.36963 0.41104-0.54615-0.64049
  -3   0 -11   18.48    0.85   1-0.72831-0.83141 0.43537-0.34540-0.52915-0.43526
  -3   0 -12    6.86    0.41   1-0.20448-0.29860 0.53438-0.30847 0.82013 0.90315
   3   0  12    7.23    0.40   1-0.22975-0.13428-0.31308 0.52976 0.92151 0.83744
   3   0  12    7.06    0.39   1-0.74256-0.64624-0.39689 0.44605-0.53950-0.61919
  -3   0 -12    7.49    0.42   1-0.71671-0.81316 0.46385-0.37921-0.52072-0.44154
  -3   0 -13   10.63    0.58   1-0.20348-0.29072 0.54084-0.36434 0.81613 0.88472
   3   0  13   10.56    0.55   1-0.22493-0.13626-0.36810 0.53710 0.90216 0.83243
   3   0  13   10.30    0.60   1-0.73227-0.64265-0.42511 0.48010-0.53202-0.59707
  -3   0 -13   11.58    0.67   1-0.70394-0.79374 0.49283-0.41252-0.51144-0.44698
   3   1 -13   21.23    1.13   1-0.23740-0.02863-0.19244-0.88739 0.95215 0.46011
  -3  -1  13   22.05    1.11   1-0.10847-0.31562-0.89383-0.19907 0.43507 0.92776
  -3  -1  13   23.48    0.88   1-0.74502-0.95195-0.38977 0.30277-0.54129-0.04597
   3   1 -13   23.59    0.89   1-0.58840-0.38281 0.68630-0.00658-0.42750-0.92380
   3   1 -12   18.22    0.97   1-0.23396-0.03199-0.25439-0.88699 0.93837 0.46066
  -3  -1  12   16.56    0.82   1-0.10876-0.30924-0.89323-0.26081 0.43623 0.91451
  -3  -1  12   19.50    1.51   1-0.75749-0.95771-0.35114 0.27913-0.55035-0.06968
   3   1 -12   18.90    1.29   1-0.59788-0.39893 0.67368 0.04308-0.43438-0.91596
   3   1 -11    6.19    0.39   1-0.22928-0.03412-0.31895-0.88919 0.91961 0.45624
  -3  -1  11    6.10    0.39   1-0.10780-0.30161-0.89521-0.32512 0.43239 0.89628
  -3  -1  11    6.28    0.78   1-0.76867-0.96219-0.31182 0.25617-0.55847-0.09245
   3   1 -11    6.09    0.67   1-0.60443-0.41212 0.66469 0.09638-0.43914-0.90601
   3   1 -10   18.47    0.79   1-0.22311-0.03476-0.38654-0.89443 0.89487 0.44584
  -3  -1  10   19.18    0.77   1-0.10535-0.29248-0.90019-0.39244 0.42254 0.87203
  -3  -1  10   19.09    2.40   1-0.77862-0.96544-0.27152 0.23420-0.56570-0.11432
   3   1 -10   18.61    1.85   1-0.60739-0.42173 0.66055 0.15454-0.44129-0.89345
   3   1  -9    0.22    0.22   1-0.21510-0.03355-0.45758-0.90312 0.86275 0.42805
  -3  -1   9    0.03    0.31   1-0.10104-0.28150-0.90858-0.46316 0.40528 0.84037
  -3  -1   9    0.48    0.24   1-0.78736-0.96748-0.22978 0.21367-0.57205-0.13532
   3   1  -8   19.45    0.60   1-0.20482-0.03059-0.53214-0.91548 0.82150 0.40119
  -3  -1   8   19.43    0.55   1-0.09442-0.26820-0.92068-0.53759 0.37871 0.79940
  -3  -1   8   21.20    1.70   1-0.79492-0.96833-0.18586 0.19532-0.57754-0.15546
   3   1  -8   19.99    0.56   1-0.59702-0.42466 0.67483 0.29341-0.43376-0.85648
   3   1  -7    5.28    0.33   1-0.19155-0.02406-0.61075-0.93174 0.76829 0.36232
  -3  -1   7    5.19    0.37   1-0.08484-0.25195-0.93648-0.61572 0.34029 0.74659
  -3  -1   7    5.92    0.38   1-0.80122-0.96794-0.13844 0.18046-0.58212-0.17469
   3   1  -7    5.29    0.35   1-0.57771-0.41200 0.70004 0.38092-0.41973-0.82774
   3   1  -6    1.80    0.23   1-0.17451-0.01375-0.69255-0.95119 0.69993 0.30829
  -3  -1   6    1.83    0.22   1-0.07148-0.23192-0.95534-0.69692 0.28671 0.67860
  -3  -1   6    2.03    0.31   1-0.80608-0.96610-0.08504 0.17159-0.58565-0.19287
   3   1  -6    1.88    0.20   1-0.53968-0.38061 0.74497 0.48814-0.39210-0.78539
   3   1  -5    3.38    0.28   1-0.15267 0.00135-0.77569-0.97198 0.61236 0.23505
  -3  -1   5    3.36    0.27   1-0.05334-0.20710-0.97539-0.77930 0.21393 0.59143
  -3  -1   5    3.38    0.30   1-0.80885-0.96216-0.02020 0.17415-0.58766-0.20953
   3   1  -5    3.41    0.27   1-0.46490-0.31248 0.81839 0.62386-0.33777-0.71634
   3   1  -4   22.06    0.70   1-0.12488 0.02220-0.85645-0.99021 0.50088 0.13778
  -3  -1   4   21.34    0.69   1-0.02936-0.17645-0.99260-0.85885 0.11777 0.48087
  -3  -1   4   20.90    0.77   1-0.80702-0.95363 0.07017 0.20227-0.58633-0.22284
   3   1  -4   20.50    0.74   1-0.31055-0.16489 0.92338 0.79070-0.22562-0.58956
   3   1  -3   48.61    1.18   1-0.09059 0.04981-0.92722-0.99865 0.36337 0.01467
  -3  -1   3   47.46    1.23   1 0.00109-0.13918-0.99998-0.92845-0.00437 0.34439
  -3  -1   3   50.25    1.25   1-0.78517-0.92430 0.24097 0.31091-0.57046-0.22132
   3   1  -3   49.65    1.36   1 0.02419 0.16328 0.99955 0.92916 0.01758-0.33165
   3   1  -2   48.44    1.18   1-0.05002 0.08372-0.97839-0.98748 0.20061-0.13368
  -3  -1   2   47.50    1.17   1 0.03781-0.09579-0.98770-0.97849-0.15166 0.18269
  -3  -1   2   52.00    1.26   1-0.53628-0.66932-0.74872-0.74090-0.38963-0.05541
  -3  -1   1   10.81    0.43   1 0.07862-0.04832-0.94571-0.99882-0.31534 0.00460
  -3  -1   1   11.08    0.44   1-0.75659-0.88310-0.35411-0.40884-0.54969-0.23015
  -3  -1   1   10.23    0.43   1-0.06109-0.18704 0.99714 0.94294-0.04438 0.27543
   3   1   0   64.88    1.50   1-0.11985 0.00000 0.86865 0.98457 0.48070 0.17496
   3   1   0   62.62    2.29   1 0.03960 0.15988-0.98650-0.87108-0.15884-0.46438
   3   1   0   65.06    1.59   1-0.40072-0.28112-0.86870-0.75199-0.29114-0.59622
  -3  -1   0   65.13    1.53   1-0.79649-0.91630-0.17527-0.29227-0.57868-0.27379
   3   1   1  124.90    2.52   1-0.15655-0.04358 0.76238 0.94064 0.62790 0.33659
   3   1   1  124.22    2.49   1-0.58985-0.47697-0.68440-0.50541-0.42855-0.71906
  -3  -1  -1  119.48    2.50   1-0.80645-0.91956-0.07951-0.25878-0.58592-0.29568
  -3  -1  -2  114.42    2.29   1-0.11435-0.22044 0.88123 0.64064 0.45863 0.73551
   3   1   2  116.62    2.35   1-0.18618-0.08010 0.63849 0.87908 0.74676 0.46989
   3   1   2  112.68    2.30   1-0.66854-0.56237-0.56313-0.32188-0.48572-0.76165
  -3  -1  -2  109.95    2.39   1-0.80895-0.91536-0.01278-0.25432-0.58773-0.31214
  -3  -1  -3   56.20    1.53   1-0.14027-0.23947 0.81474 0.51181 0.56259 0.82504
   3   1   3   57.75    1.55   1-0.20818-0.10852 0.50935 0.81255 0.83499 0.57269
   3   1   3   56.19    1.53   1-0.70565-0.60594-0.48908-0.18526-0.51268-0.77363
  -3  -1  -3   52.73    1.54   1-0.80833-0.90803 0.04120-0.26261-0.58728-0.32633
  -3  -1  -4   57.50    1.53   1-0.15930-0.25162 0.75258 0.38732 0.63893 0.88693
   3   1   4   58.23    1.52   1-0.22324-0.13042 0.38528 0.75081 0.89538 0.64750
   3   1   4   56.52    1.52   1-0.72347-0.63046-0.44754-0.08145-0.52563-0.77193
  -3  -1  -4   57.40    1.66   1-0.80583-0.89884 0.08854-0.27754-0.58547-0.33917
  -3  -1  -5   36.60    1.00   1-0.17289-0.25833 0.69946 0.27187 0.69343 0.92701
   3   1   5   37.90    0.98   1-0.23291-0.14694 0.27027 0.69814 0.93418 0.70071
   3   1   5   36.14    0.99   1-0.73207-0.64576-0.42564 0.00272-0.53188-0.76353
  -3  -1  -5   38.42    1.08   1-0.80193-0.88824 0.13200-0.29635-0.58264-0.35099
  -3  -1  -6   34.74    1.17   1-0.18242-0.26098 0.65679 0.16686 0.73167 0.95081
   3   1   6   36.10    1.22   1-0.23857-0.15945 0.16567 0.65587 0.95688 0.73783
   3   1   6   33.12    1.16   1-0.73540-0.65580-0.41675 0.07388-0.53430-0.75130
  -3  -1  -6   38.45    1.35   1-0.79681-0.87642 0.17300-0.31763-0.57892-0.36192
  -3  -1  -7   10.25    0.42   1-0.18899-0.26067 0.62422 0.07196 0.75803 0.96274
   3   1   7   10.52    0.40   1-0.24130-0.16903 0.07112 0.62365 0.96783 0.76320
   3   1   7    9.19    0.47   1-0.73537-0.66246-0.41685 0.13605-0.53428-0.73663
  -3  -1  -7   10.36    0.46   1-0.79057-0.86347 0.21232-0.34058-0.57438-0.37203
  -3  -1  -8    4.94    0.33   1-0.19340-0.25820 0.60070-0.01388 0.77572 0.96599
   3   1   8    5.48    0.33   1-0.24190-0.17601-0.01299 0.60147 0.97021 0.77925
   3   1   8    4.72    0.41   1-0.73292-0.66672-0.42339 0.19179-0.53250-0.72020
  -3  -1  -8    5.76    0.46   1-0.78321-0.84923 0.25053-0.36476-0.56903-0.38177
  -3  -1  -9    6.81    0.38   1-0.19621-0.25412 0.58498-0.09195 0.78695 0.96279
   3   1   9    7.74    0.44   1-0.24092-0.18183-0.09085 0.58597 0.96628 0.78966
   3   1   9    7.18    0.39   1-0.72859-0.66908-0.43467 0.24278-0.52935-0.70240
  -3  -1  -9    7.49    0.40   1-0.77476-0.83413 0.28791-0.38968-0.56289-0.39034
  -3  -1 -10    1.27    0.38   1-0.19778-0.24881 0.57585-0.16340 0.79326 0.95466
   3   1  10    1.06    0.32   1-0.23872-0.18643-0.16216 0.57701 0.95745 0.79517
   3   1  10    0.86    0.27   1-0.72265-0.66985-0.44955 0.29017-0.52503-0.68344
  -3  -1 -10    1.09    0.29   1-0.76521-0.81794 0.32458-0.41529-0.55596-0.39812
  -3  -1 -11    0.24    0.39   1-0.19838-0.24253 0.57229-0.22930 0.79568 0.94265
   3   1  11   -0.01    0.26   1-0.23555-0.19007-0.22797 0.57356 0.94474 0.79680
   3   1  11   -0.05    0.26   1-0.71527-0.66917-0.46724 0.33475-0.51967-0.66343
  -3  -1 -11   -0.10    0.27   1-0.75454-0.80063 0.36071-0.44146-0.54821-0.40509
  -3  -1 -12    2.09    0.45   1-0.19819-0.23546 0.57343-0.29050 0.79491 0.92745
   3   1  12    2.97    0.33   1-0.23159-0.19291-0.28912 0.57476 0.92885 0.79525
   3   1  12    2.91    0.33   1-0.70652-0.66712-0.48715 0.37712-0.51332-0.64243
  -3  -1 -12    2.78    0.34   1-0.74274-0.78217 0.39640-0.46807-0.53963-0.41122
   3   2 -13    0.59    0.31   1-0.23493-0.08297-0.23852-0.91244 0.94228 0.40070
  -3  -2  13    0.51    0.30   1-0.09880-0.24920-0.91278-0.23902 0.39630 0.93848
   3   2 -12    0.12    0.28   1-0.23063-0.08546-0.30193-0.91349 0.92500 0.39776
  -3  -2  12    0.30    0.28   1-0.09828-0.24200-0.91376-0.30233 0.39418 0.92197
   3   2 -11    7.04    0.40   1-0.22496-0.08660-0.36779-0.91699 0.90228 0.38937
  -3  -2  11    7.28    0.40   1-0.09639-0.23344-0.91718-0.36809 0.38661 0.90000
   3   2 -10   16.68    0.74   1-0.21767-0.08611-0.43638-0.92323 0.87303 0.37446
  -3  -2  10   16.74    0.70   1-0.09288-0.22326-0.92336-0.43660 0.37252 0.87151
  -3  -2  10   17.69    0.74   1-0.80203-0.93192-0.13113 0.35326-0.58270-0.08191
   3   2 -10   15.34    1.52   1-0.51636-0.38771 0.76982 0.28522-0.37516-0.87654
   3   2  -9    6.34    0.43   1-0.20844-0.08426-0.50756-0.93225 0.83602 0.35186
  -3  -2   9    6.02    0.36   1-0.08737-0.21108-0.93249-0.50806 0.35046 0.83505
  -3  -2   9    6.58    0.40   1-0.80707-0.93027-0.06922 0.35291-0.58637-0.10022
   3   2  -9    6.28    0.36   1-0.50181-0.37982 0.78438 0.36207-0.36459-0.85125
   3   2  -8   77.39    2.48   1-0.19672-0.07927-0.58202-0.94436 0.78901 0.31918
  -3  -2   8   80.33    2.42   1-0.07942-0.19645-0.94457-0.58247 0.31855 0.78875
  -3  -2   8   77.21    2.42   1-0.80901-0.92551 0.00056 0.36041-0.58778-0.11628
   3   2  -8   82.63    2.48   1-0.47594-0.36059 0.80864 0.44863-0.34579-0.81774
   3   2  -7   29.84    1.07   1-0.18195-0.07124-0.65900-0.95900 0.72979 0.27430
  -3  -2   7   29.00    1.00   1-0.06842-0.17878-0.95917-0.65940 0.27442 0.73021
  -3  -2   7   28.41    1.05   1-0.80628-0.91608 0.08210 0.37969-0.58580-0.12895
   3   2  -7   29.15    1.03   1-0.43290-0.32419 0.84479 0.54707-0.31452-0.77175
   3   2  -6   43.43    1.16   1-0.16343-0.05945-0.73730-0.97494 0.65549 0.21433
  -3  -2   6   42.93    1.09   1-0.05364-0.15733-0.97510-0.73766 0.21517 0.65657
  -3  -2   6   44.93    1.21   1-0.79552-0.89861 0.18188 0.41719-0.57798-0.13578
   3   2  -6   42.32    1.13   1-0.36319-0.26135 0.89356 0.65769-0.26387-0.70648
   3   2  -5   63.88    1.59   1-0.14037-0.04312-0.81445-0.98974 0.56299 0.13617
  -3  -2   5   64.10    1.49   1-0.03433-0.13134-0.98988-0.81478 0.13769 0.56469
  -3  -2   5   64.27    1.45   1-0.76804-0.86345 0.31420 0.48732-0.55801-0.13021
   3   2  -5   66.59    1.63   1-0.25006-0.15479 0.95103 0.77745-0.18168-0.60958
   3   2  -4   78.42    2.00   1-0.11202-0.02168-0.88632-0.99909 0.44930 0.03670
  -3  -2   4   78.03    2.01   1-0.00980-0.10014-0.99917-0.88641 0.03932 0.45193
  -3  -2   4   79.85    2.01   1-0.70666-0.79542 0.48685 0.59768-0.51341-0.10033
   3   2  -4   76.39    2.16   1-0.07252 0.01617 0.99597 0.88469-0.05269-0.46589
   3   2  -3   93.13    1.96   1-0.07839 0.00527-0.94603-0.99647 0.31442-0.08377
  -3  -2   3   92.51    2.00   1 0.02005-0.06346-0.99655-0.94600-0.08041 0.31788
  -3  -2   3   89.18    1.89   1-0.57064-0.65276 0.70885 0.75738-0.41460-0.01622
   3   2  -2   29.25    0.90   1-0.04018 0.03680-0.98610-0.97420 0.16117-0.22263
  -3  -2   2   29.48    0.79   1 0.05454-0.02230-0.97425-0.98601-0.21875 0.16514
  -3  -2   2   29.52    0.75   1-0.43350-0.50959-0.84431-0.85766-0.31495 0.06871
  -3  -2   2   28.61    0.77   1-0.31654-0.39210 0.92027 0.90697-0.22998 0.15380
   3   2  -1  137.80    2.70   1-0.09187-0.02198 0.92508 0.99975 0.36847-0.00122
   3   2  -1  131.25    3.09   1 0.00039 0.07058-0.99999-0.92591-0.00158-0.37108
  -3  -2   1  141.28    2.77   1-0.61581-0.68519-0.64852-0.72413-0.44741-0.07831
   3   2   0    0.21    0.15   1-0.12815-0.06515 0.84816 0.98516 0.51399 0.15873
  -3  -2   0    0.32    0.12   1-0.71489-0.77778-0.46813-0.60646-0.51939-0.16508
   3   2   1   30.41    0.78   1-0.16062-0.10450 0.74777 0.94711 0.64422 0.30340
   3   2   1   30.55    0.81   1 0.07665 0.13351-0.94847-0.74974-0.30744-0.64811
   3   2   1   29.51    0.79   1-0.45272-0.39678-0.82876-0.62861-0.32892-0.66888
  -3  -2  -1   29.32    0.79   1-0.76372-0.81991-0.32988-0.53048-0.55488-0.21522
  -3  -2  -2   12.79    0.47   1-0.10733-0.15656 0.89619 0.63451 0.43048 0.75688
   3   2   2   13.15    0.49   1-0.18726-0.13803 0.63307 0.89474 0.75109 0.42470
   3   2   2   12.96    0.50   1-0.55186-0.50264-0.73122-0.46880-0.40095-0.72634
  -3  -2  -2   13.42    0.51   1-0.78865-0.83814-0.22295-0.48582-0.57299-0.24797
  -3  -2  -3    0.88    0.18   1-0.13141-0.17376 0.83960 0.51559 0.52706 0.83902
   3   2   3    1.14    0.18   1-0.20763-0.16478 0.51321 0.83753 0.83276 0.52094
   3   2   3    1.01    0.18   1-0.60927-0.56677-0.65790-0.33321-0.44266-0.75348
  -3  -2  -3    1.15    0.21   1-0.80141-0.84419-0.13680-0.46195-0.58225-0.27189
  -3  -2  -4    1.26    0.20   1-0.14971-0.18517 0.78552 0.39918 0.60045 0.89797
   3   2   4    1.51    0.19   1-0.22209-0.18609 0.39646 0.78311 0.89077 0.59337
   3   2   4    1.54    0.21   1-0.64307-0.60728-0.60676-0.21980-0.46721-0.76346
  -3  -2  -4    1.32    0.24   1-0.80734-0.84343-0.06427-0.45169-0.58657-0.29085
  -3  -2  -5    5.98    0.32   1-0.16323-0.19182 0.73804 0.28936 0.65470 0.93779
   3   2   5    6.27    0.32   1-0.23179-0.20263 0.28637 0.73536 0.92965 0.64666
   3   2   5    6.28    0.40   1-0.66302-0.63395-0.57301-0.12378-0.48171-0.76339
  -3  -2  -5    5.57    0.44   1-0.80901-0.83840-0.00086-0.45056-0.58778-0.30671
  -3  -2  -6   11.49    0.46   1-0.17304-0.19474 0.69882 0.18781 0.69404 0.96270
   3   2   6   11.45    0.44   1-0.23776-0.21545 0.18458 0.69590 0.95362 0.68505
   3   2   6   11.34    0.45   1-0.67438-0.65204-0.55238-0.04088-0.48997-0.75708
  -3  -2  -6   10.72    0.49   1-0.80773-0.83042 0.05620-0.45576-0.58685-0.32043
  -3  -2  -7    4.31    0.31   1-0.18002-0.19484 0.66803 0.09468 0.72203 0.97625
   3   2   7    4.17    0.34   1-0.24091-0.22545 0.09125 0.66490 0.96624 0.71209
   3   2   7    4.03    0.33   1-0.68007-0.66444-0.54162 0.03214-0.49410-0.74664
  -3  -2  -7    4.26    0.36   1-0.80422-0.82020 0.10874-0.46549-0.58429-0.33252
  -3  -2  -8   17.41    0.74   1-0.18485-0.19279 0.64509 0.00941 0.74140 0.98119
   3   2   8   17.77    0.72   1-0.24191-0.23282 0.00730 0.64282 0.97026 0.72977
   3   2   8   16.45    0.69   1-0.68176-0.67285-0.53836 0.09766-0.49533-0.73329
  -3  -2  -8   17.77    0.75   1-0.79886-0.80814 0.15792-0.47859-0.58040-0.34328
  -3  -2  -9   13.43    0.66   1-0.18804-0.18909 0.62915-0.06885 0.75418 0.97954
   3   2   9   14.56    0.66   1-0.24130-0.23902-0.07114 0.62672 0.96783 0.74167
   3   2   9   13.47    0.66   1-0.68044-0.67825-0.54090 0.15739-0.49437-0.71776
  -3  -2  -9   13.92    0.68   1-0.79190-0.79449 0.20456-0.49422-0.57535-0.35288
  -3  -2 -10   11.09    0.60   1-0.18994-0.18411 0.61932-0.14102 0.76181 0.97273
   3   2  10   11.83    0.61   1-0.23941-0.24394-0.14350 0.61671 0.96025 0.74843
   3   2  10   11.74    0.63   1-0.67673-0.68125-0.54798 0.21258-0.49167-0.70049
  -3  -2 -10   12.23    0.71   1-0.78341-0.77912 0.24959-0.51169-0.56918-0.36211
  -3  -2 -11   15.95    0.77   1-0.19081-0.17810 0.61473-0.20794 0.76530 0.96178
   3   2  11   16.68    0.77   1-0.23649-0.24782-0.21060 0.61197 0.94853 0.75105
   3   2  11   16.81    0.79   1-0.67098-0.68222-0.55868 0.26416-0.48749-0.68175
  -3  -2 -11   17.08    0.79   1-0.77356-0.76262 0.29279-0.53079-0.56202-0.36967
  -3  -2 -12    8.45    0.50   1-0.19082-0.17123 0.61466-0.27035 0.76536 0.94741
   3   2  12    8.21    0.47   1-0.23271-0.25084-0.27319 0.61173 0.93338 0.75023
   3   2  12    8.79    0.58   1-0.66343-0.68139-0.57229 0.31282-0.48201-0.66169
  -3  -2 -12    8.56    0.58   1-0.76234-0.74476 0.33473-0.55114-0.55387-0.37624
   3   3 -13   19.86    0.84   1-0.23245-0.13728-0.27704-0.92991 0.93231 0.34119
  -3  -3  13   19.00    0.75   1-0.08757-0.18121-0.93218-0.27941 0.35122 0.94291
  -3  -3  13   20.99    0.59   1-0.79438-0.88746-0.18933 0.46056-0.57715 0.01700
   3   3 -13   21.86    0.63   1-0.44384-0.35227 0.83607 0.18599-0.32247-0.91722
   3   3 -12   16.66    0.97   1-0.22739-0.13903-0.34129-0.93181 0.91203 0.33524
  -3  -3  12   16.66    0.86   1-0.08616-0.17313-0.93442-0.34398 0.34558 0.92287
  -3  -3  12   18.12    0.92   1-0.80225-0.88863-0.12901 0.45860-0.58287-0.00336
   3   3 -12   18.32    0.92   1-0.44075-0.35583 0.83855 0.25077-0.32023-0.90027
   3   3 -11   37.32    1.70   1-0.22089-0.13934-0.40773-0.93590 0.88597 0.32352
  -3  -3  11   37.35    1.68   1-0.08328-0.16359-0.93886-0.41075 0.33405 0.89694
  -3  -3  11   39.34    0.96   1-0.80735-0.88702-0.06414 0.46120-0.58657-0.02171
   3   3 -11   39.54    0.82   1-0.43166-0.35338 0.84576 0.32027-0.31361-0.87894
   3   3 -10   28.07    1.17   1-0.21268-0.13793-0.47651-0.94233 0.85304 0.30493
  -3  -3  10   28.35    1.11   1-0.07866-0.15229-0.94565-0.47987 0.31552 0.86401
  -3  -3  10   26.26    1.17   1-0.80899-0.88197 0.00671 0.46979-0.58777-0.03755
   3   3 -10   28.71    1.25   1-0.41475-0.34358 0.85859 0.39495-0.30133-0.85203
   3   3  -9   13.87    0.63   1-0.20248-0.13509-0.54720-0.95089 0.81213 0.27846
  -3  -3   9   14.36    0.62   1-0.07194-0.13890-0.95475-0.55131 0.28855 0.82265
  -3  -3   9   13.49    0.68   1-0.80605-0.87232 0.08554 0.48635-0.58563-0.05006
   3   3  -9   14.61    0.64   1-0.38778-0.32319 0.87763 0.47628-0.28174-0.81773
   3   3  -8   28.31    1.05   1-0.18973-0.12907-0.62039-0.96174 0.76099 0.24165
  -3  -3   8   29.03    1.05   1-0.06267-0.12295-0.96585-0.62474 0.25138 0.77108
  -3  -3   8   29.80    1.10   1-0.79652-0.85610 0.17503 0.51356-0.57871-0.05779
   3   3  -8   28.64    1.08   1-0.34692-0.28890 0.90338 0.56433-0.25205-0.77334
   3   3  -7    0.18    0.20   1-0.17397-0.12004-0.69487-0.97387 0.69776 0.19276
  -3  -3   7    0.14    0.20   1-0.05033-0.10394-0.97811-0.69933 0.20189 0.70719
  -3  -3   7    0.20    0.17   1-0.77631-0.82800 0.28145 0.55776-0.56402-0.05756
   3   3  -7    0.08    0.23   1-0.28691-0.23545 0.93500 0.65824-0.20845-0.71503
   3   3  -6   41.78    1.44   1-0.15462-0.10741-0.76909-0.98574 0.62014 0.12947
  -3  -3   6   40.00    1.31   1-0.03434-0.08127-0.98987-0.77343 0.13774 0.62864
  -3  -3   6   38.29    1.24   1-0.74029-0.78533 0.40334 0.61735-0.53785-0.04610
   3   3  -6   40.77    1.49   1-0.20088-0.15600 0.96868 0.75421-0.14595-0.63782
   3   3  -5   14.58    0.49   1-0.13113-0.09066-0.84034-0.99464 0.52595 0.04961
  -3  -3   5   14.68    0.48   1-0.01415-0.05442-0.99828-0.84417 0.05679 0.53329
  -3  -3   5   14.74    0.44   1-0.67774-0.71614 0.54606 0.69778-0.49241-0.01538
   3   3  -5   15.26    0.61   1-0.08183-0.04351 0.99487 0.84269-0.05945-0.53662
   3   3  -4    0.80    0.26   1-0.10311-0.06952-0.90462-0.99639 0.41354-0.04855
  -3  -3   4    0.73    0.19   1 0.01049-0.02292-0.99905-0.90715-0.04209 0.42016
  -3  -3   4    0.88    0.19   1-0.57353-0.60528 0.70527 0.79469-0.41670 0.04561
   3   3  -3    2.62    0.25   1-0.07087-0.04395-0.95612-0.98557 0.28424-0.16346
  -3  -3   3    2.49    0.36   1 0.03943 0.01268-0.98662-0.95704-0.15818 0.28966
  -3  -3   3    2.41    0.23   1-0.41520-0.44037 0.85825 0.88584-0.30166 0.14610
   3   3  -2   15.27    0.56   1-0.03531-0.01507-0.98929-0.95639 0.14162-0.29167
  -3  -3   2   15.26    0.55   1 0.07162 0.05153-0.95517-0.98791-0.28725 0.14618
  -3  -3   2   14.63    0.51   1-0.41984-0.43899-0.85480-0.88931-0.30503 0.12810
  -3  -3   2   14.41    0.57   1-0.20600-0.22460 0.96703 0.93233-0.14967 0.28338
   3   3  -1   31.47    1.46   1-0.10547-0.09244 0.89995 0.99571 0.42302 0.00380
   3   3  -1   28.59    1.75   1 0.00156 0.01499-0.99997-0.90491-0.00629-0.42532
  -3  -3   1   33.45    0.97   1-0.55720-0.56963-0.72500-0.82178-0.40483 0.01372
  -3  -3   1   30.30    0.96   1 0.01607 0.00404 0.99980 0.90280 0.01167 0.43002
   3   3   0   25.42    1.81   1-0.13770-0.13156 0.82218 0.98026 0.55231 0.14753
   3   3   0   26.34    1.54   1 0.03755 0.04432-0.98787-0.83048-0.15064-0.55526
  -3  -3   0   27.42    0.78   1-0.65340-0.65911-0.58965-0.74870-0.47472-0.07073
   3   3   1    8.33    0.38   1-0.16643-0.16717 0.72574 0.94616 0.66753 0.27718
   3   3   1    7.99    0.40   1 0.07025 0.07035-0.95689-0.73719-0.28179-0.67200
   3   3   1    8.21    0.41   1-0.34961-0.35062-0.90180-0.68048-0.25400-0.64343
  -3  -3  -1    8.30    0.37   1-0.71688-0.71614-0.46346-0.68539-0.52084-0.13176
  -3  -3  -2   41.87    1.17   1-0.09842-0.09079 0.91350 0.63075 0.39474 0.77065
   3   3   2   44.84    1.24   1-0.19022-0.19784 0.61783 0.90058 0.76295 0.38704
   3   3   2   44.51    1.26   1-0.44832-0.45605-0.83240-0.54882-0.32572-0.70057
  -3  -3  -2   44.87    1.27   1-0.75634-0.74891-0.35491-0.63911-0.54952-0.17509
  -3  -3  -3   52.03    1.25   1-0.12107-0.10657 0.86575 0.52066 0.48560 0.84708
   3   3   3   52.88    1.29   1-0.20875-0.22272 0.50537 0.85081 0.83727 0.47592
   3   3   3   51.31    1.28   1-0.51447-0.52892-0.77174-0.42589-0.37379-0.73407
  -3  -3  -3   52.89    1.29   1-0.78102-0.76689-0.26077-0.60725-0.56744-0.20766
  -3  -3  -4   57.42    1.79   1-0.13880-0.11742 0.81901 0.41159 0.55672 0.90377
   3   3   4   60.62    1.83   1-0.22224-0.24305 0.39502 0.80280 0.89138 0.54445
   3   3   4   56.89    1.75   1-0.55837-0.57954-0.72362-0.31549-0.40568-0.75139
  -3  -3  -4   60.21    1.89   1-0.79605-0.77521-0.17831-0.58706-0.57836-0.23323
  -3  -3  -5   37.23    1.17   1-0.15232-0.12405 0.77688 0.30712 0.61093 0.94354
   3   3   5   39.22    1.19   1-0.23154-0.25920 0.28976 0.75987 0.92866 0.59615
   3   3   5   38.17    1.20   1-0.58729-0.61517-0.68775-0.21736-0.42669-0.75783
  -3  -3  -5   37.69    1.23   1-0.80455-0.77701-0.10491-0.57593-0.58454-0.25405
  -3  -3  -6   33.37    1.14   1-0.16241-0.12726 0.74113 0.20904 0.65141 0.96959
   3   3   6   34.06    1.14   1-0.23745-0.27196 0.19123 0.72367 0.95238 0.63429
   3   3   6   34.05    1.16   1-0.60597-0.64057-0.66253-0.12987-0.44026-0.75683
  -3  -3  -6   33.58    1.20   1-0.80841-0.77418-0.03847-0.57177-0.58735-0.27151
  -3  -3  -7   16.94    0.72   1-0.16980-0.12776 0.71229 0.11786 0.68103 0.98477
   3   3   7   17.68    0.70   1-0.24071-0.28206 0.09984 0.69461 0.96544 0.66177
   3   3   7   17.47    0.75   1-0.61745-0.65876-0.64614-0.05121-0.44860-0.75059
  -3  -3  -7   16.40    0.73   1-0.80881-0.76787 0.02257-0.57299-0.58763-0.28644
  -3  -3  -8   10.19    0.43   1-0.17506-0.12614 0.69018 0.03342 0.70214 0.99144
   3   3   8   10.04    0.41   1-0.24188-0.28960 0.01691 0.67347 0.97015 0.68012
   3   3   8    9.16    0.51   1-0.62366-0.67170-0.63696 0.02023-0.45312-0.74054
  -3  -3  -8    9.70    0.58   1-0.80646-0.75882 0.07943-0.57840-0.58592-0.29938
  -3  -3  -9    9.74    0.59   1-0.17865-0.12285 0.67427-0.04481 0.71654 0.99141
   3   3   9   10.72    0.62   1-0.24146-0.29598-0.06129 0.65761 0.96847 0.69277
   3   3   9    9.40    0.62   1-0.62588-0.68063-0.63363 0.08583-0.45472-0.72758
  -3  -3  -9   10.49    0.65   1-0.80183-0.74749 0.13297-0.58714-0.58256-0.31067
  -3  -3 -10    4.38    0.36   1-0.18090-0.11822 0.66393-0.11748 0.72557 0.98601
   3   3  10    4.21    0.34   1-0.23974-0.30106-0.13390 0.64736 0.96155 0.70019
   3   3  10    3.87    0.47   1-0.62491-0.68638-0.63509 0.14664-0.45402-0.71230
  -3  -3 -10    4.39    0.53   1-0.79522-0.73418 0.18386-0.59852-0.57776-0.32052
  -3  -3 -11    3.30    0.36   1-0.18206-0.11250 0.65850-0.18526 0.73022 0.97622
   3   3  11    2.93    0.33   1-0.23695-0.30508-0.20157 0.64203 0.95037 0.70335
   3   3  11    3.05    0.48   1-0.62130-0.68949-0.64048 0.20352-0.45140-0.69511
  -3  -3 -11    2.95    0.37   1-0.78682-0.71908 0.23259-0.61206-0.57166-0.32907
   3   4 -13    0.84    0.32   1-0.23015-0.19179-0.30808-0.93991 0.92309 0.28243
  -3  -4  13    0.85    0.32   1-0.07476-0.11166-0.95104-0.31926 0.29987 0.94106
   3   4 -12    1.43    0.31   1-0.22449-0.19293-0.37268-0.94215 0.90039 0.27406
  -3  -4  12    1.36    0.31   1-0.07243-0.10266-0.95411-0.38466 0.29053 0.91732
  -3  -4  12    1.25    0.34   1-0.80881-0.83826-0.02260 0.54369-0.58763 0.04129
   3   4 -12    1.41    0.40   1-0.35194-0.32459 0.90042 0.33359-0.25569-0.88507
   3   4 -11    0.37    0.27   1-0.21734-0.19259-0.43915-0.94628 0.87172 0.25973
  -3  -4  11    0.50    0.28   1-0.06854-0.09209-0.95902-0.45190 0.27490 0.88729
  -3  -4  11    0.60    0.31   1-0.80791-0.83067 0.05206 0.55608-0.58698 0.02729
   3   4 -11    0.53    0.39   1-0.33528-0.31450 0.91008 0.40555-0.24359-0.85826
   3   4 -10    0.06    0.35   1-0.20852-0.19117-0.50700-0.95206 0.83633 0.23881
  -3  -4  10    0.20    0.35   1-0.06279-0.07967-0.96572-0.52093 0.25187 0.84986
  -3  -4  10    0.02    0.26   1-0.80178-0.81783 0.13344 0.57519-0.58252 0.01710
   3   4 -10    0.10    0.25   1-0.30983-0.29562 0.92375 0.48152-0.22510-0.82507
   3   4  -9    5.01    0.41   1-0.19756-0.18694-0.57713-0.95983 0.79239 0.20919
  -3  -4   9    4.99    0.34   1-0.05487-0.06507-0.97393-0.59148 0.22008 0.80368
  -3  -4   9    5.57    0.35   1-0.78862-0.79798 0.22308 0.60255-0.57297 0.01201
   3   4  -9    5.23    0.42   1-0.27332-0.26568 0.94120 0.56125-0.19858-0.78383
   3   4  -8   17.44    0.76   1-0.18415-0.18026-0.64850-0.96886 0.73859 0.16974
  -3  -4   8   17.42    0.70   1-0.04436-0.04789-0.98303-0.66292 0.17795 0.74715
  -3  -4   8   17.76    0.65   1-0.76510-0.76642 0.32497 0.64216-0.55588 0.01452
   3   4  -8   18.08    0.74   1-0.22286-0.22179 0.96130 0.64365-0.16191-0.73246
   3   4  -7    3.21    0.29   1-0.16785-0.17070-0.72014-0.97814 0.67321 0.11869
  -3  -4   7    3.47    0.29   1-0.03084-0.02770-0.99183-0.73405 0.12372 0.67852
  -3  -4   7    3.42    0.26   1-0.72826-0.72294 0.43549 0.69039-0.52911 0.02657
   3   4  -7    3.64    0.30   1-0.15516-0.16066 0.98143 0.72607-0.11273-0.66858
   3   4  -6  113.77    3.11   1-0.14822-0.15780-0.79031-0.98597 0.59449 0.05430
  -3  -4   6  115.53    3.12   1-0.01388-0.00406-0.99835-0.80290 0.05569 0.59609
  -3  -4   6  114.61    3.06   1-0.67202-0.66005 0.55676 0.74936-0.48825 0.05271
   3   4  -6  115.92    3.27   1-0.06729-0.07936 0.99653 0.80346-0.04889-0.59003
   3   4  -5   17.91    0.58   1-0.12485-0.14134-0.85652-0.98963 0.50077-0.02522
  -3  -4   5   18.03    0.57   1 0.00681 0.02349-0.99960-0.86636-0.02734 0.49886
  -3  -4   5   17.23    0.52   1-0.58952-0.57090 0.68484 0.81515-0.42831 0.09794
   3   4  -5   18.37    0.68   1 0.04161 0.02296 0.99867 0.86790 0.03023-0.49620
   3   4  -4   32.96    0.91   1-0.09778-0.12095-0.91466-0.98545 0.39219-0.11940
  -3  -4   4   31.19    0.87   1 0.03125 0.05459-0.99161-0.92069-0.12536 0.38644
  -3  -4   4   30.14    0.82   1-0.47497-0.44971 0.80951 0.87752-0.34508 0.16645
   3   4  -3   78.83    1.99   1-0.06730-0.09713-0.96052-0.96897 0.26993-0.22727
  -3  -4   3   77.59    1.71   1 0.05895 0.08896-0.96985-0.96125-0.23646 0.26093
  -3  -4   3   78.86    1.71   1-0.30071-0.26964-0.92834-0.92175-0.21848 0.27867
  -3  -4   3   78.13    1.71   1-0.33008-0.29830 0.91297 0.91916-0.23982 0.25720
   3   4  -2   53.55    1.27   1-0.08919-0.12614 0.92955 0.98404 0.35773-0.12543
   3   4  -2   48.22    2.15   1-0.03438-0.07089-0.98984-0.93596 0.13792-0.34488
  -3  -4   2   52.19    1.22   1-0.42733-0.38953-0.84911-0.90478-0.31047 0.17211
  -3  -4   2   49.60    1.22   1-0.16380-0.12544 0.97928 0.92318-0.11900 0.36331
   3   4  -1   79.21    2.27   1-0.11940-0.16323 0.86970 0.98653 0.47891 0.01018
   3   4  -1   69.98    2.77   1-0.00076-0.04410-0.99999-0.88395 0.00308-0.46549
  -3  -4   1   80.31    1.72   1-0.53539-0.49088-0.74968-0.86763-0.38899 0.07903
  -3  -4   1   75.60    1.74   1 0.00272 0.04764 0.99999 0.88159 0.00197 0.46959
   3   4   0   29.14    0.81   1-0.14803-0.19875 0.79091 0.97007 0.59375 0.13945
   3   4   0   26.83    1.20   1 0.03190-0.01809-0.99126-0.81290-0.12794-0.58211
  -3  -4   0   29.06    0.82   1-0.62016-0.56893-0.64216-0.82238-0.45057 0.00287
   3   4   1   62.62    1.41   1-0.17341-0.23100 0.69726 0.93876 0.69552 0.25566
   3   4   1   61.89    1.49   1 0.06176 0.00510-0.96685-0.72617-0.24773-0.68749
  -3  -4  -1   64.48    1.45   1-0.68298-0.62503-0.53601-0.77849-0.49621-0.05733
  -3  -4  -2    3.87    0.27   1-0.08791-0.02343 0.93164 0.62780 0.35258 0.77801
   3   4   2    4.10    0.29   1-0.19452-0.25900 0.59453 0.89836 0.78018 0.35475
   3   4   2    4.19    0.29   1-0.36019-0.42486-0.89541-0.59066-0.26169-0.68600
  -3  -4  -2    4.25    0.31   1-0.72869-0.66434-0.43440-0.73993-0.52942-0.10558
  -3  -4  -3   19.09    0.56   1-0.10940-0.03804 0.89189 0.52572 0.43880 0.84980
   3   4   3   20.01    0.56   1-0.21115-0.28193 0.48806 0.85463 0.84688 0.43601
   3   4   3   19.12    0.58   1-0.42745-0.49884-0.84901-0.48199-0.31056-0.72030
  -3  -4  -3   20.05    0.63   1-0.76001-0.68895-0.34275-0.71056-0.55217-0.14297
  -3  -4  -4    5.42    0.31   1-0.12667-0.04843 0.85195 0.42345 0.50806 0.90462
   3   4   4    5.64    0.30   1-0.22345-0.30107 0.38325 0.81215 0.89620 0.49976
   3   4   4    5.32    0.31   1-0.47601-0.55411-0.80858-0.37929-0.34584-0.74100
  -3  -4  -4    5.52    0.38   1-0.78140-0.70364-0.25905-0.68912-0.56772-0.17316
  -3  -4  -5    0.08    0.28   1-0.14019-0.05506 0.81497 0.32414 0.56227 0.94440
   3   4   5    0.17    0.18   1-0.23206-0.31654 0.28251 0.77375 0.93076 0.54873
   3   4   5    0.13    0.20   1-0.51054-0.59536-0.77573-0.28417-0.37092-0.75152
  -3  -4  -5    0.36    0.31   1-0.79544-0.71098-0.18239-0.67474-0.57792-0.19802
  -3  -4  -6    0.70    0.22   1-0.15055-0.05854 0.78276 0.22959 0.60383 0.97152
   3   4   6    0.65    0.21   1-0.23763-0.32896 0.18736 0.74093 0.95311 0.58549
   3   4   6    0.85    0.24   1-0.53463-0.62617-0.75051-0.19669-0.38843-0.75445
  -3  -4  -6    0.82    0.27   1-0.80395-0.71279-0.11173-0.66635-0.58410-0.21885
  -3  -4  -7    1.58    0.26   1-0.15832-0.05943 0.75609 0.14058 0.63502 0.98828
   3   4   7    1.49    0.29   1-0.24075-0.33892 0.09831 0.71421 0.96559 0.61239
   3   4   7    1.81    0.29   1-0.55091-0.64916-0.73231-0.11622-0.40026-0.75171
  -3  -4  -7    1.57    0.32   1-0.80815-0.71030-0.04606-0.66295-0.58716-0.23655
  -3  -4  -8    2.95    0.31   1-0.16401-0.05824 0.73508 0.05724 0.65783 0.99665
   3   4   8    3.40    0.30   1-0.24188-0.34640 0.01693 0.69452 0.97015 0.63058
   3   4   8    3.08    0.34   1-0.56119-0.66617-0.72028-0.04191-0.40773-0.74461
  -3  -4  -8    2.66    0.38   1-0.80892-0.70436 0.01547-0.66369-0.58771-0.25175
  -3  -4  -9    1.71    0.30   1-0.16801-0.05535 0.71950-0.02067 0.67386 0.99825
   3   4   9    1.87    0.29   1-0.24147-0.35280-0.06045 0.67949 0.96852 0.64328
   3   4   9    1.53    0.43   1-0.56679-0.67849-0.71355 0.02707-0.41180-0.73411
  -3  -4  -9    1.56    0.37   1-0.80682-0.69556 0.07359-0.66785-0.58619-0.26488
  -3  -4 -10    5.60    0.49   1-0.17062-0.05108 0.70891-0.09359 0.68434 0.99429
   3   4  10    6.11    0.38   1-0.23978-0.35790-0.13271 0.66958 0.96171 0.65081
   3   4  10    5.21    0.51   1-0.56860-0.68701-0.71135 0.09154-0.41311-0.72085
  -3  -4 -10    5.83    0.45   1-0.80227-0.68431 0.12886-0.67484-0.58288-0.27622
  -3  -4 -11    4.54    0.59   1-0.17208-0.04566 0.70284-0.16199 0.69021 0.98573
   3   4  11    4.81    0.49   1-0.23701-0.36194-0.20041 0.66424 0.95060 0.65404
   3   4  11    4.36    0.59   1-0.56725-0.69238-0.71300 0.15217-0.41213-0.70529
  -3  -4 -11    5.08    0.67   1-0.79553-0.67087 0.18178-0.68420-0.57799-0.28597
   3   5 -13   10.17    0.65   1-0.22821-0.24665-0.33180-0.94259 0.91532 0.22512
  -3  -5  13   10.13    0.65   1-0.06041-0.04056-0.96831-0.35751 0.24233 0.93302
  -3  -5  13   10.73    0.71   1-0.80901-0.78825-0.00095 0.60629-0.58778 0.10521
   3   5 -13   11.48    0.72   1-0.27672-0.29976 0.93968 0.33196-0.20105-0.89439
   3   5 -12    8.33    0.56   1-0.22210-0.24735-0.39634-0.94477 0.89083 0.21496
  -3  -5  12    7.29    0.43   1-0.05714-0.03061-0.97169-0.42324 0.22920 0.90549
  -3  -5  12    7.83    0.54   1-0.80674-0.77928 0.07488 0.61985-0.58613 0.09221
   3   5 -12    9.14    0.61   1-0.26151-0.29112 0.94631 0.40088-0.19000-0.86863
   3   5 -11   25.75    1.23   1-0.21450-0.24654-0.46244-0.94852 0.86031 0.19878
  -3  -5  11   27.66    1.21   1-0.05222-0.01902-0.97642-0.49029 0.20945 0.87134
  -3  -5  11   28.32    1.26   1-0.79911-0.76494 0.15601 0.63871-0.58058 0.08311
   3   5 -11   29.29    1.33   1-0.23881-0.27499 0.95543 0.47230-0.17350-0.83743
   3   5 -10   21.53    1.12   1-0.20523-0.24466-0.52941-0.95347 0.82316 0.17611
  -3  -5  10   22.52    1.05   1-0.04538-0.00550-0.98224-0.55845 0.18201 0.82951
  -3  -5  10   23.29    1.08   1-0.78426-0.74186 0.24547 0.66584-0.56980 0.07926
   3   5 -10   24.65    1.20   1-0.20719-0.24994 0.96664 0.54581-0.15053-0.79976
   3   5  -9   43.94    1.69   1-0.19386-0.24003-0.59818-0.95989 0.77755 0.14484
  -3  -5   9   45.11    1.64   1-0.03632 0.01022-0.98866-0.62720 0.14568 0.77878
  -3  -5   9   45.65    1.66   1-0.76099-0.71194 0.33941 0.69749-0.55289 0.08145
   3   5  -9   47.14    1.79   1-0.16500-0.21432 0.97898 0.62043-0.11988-0.75440
   3   5  -8   33.64    1.20   1-0.18013-0.23303-0.66751-0.96688 0.72247 0.10409
  -3  -5   8   34.20    1.17   1-0.02471 0.02850-0.99476-0.69564 0.09911 0.71782
  -3  -5   8   34.47    1.16   1-0.72640-0.67071 0.44021 0.73600-0.52776 0.09186
   3   5  -8   36.40    1.33   1-0.11051-0.16640 0.99062 0.69437-0.08029-0.70011
   3   5  -7   22.62    0.82   1-0.16369-0.22332-0.73631-0.97333 0.65653 0.05249
  -3  -5   7   23.24    0.81   1-0.01022 0.04967-0.99910-0.76231 0.04099 0.64529
  -3  -5   7   23.24    0.78   1-0.67726-0.61492 0.54697 0.78046-0.49206 0.11285
   3   5  -7   24.24    0.93   1-0.04230-0.10476 0.99863 0.76467-0.03073-0.63584
   3   5  -6   25.76    0.97   1-0.14422-0.21059-0.80284-0.97750 0.57847-0.01122
  -3  -5   6   25.86    0.94   1 0.00744 0.07421-0.99952-0.82494-0.02984 0.56032
  -3  -5   6   26.37    0.91   1-0.61000-0.54101 0.65686 0.82806-0.44319 0.14701
   3   5  -6   27.48    1.06   1 0.04006-0.02896 0.99877 0.82710 0.02910-0.56129
   3   5  -5    0.40    0.28   1-0.12149-0.19473-0.86475-0.97688 0.48727-0.08822
  -3  -5   5    0.52    0.21   1 0.02829 0.10172-0.99313-0.88087-0.11346 0.46228
  -3  -5   5    0.26    0.26   1-0.52174-0.44611 0.76425 0.87315-0.37906 0.19641
   3   5  -4   52.21    1.57   1-0.09563-0.17555-0.91853-0.96833 0.38358-0.17752
  -3  -5   4   51.58    1.54   1 0.05215 0.13225-0.97648-0.92654-0.20917 0.35217
  -3  -5   4   49.28    1.48   1-0.41310-0.33093 0.85980 0.90688-0.30013 0.26085
   3   5  -3   16.90    0.56   1-0.06705-0.15364-0.96082-0.94827 0.26893-0.27777
  -3  -5   3   17.22    0.57   1 0.07837 0.16513-0.94607-0.95845-0.31433 0.23260
  -3  -5   3   17.77    0.57   1-0.34332-0.25530-0.90548-0.92005-0.24944 0.29718
  -3  -5   3   16.83    0.55   1-0.28630-0.19755 0.93528 0.92007-0.20801 0.33827
  -3  -5   2    0.08    0.16   1-0.44310-0.34836-0.83666-0.91350-0.32193 0.21011
  -3  -5   2    0.00    0.22   1-0.15096-0.05564 0.98243 0.90493-0.10968 0.42190
   3   5  -1    1.16    0.21   1-0.13342-0.23411 0.83415 0.97206 0.53515 0.01690
   3   5  -1    1.33    0.23   1-0.00574-0.10567-0.99971-0.86251 0.02303-0.49487
  -3  -5   1    1.24    0.19   1-0.53123-0.42978-0.75419-0.89330-0.38596 0.13151
  -3  -5   1    1.07    0.21   1-0.01839 0.08348 0.99974 0.85994-0.01336 0.50351
   3   5   0    5.80    0.39   1-0.15880-0.26637 0.75438 0.95463 0.63692 0.13311
   3   5   0    5.71    0.44   1 0.02400-0.08275-0.99506-0.79572-0.09626-0.59998
  -3  -5   0    5.71    0.31   1-0.60470-0.49652-0.66431-0.86569-0.43934 0.06356
   3   5   1   12.12    0.41   1-0.18114-0.29559 0.66283 0.92541 0.72652 0.23714
   3   5   1   12.09    0.46   1 0.05153-0.06188-0.97705-0.71538-0.20668-0.69598
  -3  -5  -1   12.57    0.45   1-0.66328-0.54839-0.57255-0.83619-0.48190 0.00642
   3   5   2   12.98    0.44   1-0.19973-0.32107 0.56420 0.88911 0.80111 0.32616
   3   5   2   12.96    0.47   1 0.07577-0.04430-0.94968-0.62569-0.30391-0.77880
  -3  -5  -2   13.39    0.44   1-0.70934-0.58807-0.48085-0.80771-0.51537-0.04210
  -3  -5  -3    4.27    0.29   1-0.09650 0.03171 0.91699 0.52974 0.38705 0.84756
   3   5   3    4.27    0.28   1-0.21446-0.34206 0.46268 0.85038 0.86018 0.39979
   3   5   3    4.29    0.36   1-0.34896-0.47729-0.90218-0.51400-0.25354-0.71273
  -3  -5  -3    4.29    0.30   1-0.74323-0.61525-0.39498-0.78411-0.53999-0.08137
  -3  -5  -4   20.62    0.72   1-0.11335 0.02174 0.88342 0.43384 0.45464 0.90072
   3   5   4   21.57    0.73   1-0.22545-0.35989 0.36266 0.81269 0.90423 0.45826
   3   5   4   21.65    0.79   1-0.39856-0.53361-0.87022-0.41977-0.28957-0.73419
  -3  -5  -4   21.17    0.77   1-0.76811-0.63344-0.31392-0.76533-0.55807-0.11410
  -3  -5  -5   18.33    0.70   1-0.12686 0.01511 0.85147 0.33955 0.50882 0.94046
   3   5   5   18.74    0.72   1-0.23320-0.37448 0.26608 0.77844 0.93531 0.50376
   3   5   5   18.13    0.70   1-0.43587-0.57764-0.84245-0.32973-0.31668-0.74673
  -3  -5  -5   19.14    0.76   1-0.78582-0.64444-0.23774-0.75142-0.57093-0.14161
  -3  -5  -6   21.54    0.92   1-0.13745 0.01140 0.82289 0.24864 0.55131 0.96852
   3   5   6   21.73    0.90   1-0.23822-0.38635 0.17427 0.74896 0.95544 0.53831
   3   5   6   21.50    0.92   1-0.46338-0.61186-0.81971-0.24472-0.33666-0.75214
  -3  -5  -6   22.29    0.97   1-0.79777-0.64969-0.16613-0.74208-0.57961-0.16494
  -3  -5  -7   23.05    1.07   1-0.14559 0.01014 0.79862 0.16203 0.58395 0.98673
   3   5   7   23.24    1.09   1-0.24098-0.39597 0.08775 0.72477 0.96655 0.56383
   3   5   7   22.90    1.07   1-0.48311-0.63831-0.80212-0.16486-0.35100-0.75191
  -3  -5  -7   23.78    1.16   1-0.80507-0.65029-0.09861-0.73683-0.58491-0.18489
  -3  -5  -8   14.83    0.75   1-0.15168 0.01094 0.77901 0.08008 0.60838 0.99672
   3   5   8   15.53    0.79   1-0.24191-0.40323 0.00823 0.70687 0.97026 0.58114
   3   5   8   15.44    0.83   1-0.49662-0.65854-0.78941-0.08988-0.36081-0.74715
  -3  -5  -8   15.39    0.82   1-0.80852-0.64704-0.03468-0.73518-0.58743-0.20205
  -3  -5  -9    4.29    0.46   1-0.15607 0.01343 0.76404 0.00278 0.62599 0.99990
   3   5   9    4.61    0.35   1-0.24136-0.40948-0.06792 0.69306 0.96805 0.59327
   3   5   9    4.30    0.39   1-0.50508-0.67372-0.78117-0.01937-0.36696-0.73873
  -3  -5  -9    4.34    0.44   1-0.80874-0.64055 0.02612-0.73665-0.58758-0.21685
  -3  -5 -10    2.59    0.39   1-0.15905 0.01734 0.75350-0.07008 0.63791 0.99738
   3   5  10    2.84    0.38   1-0.23955-0.41448-0.13942 0.68391 0.96081 0.60038
   3   5  10    2.54    0.41   1-0.50936-0.68472-0.77690 0.04715-0.37007-0.72727
  -3  -5 -10    2.48    0.60   1-0.80614-0.63125 0.08424-0.74080-0.58569-0.22961
   3   6 -12    8.14    0.54   1-0.22037-0.30242-0.41250-0.93990 0.88389 0.15848
  -3  -6  12    8.54    0.58   1-0.04035 0.04292-0.98598-0.45852 0.16184 0.88764
  -3  -6  12    8.43    0.80   1-0.79851-0.71412 0.16063 0.68427-0.58015 0.14761
   3   6 -12    9.41    0.56   1-0.17229-0.25886 0.97705 0.45303-0.12518-0.85308
   3   6 -11    0.79    0.29   1-0.21250-0.30135-0.47795-0.94299 0.85229 0.14122
  -3  -6  11    0.99    0.30   1-0.03442 0.05552-0.98982-0.52468 0.13808 0.84948
  -3  -6  11    0.99    0.51   1-0.78393-0.69117 0.24705 0.70830-0.56956 0.14344
   3   6 -11    1.20    0.52   1-0.14549-0.23863 0.98369 0.52196-0.10570-0.81890
   3   6 -10    2.59    0.32   1-0.20302-0.29923-0.54382-0.94689 0.81427 0.11771
  -3  -6  10    2.83    0.32   1-0.02655 0.07007-0.99395-0.59115 0.10650 0.80350
  -3  -6  10    2.46    0.53   1-0.76200-0.66259 0.33590 0.73487-0.55363 0.14466
   3   6 -10    3.04    0.37   1-0.11036-0.21007 0.99065 0.59121-0.08018-0.77867
   3   6  -9    0.01    0.24   1-0.19149-0.29444-0.61109-0.95180 0.76804 0.08582
  -3  -6   9    0.02    0.25   1-0.01647 0.08682-0.99767-0.65720 0.06608 0.74869
  -3  -6   9   -0.02    0.31   1-0.73073-0.62467 0.42914 0.76581-0.53090 0.15267
   3   6  -8    0.05    0.24   1-0.17774-0.28742-0.67837-0.95674 0.71288 0.04499
  -3  -6   8    0.10    0.24   1-0.00387 0.10632-0.99987-0.72162 0.01554 0.68407
  -3  -6   8    0.10    0.20   1-0.68813-0.57542 0.52584 0.80022-0.49995 0.16890
   3   6  -8   -0.01    0.34   1-0.01143-0.12428 0.99989 0.72504-0.00831-0.67738
   3   6  -7    1.84    0.27   1-0.16149-0.27790-0.74457-0.96059 0.64771-0.00584
  -3  -6   7    1.87    0.27   1 0.01132 0.12819-0.99890-0.78297-0.04541 0.60869
  -3  -6   7    1.78    0.23   1-0.63217-0.51282 0.62400 0.83608-0.45930 0.19484
   3   6  -7    1.92    0.30   1 0.05333-0.06608 0.99782 0.78526 0.03875-0.61562
   3   6  -6   13.56    0.58   1-0.14252-0.26567-0.80802-0.96169 0.57165-0.06757
  -3  -6   6   13.90    0.60   1 0.02930 0.15283-0.99263-0.83903-0.11753 0.52217
  -3  -6   6   13.22    0.43   1-0.56126-0.43526 0.72020 0.86998-0.40778 0.23164
   3   6  -5    2.11    0.34   1-0.12070-0.25070-0.86662-0.95775 0.48413-0.14087
  -3  -6   5    2.30    0.29   1 0.04997 0.18016-0.97843-0.88714-0.20043 0.42486
  -3  -6   5    2.01    0.27   1-0.47497-0.34232 0.80951 0.89700-0.34508 0.27962
   3   6  -4   89.89    2.68   1-0.09626-0.23293-0.91742-0.94622 0.38609-0.22451
  -3  -6   4   92.70    2.74   1 0.07295 0.20981-0.95344-0.92448-0.29260 0.31828
  -3  -6   4   92.60    2.74   1-0.29496-0.15672-0.93116-0.90462-0.21430 0.39634
  -3  -6   4   89.34    2.65   1-0.37588-0.23675 0.88551 0.91119-0.27309 0.33716
   3   6  -3    7.48    0.36   1-0.09794-0.24172 0.91437 0.94870 0.39283-0.20380
   3   6  -3    6.83    0.50   1-0.06959-0.21293-0.95772-0.92418 0.27915-0.31706
  -3  -6   3    7.12    0.39   1-0.38114-0.23618-0.88206-0.91780-0.27691 0.31915
  -3  -6   3    6.43    0.43   1-0.26634-0.12064 0.94425 0.90763-0.19351 0.40203
   3   6  -2   11.69    2.32   1-0.04151-0.19153-0.98516-0.88929 0.16652-0.41528
  -3  -6   2   18.82    0.75   1-0.46285-0.31117-0.82016-0.91817-0.33628 0.24522
  -3  -6   2   16.76    0.68   1-0.15334-0.00107 0.98187 0.88296-0.11141 0.46943
   3   6  -1   56.13    2.05   1-0.14734-0.30489 0.79311 0.95210 0.59098 0.02321
   3   6  -1   54.85    2.08   1-0.01312-0.16980-0.99852-0.84033 0.05262-0.51479
  -3  -6   1   58.95    1.82   1-0.53662-0.37821-0.74835-0.90862-0.38987 0.17705
  -3  -6   1   54.83    1.74   1-0.04367 0.11516 0.99854 0.83734-0.03173 0.53440
   3   6   0   24.27    2.44   1-0.16974-0.33416 0.71252 0.93385 0.68080 0.12747
   3   6   0   25.20    1.91   1 0.01423-0.14928-0.99826-0.77794-0.05708-0.61034
  -3  -6   0   27.54    0.96   1-0.60042-0.43529-0.67022-0.89276-0.43623 0.11613
  -3  -6   0   24.74    0.91   1 0.05695 0.22236 0.99751 0.77402 0.04138 0.59281
   3   6   1   45.12    1.32   1-0.18930-0.36061 0.62265 0.90631 0.75925 0.22035
   3   6   1   45.09    1.42   1 0.03977-0.13040-0.98639-0.70374-0.15953-0.69837
  -3  -6  -1   44.71    1.32   1-0.65368-0.48184-0.58919-0.87400-0.47492 0.06286
   3   6   2   18.19    0.65   1-0.20554-0.38373 0.52738 0.87338 0.82438 0.29992
   3   6   2   17.81    0.72   1 0.06258-0.11426-0.96596-0.62099-0.25100-0.77544
  -3  -6  -2   17.95    0.71   1-0.69775-0.51955-0.50610-0.85429-0.50694 0.01573
   3   6   3   23.75    0.86   1-0.21840-0.40281 0.43006 0.83888 0.87597 0.36607
  -3  -6  -3   23.74    0.90   1-0.73177-0.54687-0.42641-0.83687-0.53166-0.02363
  -3  -6  -4    5.19    0.32   1-0.09887 0.09307 0.91266 0.44199 0.39658 0.89217
   3   6   4    5.54    0.37   1-0.22800-0.41926 0.33424 0.80539 0.91449 0.41899
   3   6   4    5.28    0.34   1-0.32639-0.51838-0.91500-0.44338-0.23714-0.73121
  -3  -6  -4    5.04    0.40   1-0.75803-0.56643-0.34937-0.82210-0.55074-0.05735
  -3  -6  -5   10.03    0.56   1-0.11234 0.08649 0.88563 0.35263 0.45059 0.93175
   3   6   5    9.60    0.54   1-0.23476-0.43286 0.24147 0.77495 0.94158 0.46050
   3   6   5    9.56    0.56   1-0.36448-0.56319-0.89276-0.35887-0.26481-0.74432
  -3  -6  -5    9.39    0.55   1-0.77772-0.57942-0.27543-0.81044-0.56504-0.08631
  -3  -6  -6    1.46    0.36   1-0.12313 0.08258 0.86078 0.26545 0.49385 0.96058
   3   6   6    1.80    0.26   1-0.23907-0.44402 0.15288 0.74869 0.95889 0.49223
   3   6   6    1.44    0.28   1-0.39375-0.59918-0.87356-0.27741-0.28607-0.75101
  -3  -6  -6    1.70    0.30   1-0.79188-0.58688-0.20471-0.80199-0.57533-0.11124
  -3  -6  -7    1.37    0.28   1-0.13158 0.08101 0.83913 0.18147 0.52776 0.98005
   3   6   7    1.34    0.27   1-0.24134-0.45314 0.06894 0.72709 0.96798 0.51574
   3   6   7    1.61    0.31   1-0.41566-0.62781-0.85791-0.19949-0.30199-0.75236
  -3  -6  -7    1.43    0.33   1-0.80137-0.58967-0.13709-0.79664-0.58223-0.13279
  -3  -6  -8    0.05    0.39   1-0.13804 0.08143 0.82121 0.10121 0.55366 0.99152
   3   6   8    0.03    0.36   1-0.24191-0.46003-0.00851 0.71116 0.97026 0.53160
   3   6   8    0.26    0.30   1-0.43145-0.65032-0.84592-0.12522-0.31347-0.74926
  -3  -6  -8    0.23    0.35   1-0.80689-0.58849-0.07236-0.79418-0.58624-0.15145
  -3  -6  -9    0.47    0.31   1-0.14280 0.08355 0.80718 0.02484 0.57276 0.99619
   3   6   9    0.33    0.40   1-0.24108-0.46600-0.08317 0.69885 0.96693 0.54261
   3   6   9    0.03    0.32   1-0.44211-0.66769-0.83747-0.05451-0.32121-0.74243
  -3  -6  -9    0.04    0.51   1-0.80897-0.58387-0.01025-0.79435-0.58775-0.16761
   3   7 -11   12.05    0.70   1-0.21153-0.35779-0.48521-0.92964 0.84841 0.08800
  -3  -7  11   13.94    0.62   1-0.01527 0.13142-0.99800-0.55386 0.06126 0.82217
  -3  -7  11   13.21    0.59   1-0.76644-0.61666 0.32010 0.75996-0.55685 0.20538
   3   7 -11   14.93    1.02   1-0.05729-0.20739 0.99748 0.55715-0.04163-0.80409
   3   7 -10    5.08    0.39   1-0.20194-0.35493-0.55063-0.93270 0.80995 0.06387
  -3  -7  10    5.68    0.39   1-0.00647 0.14690-0.99964-0.61783 0.02596 0.77246
  -3  -7  10    5.66    0.35   1-0.73876-0.58234 0.40759 0.78514-0.53674 0.21077
   3   7 -10    5.74    0.43   1-0.02087-0.17754 0.99966 0.62163-0.01516-0.76292
   3   7  -9   24.64    1.17   1-0.19050-0.35022-0.61638-0.93610 0.76405 0.03231
  -3  -7   9   26.39    1.16   1 0.00455 0.16485-0.99982-0.68023-0.01826 0.71421
  -3  -7   9   26.23    1.15   1-0.70197-0.53890 0.49711 0.81237-0.51001 0.22279
   3   7  -9   28.05    1.30   1 0.02333-0.13990 0.99958 0.68383 0.01695-0.71609
   3   7  -8   22.50    1.11   1-0.17698-0.34344-0.68176-0.93914 0.70983-0.00757
  -3  -7   8   23.71    1.12   1 0.01779 0.18475-0.99729-0.74002-0.07136 0.64670
  -3  -7   8   23.52    1.07   1-0.65482-0.48511 0.58723 0.84020-0.47576 0.24233
   3   7  -7   34.26    1.54   1-0.16118-0.33437-0.74571-0.94073 0.64647-0.05659
  -3  -7   7   36.43    1.60   1 0.03343 0.20706-0.99040-0.79545-0.13411 0.56954
  -3  -7   7   34.95    1.52   1-0.59636-0.41999 0.67573 0.86640-0.43328 0.27009
   3   7  -6   29.49    1.16   1-0.14296-0.32288-0.80670-0.93938 0.57339-0.11534
  -3  -7   6   30.60    1.17   1 0.05146 0.23175-0.97711-0.84448-0.20641 0.48284
  -3  -7   6   29.68    1.16   1-0.52625-0.34324 0.75951 0.88789-0.38234 0.30631
   3   7  -5   23.60    0.97   1-0.12225-0.30899-0.86291-0.93305 0.49033-0.18417
  -3  -7   5   25.38    0.93   1 0.07163 0.25859-0.95515-0.88484-0.28731 0.38752
  -3  -7   5   24.51    0.89   1-0.44522-0.25556 0.83494 0.90103-0.32347 0.35047
   3   7  -4   16.19    0.65   1-0.09390-0.28765 0.92159 0.91466 0.37661-0.28397
   3   7  -4   15.33    0.66   1-0.09931-0.29273-0.91184-0.91966 0.39832-0.26178
  -3  -7   4   16.26    0.69   1-0.34391-0.14872-0.90514-0.89977-0.24987 0.41023
  -3  -7   4   14.03    0.59   1-0.35625-0.16016 0.89782 0.90210-0.25883 0.40069
  -3  -7   3    0.23    0.21   1-0.41608-0.21417-0.85760-0.91450-0.30230 0.34323
  -3  -7   3    0.11    0.22   1-0.26105-0.05839 0.94650 0.88849-0.18966 0.45515
   3   7  -2   42.29    1.70   1-0.13938-0.34689 0.81734 0.93508 0.55903-0.07268
   3   7  -2   41.68    1.55   1-0.04860-0.25536-0.97961-0.86275 0.19492-0.43639
  -3  -7   2   43.66    1.40   1-0.48471-0.27608-0.80064-0.91980-0.35216 0.27879
  -3  -7   2   40.29    1.32   1-0.16470 0.04452 0.97905 0.85875-0.11966 0.51045
   3   7  -1   10.97    1.18   1-0.16101-0.37541 0.74634 0.92641 0.64578 0.02850
  -3  -7   1   12.91    0.44   1-0.54761-0.33226-0.73608-0.91751-0.39786 0.21852
  -3  -7   1   11.34    0.51   1-0.07155 0.14424 0.99608 0.81348-0.05198 0.56341
  -3  -7   0    0.17    0.21   1-0.60335-0.38128-0.66618-0.90989-0.43836 0.16345
  -3  -7   0    0.17    0.24   1 0.01475 0.23712 0.99983 0.75494 0.01071 0.61141
   3   7   1    0.28    0.28   1-0.19763-0.42580 0.57671 0.88146 0.79267 0.20426
   3   7   1    0.21    0.24   1 0.02664-0.20029-0.99391-0.69029-0.10686-0.69525
  -3  -7  -1    0.32    0.21   1-0.65132-0.42254-0.59316-0.89914-0.47321 0.11403
   3   7   2    1.53    0.23   1-0.21169-0.44607 0.48401 0.85163 0.84906 0.27521
   3   7   2    1.43    0.28   1 0.04817-0.18542-0.97997-0.61402-0.19321-0.76719
  -3  -7  -2    1.38    0.25   1-0.69246-0.45734-0.51709-0.88660-0.50310 0.06900
   3   7   3    3.32    0.28   1-0.22269-0.46392 0.39065 0.82059 0.89319 0.33376
   3   7   3    2.85    0.31   1 0.06704-0.17322-0.96083-0.53256-0.26890-0.82847
  -3  -7  -3    2.89    0.28   1-0.72528-0.48346-0.44304-0.87483-0.52695 0.03050
   3   7   4    4.82    0.31   1-0.23088-0.47896 0.29855 0.79083 0.92604 0.38102
  -3  -7  -4    4.83    0.34   1-0.75153-0.50301-0.37020-0.86427-0.54602-0.00321
  -3  -7  -5    1.49    0.27   1-0.09662 0.15906 0.91676 0.36268 0.38755 0.91823
   3   7   5    1.37    0.26   1-0.23656-0.49148 0.20929 0.76390 0.94880 0.41820
   3   7   5    1.48    0.29   1-0.29656-0.55221-0.93039-0.37534-0.21546-0.74443
  -3  -7  -5    1.51    0.28   1-0.77196-0.51674-0.29918-0.85551-0.56086-0.03270
  -3  -7  -6    6.64    0.38   1-0.10754 0.15502 0.89575 0.27933 0.43135 0.94759
   3   7   6    6.94    0.37   1-0.24006-0.50182 0.12378 0.74072 0.96283 0.44665
   3   7   6    6.58    0.40   1-0.32635-0.58873-0.91502-0.29770-0.23711-0.75150
  -3  -7  -6    6.93    0.41   1-0.78727-0.52535-0.23026-0.84887-0.57199-0.05848
  -3  -7  -7    5.09    0.37   1-0.11626 0.15319 0.87695 0.19820 0.46630 0.96811
   3   7   7    5.19    0.36   1-0.24170-0.51031 0.04244 0.72171 0.96942 0.46765
   3   7   7    5.34    0.50   1-0.34940-0.61849-0.90192-0.22234-0.25385-0.75367
  -3  -7  -7    5.40    0.46   1-0.79812-0.52950-0.16355-0.84443-0.57987-0.08101
   3   8 -10   11.72    0.65   1-0.20203-0.41180-0.55007-0.91115 0.81031 0.01471
  -3  -8  10   13.41    0.61   1 0.01480 0.22519-0.99812-0.63719-0.05936 0.73707
  -3  -8  10   12.65    0.55   1-0.71729-0.50385 0.46249 0.81864-0.52114 0.27560
   3   8  -9    0.86    0.29   1-0.19087-0.40738-0.61439-0.91312 0.76556-0.01569
  -3  -8   9    0.92    0.30   1 0.02640 0.24346-0.99402-0.69541-0.10591 0.67611
  -3  -8   9    0.81    0.26   1-0.67729-0.45721 0.54691 0.84076-0.49208 0.28994
   3   8  -8    2.90    0.32   1-0.17780-0.40104-0.67809-0.91447 0.71314-0.05378
  -3  -8   8    2.61    0.43   1 0.04011 0.26383-0.98615-0.74986-0.16090 0.60670
  -3  -8   8    2.88    0.29   1-0.62834-0.40160 0.62990 0.86145-0.45651 0.31080
   3   8  -7    0.42    0.26   1-0.16266-0.39264-0.74018-0.91422 0.65242-0.10016
  -3  -8   7    0.37    0.27   1 0.05592 0.28631-0.97290-0.79894-0.22431 0.52888
  -3  -8   7    0.34    0.33   1-0.57018-0.33680 0.70942 0.87868-0.41426 0.33834
   3   8  -6    0.02    0.24   1-0.14537-0.38207-0.79932-0.91100 0.58305-0.15520
  -3  -8   6    0.10    0.25   1 0.07369 0.31074-0.95247-0.84082-0.29556 0.44322
  -3  -8   6   -0.02    0.23   1-0.50317-0.26314 0.78305 0.89002-0.36557 0.37231
   3   8  -5    0.14    0.24   1-0.09349-0.33721 0.92230 0.87412 0.37497-0.34956
   3   8  -5    0.09    0.24   1-0.12589-0.36939-0.85392-0.90308 0.50493-0.21908
  -3  -8   5    0.17    0.24   1-0.32509-0.07967-0.91570-0.86923-0.23619 0.48793
  -3  -8   5    0.06    0.23   1-0.42845-0.18178 0.84824 0.89292-0.31129 0.41188
   3   8  -4    7.84    0.40   1-0.11399-0.36460 0.88201 0.89616 0.45722-0.25288
   3   8  -4    6.87    0.42   1-0.10449-0.35466-0.90189-0.88871 0.41911-0.29049
  -3  -8   4    7.63    0.38   1-0.38755-0.13542-0.87778-0.89358-0.28157 0.42798
  -3  -8   4    6.79    0.42   1-0.34883-0.09578 0.90226 0.88514-0.25343 0.45534
  -3  -8   3    2.17    0.28   1-0.44905-0.19020-0.83180-0.90986-0.32626 0.36873
  -3  -8   3    2.01    0.29   1-0.26536-0.00574 0.94467 0.86526-0.19279 0.50128
   3   8  -2   46.66    0.90   1-0.15523-0.41960 0.76699 0.90581 0.62259-0.05864
   3   8  -2   45.98    1.99   1-0.05759-0.32111-0.97124-0.83340 0.23100-0.44981
  -3  -8   2   49.24    0.86   1-0.50774-0.24217-0.77853-0.91886-0.36889 0.31152
  -3  -8   2   42.97    1.86   1-0.18184 0.08433 0.97441 0.83270-0.13212 0.54725
  -3  -8   1    1.95    0.27   1-0.56210-0.28981-0.71920-0.92180-0.40839 0.25745
  -3  -8   1    1.56    0.29   1-0.10124 0.17151 0.99213 0.78814-0.07355 0.59111
   3   8   0    8.67    0.42   1-0.19133-0.46947 0.61193 0.87541 0.76741 0.11505
   3   8   0    8.97    0.58   1-0.00986-0.28672-0.99916-0.73665 0.03954-0.61247
  -3  -8   0    9.74    0.56   1-0.61109-0.33208-0.65532-0.92018-0.44398 0.20729
  -3  -8   0    8.54    0.43   1-0.02600 0.25332 0.99948 0.73319-0.01889 0.63107
   3   8   1   28.24    1.27   1-0.20592-0.49094 0.52484 0.85066 0.82591 0.18797
   3   8   1   28.10    1.28   1 0.01221-0.27148-0.99872-0.67412-0.04898-0.68691
  -3  -8  -1   27.80    1.25   1-0.65414-0.36842-0.58839-0.91553-0.47526 0.16143
  -3  -8  -1   25.96    1.20   1 0.04215 0.32805 0.99864 0.67005 0.03062 0.66588
   3   8   2   11.83    0.61   1-0.21786-0.50905 0.43476 0.82349 0.87379 0.25042
   3   8   2   11.55    0.62   1 0.03257-0.25778-0.99089-0.60397-0.13064-0.75416
  -3  -8  -2   11.46    0.59   1-0.69113-0.39869-0.51979-0.90920-0.50213 0.11999
   3   8   3   18.91    0.89   1-0.22710-0.52514 0.34459 0.79565 0.91086 0.30191
   3   8   3   17.06    0.83   1 0.05067-0.24635-0.97781-0.52857-0.20324-0.81235
  -3  -8  -3   17.55    0.85   1-0.72298-0.42424-0.44874-0.90186-0.52528 0.08159
   3   8   4    7.57    0.53   1-0.23386-0.53875 0.25587 0.76927 0.93799 0.34345
   3   8   4    7.53    0.51   1 0.06636-0.23732-0.96163-0.45007-0.26617-0.86087
  -3  -8  -4    8.28    0.53   1-0.74838-0.44293-0.37984-0.89524-0.54373 0.04849
   3   8   5    7.94    0.46   1-0.23840-0.55014 0.16986 0.74559 0.95619 0.37607
   3   8   5    7.18    0.69   1 0.07965-0.23069-0.94423-0.37034-0.31949-0.89979
  -3  -8  -5    7.43    0.41   1-0.76867-0.45653-0.31183-0.88950-0.55847 0.01909
  -3  -8  -6    3.02    0.39   1-0.09066 0.22876 0.92711 0.28962 0.36363 0.92940
   3   8   6    2.84    0.45   1-0.24099-0.55958 0.08730 0.72536 0.96659 0.40088
  -3  -8  -6    2.89    0.40   1-0.78434-0.46550-0.24508-0.88502-0.56985-0.00693
   3   9  -9   11.04    0.68   1-0.19259-0.46587-0.60518-0.88292 0.77243-0.05833
  -3  -9   9   12.47    0.63   1 0.04896 0.32277-0.97930-0.70167-0.19637 0.63519
  -3  -9   9   11.86    0.63   1-0.65783-0.38073 0.58207 0.85452-0.47794 0.35331
   3   9  -8    2.25    0.33   1-0.18014-0.46016-0.66746-0.88285 0.72252-0.09391
  -3  -9   8    2.85    0.46   1 0.06288 0.34336-0.96561-0.75030-0.25223 0.56492
  -3  -9   8    2.39    0.30   1-0.60896-0.32521 0.65834 0.86848-0.44243 0.37411
   3   9  -7   17.86    0.92   1-0.16583-0.45258-0.72809-0.88113 0.66511-0.13699
  -3  -9   7   19.57    0.87   1 0.07858 0.36572-0.94577-0.79278-0.31516 0.48758
  -3  -9   7   18.12    0.80   1-0.55274-0.26235 0.73020 0.87805-0.40159 0.40024
   3   9  -6   19.12    0.87   1-0.09618-0.38988 0.91756 0.82813 0.38576-0.40272
   3   9  -6   18.32    0.87   1-0.14959-0.44307-0.78590-0.87659 0.59998-0.18779
  -3  -9   6   19.70    0.86   1-0.31981-0.02417-0.91854-0.83096-0.23236 0.55580
  -3  -9   6   17.77    0.80   1-0.48985-0.19281 0.79584 0.88140-0.35590 0.43121
   3   9  -5   20.49    0.99   1-0.11457-0.41515 0.88075 0.85364 0.45951-0.31454
   3   9  -5   19.49    0.98   1-0.13146-0.43168-0.83944-0.86778 0.52729-0.24614
  -3  -9   5   21.27    1.02   1-0.37343-0.07107-0.88709-0.86178-0.27131 0.50227
  -3  -9   5   18.37    0.92   1-0.42149-0.11781 0.85355 0.87681-0.30623 0.46616
   3   9  -4   19.26    1.15   1-0.13353-0.44099 0.83386 0.86909 0.53557-0.22404
   3   9  -4   18.84    1.15   1-0.11158-0.41850-0.88726-0.85309 0.44755-0.31156
  -3  -9   4   20.99    0.96   1-0.42749-0.11841-0.84898-0.88594-0.31059 0.44842
  -3  -9   4   18.02    0.87   1-0.35014-0.04013 0.90148 0.86296-0.25439 0.50365
   3   9  -3   17.69    1.23   1-0.15240-0.46674 0.77662 0.87418 0.61125-0.13393
   3   9  -3   16.81    1.26   1-0.09038-0.40397-0.92759-0.83108 0.36249-0.38222
  -3  -9   3   19.94    0.92   1-0.48059-0.16479-0.80443-0.90365-0.34917 0.39527
  -3  -9   3   16.55    0.84   1-0.27633 0.04023 0.93985 0.83904-0.20077 0.54257
   3   9  -2    5.00    1.31   1-0.17046-0.49168 0.70959 0.86949 0.68367-0.04707
   3   9  -2    5.44    1.03   1-0.06830-0.38857-0.95930-0.80047 0.27397-0.45634
  -3  -9   2    7.02    0.38   1-0.53140-0.20888-0.75402-0.91551-0.38608 0.34379
  -3  -9   2    6.27    0.47   1-0.20302 0.12012 0.96799 0.80489-0.14750 0.58113
  -3  -9   1    0.00    0.31   1-0.57883-0.24960-0.69863-0.92239-0.42054 0.29475
  -3  -9   1    0.10    0.36   1-0.13230 0.19741 0.98653 0.76113-0.09612 0.61781
   3   9   0   23.97    1.13   1-0.20165-0.53664 0.55243 0.83700 0.80879 0.10690
   3   9   0   24.15    1.17   1-0.02411-0.35773-0.99501-0.71151 0.09673-0.60479
  -3  -9   0   23.72    1.16   1-0.62210-0.28614-0.63929-0.92533-0.45198 0.24875
  -3  -9   0   22.13    1.12   1-0.06591 0.27036 0.99667 0.70898-0.04789 0.65133
   3   9   1    5.95    0.35   1-0.21399-0.55514 0.46646 0.81399 0.85826 0.17095
   3   9   1    5.70    0.40   1-0.00348-0.34394-0.99989-0.65431 0.01399-0.67347
  -3  -9  -1    6.11    0.45   1-0.66070-0.31803-0.57709-0.92539-0.48003 0.20613
  -3  -9  -1    5.74    0.52   1-0.00515 0.33770 0.99997 0.64999-0.00374 0.68078
   3   9   2    0.24    0.25   1-0.22387-0.57187 0.37901 0.78887 0.89790 0.22500
   3   9   2    0.20    0.30   1 0.01576-0.33135-0.99787-0.58997-0.06323-0.73629
  -3  -9  -2    0.20    0.26   1-0.69533-0.34637-0.51116-0.92333-0.50519 0.16574
  -3  -9  -2    0.32    0.32   1 0.04921 0.39864 0.99814 0.58587 0.03575 0.70557
   3   9   3   -0.03    0.25   1-0.23139-0.58625 0.29176 0.76395 0.92807 0.26960
   3   9   3    0.06    0.30   1 0.03310-0.32067-0.99059-0.52036-0.13278-0.79144
  -3  -9  -3   -0.11    0.26   1-0.72407-0.36841-0.44605-0.92049-0.52607 0.13021
   3   9   4    0.19    0.27   1-0.23672-0.59842 0.20616 0.74068 0.94945 0.30539
   3   9   4    0.22    0.30   1 0.04835-0.31209-0.97982-0.44727-0.19392-0.83817
  -3  -9  -4    0.48    0.29   1-0.74811-0.38574-0.38065-0.91737-0.54353 0.09810
   3  10  -6    2.09    0.40   1-0.11799-0.46855 0.87298 0.80462 0.47326-0.36474
   3  10  -6    1.87    0.45   1-0.15548-0.50575-0.76610-0.83579 0.62362-0.21366
  -3 -10   6    2.17    0.33   1-0.37052-0.01793-0.88895-0.82254-0.26919 0.56842
  -3 -10   6    2.05    0.31   1-0.48440-0.13035 0.80092 0.86507-0.35194 0.48440
   3  10  -5    1.58    0.32   1-0.13512-0.49256 0.82947 0.82345 0.54195-0.28162
   3  10  -5    1.43    0.44   1-0.13873-0.49573-0.81922-0.82656 0.55644-0.26651
  -3 -10   5    1.56    0.31   1-0.41754-0.05824-0.85651-0.85237-0.30336 0.51968
  -3 -10   5    1.19    0.30   1-0.42204-0.06134 0.85314 0.85499-0.30663 0.51499
   3  10  -4    0.07    0.42   1-0.12041-0.48408-0.86732-0.81216 0.48296-0.32565
  -3 -10   4    0.09    0.39   1-0.46471-0.09869-0.81855-0.87668-0.33763 0.47084
  -3 -10   4   -0.05    0.27   1-0.35790 0.00905 0.89682 0.83689-0.26003 0.54728
   3  10  -3    0.58    0.49   1-0.16920-0.54040 0.71471 0.83336 0.67864-0.11606
  -3 -10   3   -0.02    0.27   1-0.51097-0.13823-0.77529-0.89568-0.37124 0.42265
  -3 -10   3    0.14    0.28   1-0.29216 0.08136 0.93251 0.81029-0.21227 0.58034
   3  10  -2    3.37    0.48   1-0.18496-0.56304 0.64455 0.82552 0.74185-0.03842
   3  10  -2    2.95    0.53   1-0.08061-0.45763-0.94284-0.76301 0.32334-0.45648
  -3 -10   2    3.22    0.34   1-0.55535-0.17589-0.72717-0.90983-0.40348 0.37584
  -3 -10   2    2.56    0.34   1-0.22717 0.15292 0.95976 0.77525-0.16505 0.61285
  -3 -10   1    1.64    0.31   1-0.59702-0.21084-0.67484-0.91977-0.43376 0.33100
  -3 -10   1    1.61    0.34   1-0.16448 0.22218 0.97911 0.73231-0.11950 0.64369
   3  10   0   15.30    0.62   1-0.21145-0.60257 0.48584 0.79216 0.84808 0.09683
   3  10   0   14.87    0.74   1-0.03974-0.43011-0.98640-0.68191 0.15942-0.59160
  -3 -10   0   14.51    0.62   1-0.63536-0.24246-0.61905-0.92624-0.46161 0.28857
  -3 -10   0   14.09    0.64   1-0.10538 0.28785 0.99147 0.68238-0.07656 0.67192
   3  10   1    0.19    0.28   1-0.22156-0.61954 0.40148 0.77013 0.88865 0.15182
   3  10   1    0.38    0.47   1-0.02028-0.41732-0.99647-0.62965 0.08135-0.65527
  -3 -10  -1    0.37    0.29   1-0.66994-0.27033-0.56057-0.93004-0.48674 0.24887
  -3 -10  -1    0.14    0.33   1-0.05087 0.34893 0.99802 0.62663-0.03696 0.69682
   4 -11  -2    0.44    0.44   1-0.19857 0.67621 0.96941 0.73620-0.14426 0.02708
   4 -11  -1    0.08    0.34   1-0.24510 0.62311 0.95300 0.78209-0.17807 0.00798
   4 -11   0    0.26    0.33   1-0.29386 0.56778 0.93169 0.82308-0.21350-0.01273
   4 -11   1    0.72    0.45   1-0.34393 0.51113 0.90513 0.85880-0.24988-0.03441
   4 -11   2    0.50    0.31   1-0.39433 0.45416 0.87316 0.88913-0.28650-0.05632
   4 -11   3    2.48    0.34   1-0.44459 0.39756 0.83546 0.91422-0.32301-0.07837
   4 -11   4    8.68    0.57   1-0.49270 0.34280 0.79316 0.93421-0.35796-0.09861
   4 -11   5    5.11    0.38   1-0.53843 0.29042 0.74635 0.94970-0.39119-0.11712
   4 -11   6   14.21    0.68   1-0.58117 0.24103 0.69565 0.96129-0.42225-0.13346
   4 -10  -4    1.57    0.47   1-0.07944 0.75152 0.99516 0.65877-0.05771 0.03496
   4 -10  -3    6.77    0.48   1-0.12445 0.69994 0.98809 0.71399-0.09042 0.01696
   4 -10  -2    8.63    0.57   1-0.17367 0.64415 0.97668 0.76488-0.12617-0.00408
   4 -10  -1    5.42    0.42   1-0.22627 0.58497 0.96008 0.81057-0.16440-0.02760
   4 -10   0   11.01    0.71   1-0.28123 0.52345 0.93763 0.85041-0.20432-0.05282
   4 -10   1   11.47    0.73   1-0.33732 0.46078 0.90892 0.88399-0.24508-0.07887
   4 -10   2   27.83    1.27   1-0.39327 0.39826 0.87389 0.91126-0.28573-0.10482
   4 -10   3    3.57    0.34   1-0.44838 0.33675 0.83235 0.93252-0.32577-0.13036
   4 -10   4    9.82    0.57   1-0.50040 0.27809 0.78575 0.94822-0.36356-0.15343
   4 -10   5    5.73    0.37   1-0.54905 0.22279 0.73444 0.95920-0.39891-0.17406
   4 -10   6    3.59    0.33   1-0.59371 0.17148 0.67928 0.96633-0.43136-0.19180
   4 -10   7    2.48    0.32   1-0.63400 0.12454 0.62117 0.97051-0.46063-0.20635
  -4  10  -7    2.69    0.37   1 0.03444-0.72424 0.99909 0.65026 0.02502-0.22941
   4 -10   8    0.06    0.28   1-0.66975 0.08215 0.56093 0.97257-0.48660-0.21761
  -4  10  -8    0.19    0.46   1-0.00794-0.76006 0.99995 0.58882-0.00577-0.27491
   4  -9  -6    8.96    0.57   1 0.04076 0.82791 0.99873 0.55915 0.02961 0.04362
   4  -9  -5    5.11    0.57   1 0.00130 0.78188 0.99999 0.62271 0.00094 0.02965
   4  -9  -4    3.15    0.40   1-0.04416 0.72984 0.99850 0.68352-0.03208 0.01132
   4  -9  -3   21.64    1.07   1-0.09530 0.67213 0.99303 0.74034-0.06924-0.01111
   4  -9  -2    8.30    0.54   1-0.15139 0.60947 0.98233 0.79193-0.10999-0.03716
   4  -9  -1    0.49    0.40   1-0.21134 0.54295 0.96527 0.83716-0.15355-0.06601
   4  -9   0    3.16    0.43   1-0.27372 0.47400 0.94102 0.87520-0.19887-0.09663
   4  -9   1   -0.09    0.36   1-0.33687 0.40428 0.90918 0.90565-0.24475-0.12780
   4  -9   2    0.16    0.35   1-0.39906 0.33551 0.86987 0.92864-0.28994-0.15829
   4  -9   3    0.43    0.35   1-0.45933 0.26879 0.82318 0.94476-0.33372-0.18754
   4  -9   4    4.10    0.41   1-0.51515 0.20633 0.77106 0.95493-0.37427-0.21337
   4  -9   5    0.82    0.36   1-0.56625 0.14857 0.71421 0.96037-0.41140-0.23579
   4  -9   6   11.22    0.60   1-0.61211 0.09606 0.65385 0.96231-0.44473-0.25439
  -4   9  -6   11.43    0.67   1 0.01002-0.69828 0.99992 0.69198 0.00728-0.18318
   4  -9   7    8.37    0.51   1-0.65253 0.04900 0.59112 0.96187-0.47409-0.26905
  -4   9  -7    8.77    0.56   1-0.03993-0.74167 0.99878 0.62854-0.02901-0.23419
   4  -9   8   20.42    0.92   1-0.68756 0.00733 0.52698 0.96003-0.49954-0.27978
  -4   9  -8   21.32    0.95   1-0.08293-0.77810 0.99473 0.56220-0.06025-0.28013
   4  -9   9   10.06    0.61   1-0.71741-0.02916 0.46221 0.95756-0.52122-0.28675
  -4   9  -9   10.47    0.66   1-0.11920-0.80779 0.98908 0.49426-0.08660-0.32119
   4  -9  10    3.77    0.43   1-0.74239-0.06079 0.39739 0.95503-0.53937-0.29018
  -4   9 -10    3.78    0.54   1-0.14913-0.83116 0.98286 0.42575-0.10835-0.35764
  -4   8   7    2.16    0.38   1-0.07406-0.81099-0.95197-0.47383 0.29706 0.34317
   4  -8  -6   -0.04    0.32   1-0.22240 0.50923 0.39345-0.02275 0.89203 0.86032
  -4   8   6    0.02    0.30   1-0.05828-0.78853-0.97054-0.55473 0.23377 0.26548
   4  -8  -5    0.06    0.36   1-0.21849 0.50629 0.42927 0.07539 0.87634 0.85905
  -4   8   5    0.14    0.26   1-0.03259-0.75617-0.99088-0.63740 0.13073 0.14804
   4  -8  -5   -0.07    0.32   1 0.04238 0.76601 0.99862 0.64274 0.03079 0.01024
   4  -8  -4    0.15    0.29   1-0.20829 0.50965 0.50862 0.21707 0.83541 0.83254
  -4   8   4    0.25    0.23   1 0.01159-0.70519-0.99884-0.70765-0.04651-0.04389
   4  -8  -4    0.04    0.35   1-0.00929 0.70775 0.99993 0.70634-0.00675-0.01260
   4  -8  -3    8.76    0.65   1-0.06793 0.64254 0.99646 0.76517-0.04935-0.04049
   4  -8  -2    3.51    0.45   1-0.13256 0.57134 0.98648 0.81748-0.09631-0.07275
   4  -8  -1   12.18    0.62   1-0.20165 0.49568 0.96843 0.86172-0.14650-0.10823
   4  -8   0   15.06    0.77   1-0.27310 0.41766 0.94129 0.89688-0.19842-0.14544
   4  -8   1   10.94    0.55   1-0.34455 0.33964 0.90477 0.92264-0.25033-0.18265
   4  -8   2   26.19    1.00   1-0.41369 0.26393 0.85937 0.93953-0.30056-0.21818
   4  -8   3   23.94    0.94   1-0.47916 0.19194 0.80573 0.94871-0.34813-0.25117
   4  -8   4   34.34    1.23   1-0.53824 0.12621 0.74656 0.95184-0.39105-0.27939
  -4   8  -4   36.59    1.29   1 0.05869-0.60579 0.99736 0.79261 0.04264-0.06915
   4  -8   5   10.28    0.78   1-0.10120 0.55566-0.90828-0.63842 0.40591 0.53259
   4  -8   5   11.32    0.83   1 0.03986 0.69669-0.98632-0.71661-0.15989-0.03282
   4  -8   5   10.64    0.46   1-0.59084 0.06696 0.68309 0.95066-0.42927-0.30289
  -4   8  -5   11.05    0.62   1-0.00925-0.66717 0.99993 0.73288-0.00672-0.13322
  -4   8  -6   16.77    1.00   1-0.12274-0.77192 0.86171 0.52989 0.49232 0.35121
   4  -8   6   17.68    1.01   1-0.14707 0.50297-0.79396-0.46185 0.58989 0.73054
   4  -8   6   17.10    0.86   1-0.63670 0.01446 0.61693 0.94680-0.46259-0.32149
  -4   8  -6   18.98    0.98   1-0.06873-0.72008 0.99638 0.66704-0.04993-0.19114
  -4   8  -7   11.36    0.74   1-0.15766-0.79995 0.75845 0.36430 0.63236 0.47682
   4  -8   7   12.13    0.73   1-0.16181 0.48150-0.74336-0.34890 0.64902 0.80400
   4  -8   7   11.49    0.71   1-0.67597-0.03144 0.54942 0.94158-0.49112-0.33530
  -4   8  -7   12.83    0.71   1-0.11954-0.76432 0.98902 0.59739-0.08685-0.24276
  -4   8  -8    7.49    0.41   1-0.17643-0.81183 0.68420 0.22771 0.70762 0.53765
   4  -8   8    7.94    0.46   1-0.16814 0.46844-0.71898-0.26218 0.67437 0.84369
   4  -8   8    7.08    0.47   1-0.70901-0.07113 0.48159 0.93605-0.51513-0.34459
  -4   8  -8    7.67    0.54   1-0.16203-0.80023 0.97973 0.52581-0.11772-0.28833
  -4   8  -9    1.97    0.38   1-0.18732-0.81585 0.63277 0.11395 0.75133 0.56692
   4  -8   9    2.16    0.50   1-0.17055 0.45929-0.70920-0.19004 0.68406 0.86771
  -4   8 -10    1.77    0.36   1-0.19382-0.81546 0.59840 0.01724 0.77739 0.57854
   4  -8  10    1.72    0.53   1-0.17072 0.45239-0.70850-0.12699 0.68474 0.88272
  -4   8 -11    2.00    0.52   1-0.19761-0.81237 0.57683-0.06665 0.79259 0.57931
   4  -8  11    1.78    0.48   1-0.16941 0.44697-0.71386-0.07000 0.67948 0.89180
   4  -8  11    1.75    0.45   1-0.77612-0.15818 0.28225 0.92359-0.56388-0.34920
  -4   8 -11    1.94    0.45   1-0.24628-0.86478 0.95253 0.31173-0.17893-0.39366
   4  -7  -9    9.58    0.60   1-0.23500 0.46035 0.23739-0.34469 0.94255 0.81808
  -4   7   9    9.28    0.59   1-0.09693-0.79045-0.91621-0.33439 0.38877 0.51318
   4  -7  -8    4.26    0.43   1-0.23632 0.45218 0.21378-0.30596 0.94786 0.83780
  -4   7   8    4.37    0.40   1-0.09190-0.77875-0.92502-0.40553 0.36861 0.47862
   4  -7  -7    4.12    0.41   1-0.23732 0.44433 0.19392-0.26349 0.95187 0.85623
  -4   7   7    4.18    0.47   1-0.08342-0.76359-0.93866-0.48151 0.33458 0.43019
   4  -7  -6   13.05    0.91   1-0.23799 0.43682 0.17945-0.21563 0.95454 0.87331
  -4   7   6   13.06    0.67   1-0.06996-0.74346-0.95727-0.56244 0.28060 0.36182
   4  -7  -5   29.00    1.68   1-0.23825 0.42971 0.17339-0.15936 0.95559 0.88879
  -4   7   5   29.53    1.34   1-0.04896-0.71578-0.97930-0.64681 0.19638 0.26319
   4  -7  -5   28.26    1.35   1-0.71099-0.04340-0.47711-0.81021-0.51656-0.58451
   4  -7  -4   21.38    1.28   1-0.23788 0.42324 0.18203-0.08838 0.95408 0.90169
  -4   7   4   22.03    0.91   1-0.01586-0.67601-0.99784-0.72769 0.06361 0.11603
   4  -7  -4   20.69    0.97   1 0.02520 0.68530 0.99951 0.72732 0.01831-0.03679
   4  -7  -3   14.42    0.90   1-0.23590 0.41838 0.22173 0.01364 0.94614 0.90816
  -4   7   3   15.05    0.64   1 0.03780-0.61555-0.98771-0.77982-0.15163-0.11388
   4  -7  -3   14.09    0.70   1-0.04292 0.61059 0.99859 0.78869-0.03118-0.07159
   4  -7  -2   12.79    0.84   1-0.13257 0.51481 0.83646 0.69068 0.53174 0.50786
   4  -7  -2   12.76    0.95   1-0.22499 0.42246 0.36751 0.22174 0.90239 0.87883
   4  -7  -2   13.68    0.66   1-0.11856 0.52839 0.98920 0.84160-0.08613-0.11183
   4  -7  -1   36.35    1.31   1-0.19934 0.44103 0.96916 0.88385-0.14483-0.15582
   4  -7   0   18.12    0.84   1-0.28209 0.35171 0.93723 0.91421-0.20495-0.20124
   4  -7   1    2.37    0.27   1-0.36331 0.26392 0.89348 0.93276-0.26396-0.24555
   4  -7   2    9.13    0.46   1-0.44057 0.18017 0.83870 0.94080-0.32009-0.28708
   4  -7   3    0.79    0.23   1-0.50993 0.10415 0.77633 0.94072-0.37049-0.32276
   4  -7   4    1.34    0.26   1-0.18626 0.42048-0.63814-0.40973 0.74704 0.80951
   4  -7   4    1.41    0.25   1 0.03794 0.64466-0.98762-0.75925-0.15220-0.08909
   4  -7   4    1.35    0.32   1-0.57097 0.03648 0.70845 0.93514-0.41483-0.35239
  -4   7  -4    1.43    0.27   1-0.02144-0.62897 0.99964 0.77349-0.01557-0.07810
  -4   7  -5    0.39    0.17   1-0.11242-0.71162 0.88545 0.59488 0.45092 0.37376
   4  -7   5    0.48    0.28   1-0.19775 0.40224-0.57601-0.28526 0.79315 0.86995
   4  -7   5    0.36    0.31   1-0.62332-0.02251 0.63747 0.92646-0.45287-0.37571
  -4   7  -5    0.33    0.25   1-0.09338-0.69434 0.99331 0.70486-0.06784-0.14508
  -4   7  -6    8.93    0.41   1-0.15090-0.74321 0.78160 0.42870 0.60524 0.51365
   4  -7   6    9.84    0.45   1-0.20089 0.39237-0.55712-0.20402 0.80576 0.89689
   4  -7   6    9.28    0.64   1-0.66731-0.07315 0.56536 0.91664-0.48482-0.39295
  -4   7  -6    9.42    0.43   1-0.15415-0.74854 0.98167 0.63093-0.11200-0.20394
  -4   7  -7    0.04    0.28   1-0.17265-0.75808 0.70045 0.28521 0.69249 0.58647
   4  -7   7    0.00    0.24   1-0.20108 0.38545-0.55599-0.14054 0.80649 0.91195
  -4   7  -8   11.52    0.70   1-0.18558-0.76413 0.64149 0.16392 0.74434 0.62388
   4  -7   8   12.02    0.72   1-0.19974 0.38006-0.56419-0.08639 0.80111 0.92091
   4  -7   8   11.10    0.97   1-0.73315-0.15228 0.42279 0.89866-0.53266-0.41136
  -4   7  -8   11.74    0.66   1-0.24469-0.82594 0.95316 0.47783-0.17778-0.29913
  -4   7  -9    9.09    0.54   1-0.19346-0.76512 0.60042 0.06052 0.77592 0.64103
   4  -7   9    9.31    0.63   1-0.19743 0.37563-0.57790-0.03775 0.79186 0.92599
   4  -7   9    8.43    0.78   1-0.75670-0.18248 0.35374 0.89190-0.54978-0.41375
  -4   7  -9    8.66    0.80   1-0.27662-0.85130 0.93972 0.40211-0.20097-0.33703
  -4   7 -10   19.77    1.12   1-0.19823-0.76301 0.57322-0.02901 0.79505 0.64573
   4  -7  10   21.02    1.06   1-0.19441 0.37192-0.59512 0.00737 0.77976 0.92823
   4  -7  10   19.63    0.97   1-0.77507-0.20750 0.28660 0.88705-0.56312-0.41239
  -4   7 -10   20.87    1.04   1-0.30119-0.86930 0.92811 0.32820-0.21882-0.36959
  -4   7 -11   10.94    0.69   1-0.20096-0.75886 0.55672-0.10784 0.80602 0.64225
   4  -7  11   11.65    0.70   1-0.19082 0.36878-0.61466 0.05018 0.76535 0.92816
   4  -7  11   12.38    0.72   1-0.78897-0.22859 0.22118 0.88445-0.57322-0.40679
  -4   7 -11   12.22    0.75   1-0.31944-0.88098 0.91874 0.25653-0.23209-0.39755
   4  -6 -10   12.03    0.71   1-0.23969 0.40570 0.13546-0.48782 0.96135 0.77293
  -4   6  10   11.69    0.74   1-0.10334-0.74678-0.90417-0.28101 0.41447 0.60278
  -4   6  10   11.01    0.62   1-0.30837-0.95261-0.92450-0.30223-0.22404-0.03425
   4  -6 -10   10.99    0.69   1-0.80889-0.16471 0.01725-0.60589-0.58769-0.77830
   4  -6  -9    2.48    0.44   1-0.24077 0.39777 0.09728-0.46367 0.96569 0.79169
  -4   6   9    2.56    0.50   1-0.10088-0.73765-0.90889-0.34806 0.40463 0.57854
  -4   6   9    2.29    0.34   1-0.28929-0.92681-0.93387-0.37387-0.21018-0.03495
   4  -6  -9    2.52    0.42   1-0.80739-0.16991-0.06332-0.62419-0.58660-0.76256
   4  -6  -8   19.60    1.06   1-0.24150 0.39020 0.05904-0.43957 0.96860 0.80901
  -4   6   8   19.94    0.95   1-0.09608-0.72617-0.91774-0.41925 0.38536 0.54488
   4  -6  -8   19.85    1.01   1-0.79991-0.16913-0.14955-0.64815-0.58117-0.74248
   4  -6  -7    3.83    0.37   1-0.24186 0.38273 0.02168-0.41490 0.97006 0.82545
  -4   6   7    3.67    0.34   1-0.08812-0.71154-0.93130-0.49513 0.35343 0.49854
   4  -6  -7    4.03    0.36   1-0.78498-0.16090-0.24193-0.67826-0.57032-0.71698
   4  -6  -6    4.15    0.39   1-0.24188 0.37591-0.01731-0.39154 0.97014 0.83987
  -4   6   6    4.19    0.35   1-0.07574-0.69249-0.94972-0.57589 0.30379 0.43451
   4  -6  -5    8.53    0.48   1-0.24152 0.36946-0.05729-0.36917 0.96870 0.85276
  -4   6   5    8.75    0.40   1-0.05698-0.66706-0.97185-0.66036 0.22857 0.34489
   4  -6  -4    0.08    0.30   1-0.24073 0.36345-0.09911-0.34864 0.96551 0.86391
  -4   6   4   -0.00    0.18   1-0.02876-0.63216-0.99290-0.74374 0.11536 0.21728
   4  -6  -4    0.06    0.21   1-0.67312-0.06919-0.55472-0.80338-0.48905-0.59142
   4  -6  -4   -0.01    0.25   1 0.05941 0.66255 0.99730 0.74651 0.04316-0.06120
   4  -6  -3    0.40    0.21   1-0.23938 0.35799-0.14442-0.33159 0.96012 0.87285
  -4   6   3    0.36    0.18   1 0.01332-0.58327-0.99848-0.81157-0.05345 0.03384
   4  -6  -3    0.30    0.24   1-0.02126 0.57529 0.99965 0.81116-0.01545-0.10512
   4  -6  -2    0.31    0.22   1-0.23717 0.35340-0.19710-0.32192 0.95125 0.87833
  -4   6   2    0.32    0.16   1 0.07473-0.51520-0.95109-0.82650-0.29973-0.22684
   4  -6  -2    0.34    0.23   1-0.11171 0.47827 0.99041 0.86421-0.08116-0.15613
   4  -6  -1   14.14    0.88   1-0.15334 0.43028 0.77343 0.71107 0.61504 0.55607
   4  -6  -1   14.11    1.01   1-0.23305 0.35072-0.26821-0.33068 0.93474 0.87615
   4  -6  -1   14.77    0.66   1-0.20808 0.37534 0.96635 0.90244-0.15118-0.21144
   4  -6   0    4.47    0.52   1-0.22192 0.35501 0.39812 0.39815 0.89008 0.84583
   4  -6   0    4.72    0.32   1-0.30514 0.27171 0.92614 0.92452-0.22169-0.26725
   4  -6   1   15.57    2.16   1-0.24180 0.32837 0.03127 0.09351 0.96982 0.93990
   4  -6   1   15.93    1.39   1-0.17743 0.39272-0.67975-0.61740 0.71165 0.68159
   4  -6   1   17.75    0.69   1-0.39749 0.17279 0.87097 0.93164-0.28879-0.31964
   4  -6   2   22.37    0.86   1-0.23978 0.32358-0.13246-0.00786 0.96174 0.94616
   4  -6   2   21.45    0.89   1-0.07718 0.48618-0.94774-0.82290 0.30956 0.29402
   4  -6   2   22.24    0.85   1-0.48171 0.08201 0.80340 0.92691-0.34998-0.36620
   4  -6   3   19.84    0.60   1-0.23643 0.32012-0.21177-0.02481 0.94828 0.94704
   4  -6   3   19.75    0.60   1 0.02440 0.58102-0.99489-0.80787-0.09788-0.09872
   4  -6   3   18.88    0.59   1-0.55376 0.00332 0.72902 0.91482-0.40233-0.40383
  -4   6  -3   19.31    0.58   1-0.02305-0.58019 0.99959 0.81433-0.01674-0.01531
  -4   6  -4   42.52    1.37   1-0.09516-0.64438 0.91938 0.67007 0.38167 0.36847
   4  -6   4   44.77    1.51   1-0.23320 0.31655-0.26603-0.01673 0.93532 0.94842
   4  -6   4   43.71    1.49   1-0.61404-0.06360 0.65108 0.89918-0.44613-0.43291
  -4   6  -4   45.77    1.52   1-0.11221-0.66279 0.99033 0.74277-0.08153-0.09479
  -4   6  -5   33.49    1.20   1-0.13831-0.68065 0.82044 0.50880 0.55474 0.52710
   4  -6   5   35.56    1.23   1-0.22995 0.31299-0.31055 0.00110 0.92231 0.94975
   4  -6   5   35.77    1.26   1-0.66327-0.11948 0.57257 0.88297-0.48189-0.45396
  -4   6  -5   36.15    1.25   1-0.18633-0.73033 0.97311 0.66326-0.13537-0.16335
  -4   6  -6   30.38    1.02   1-0.16434-0.69980 0.73383 0.35985 0.65915 0.61707
   4  -6   6   31.93    1.13   1-0.22659 0.30955-0.35031 0.02370 0.90881 0.95058
   4  -6   6   33.31    1.10   1-0.70275-0.16561 0.49541 0.86810-0.51058-0.46793
  -4   6  -6   32.44    1.06   1-0.24615-0.78358 0.95258 0.58044-0.17884-0.22151
  -4   6  -7   19.23    0.80   1-0.18029-0.70887 0.66675 0.23044 0.72314 0.66663
   4  -6   7   20.02    0.79   1-0.22303 0.30630-0.38732 0.04904 0.89455 0.95066
   4  -6   7   18.88    1.05   1-0.73395-0.20345 0.42066 0.85565-0.53324-0.47588
  -4   6  -7   20.21    0.80   1-0.29333-0.82419 0.93195 0.49751-0.21312-0.27050
  -4   6  -8   20.88    0.91   1-0.19024-0.71193 0.61774 0.11910 0.76301 0.69207
   4  -6   8   22.01    0.96   1-0.21926 0.30328-0.42257 0.07614 0.87940 0.94985
   4  -6   8   22.28    0.94   1-0.75821-0.23435 0.34878 0.84606-0.55087-0.47879
  -4   6  -8   22.41    0.94   1-0.32978-0.85407 0.91314 0.41642-0.23960-0.31168
  -4   6  -9   15.00    0.83   1-0.19645-0.71126 0.58357 0.02259 0.78793 0.70256
   4  -6   9   16.00    0.81   1-0.21523 0.30050-0.45658 0.10449 0.86325 0.94803
   4  -6   9   15.25    0.83   1-0.77668-0.25948 0.27986 0.83943-0.56429-0.47750
  -4   6  -9   15.66    0.81   1-0.35729-0.87501 0.89719 0.33817-0.25959-0.34638
  -4   6 -10    9.24    0.60   1-0.20024-0.70816 0.56116-0.06215 0.80311 0.70330
   4  -6  10    9.84    0.60   1-0.21093 0.29862-0.48969 0.13379 0.84599 0.94494
   4  -6  10    9.80    0.58   1-0.79033-0.28017 0.21365 0.83597-0.57421-0.47185
  -4   6 -10    9.63    0.60   1-0.37742-0.88857 0.88450 0.26319-0.27421-0.37571
  -4   6 -11    1.22    0.32   1-0.20235-0.70339 0.54805-0.13759 0.81159 0.69735
   4  -6  11    1.26    0.30   1-0.20634 0.29648-0.52202 0.16382 0.82759 0.94088
   4  -6  11    1.19    0.34   1-0.79984-0.29638 0.15012 0.83471-0.58112-0.46411
  -4   6 -11    1.21    0.37   1-0.39142-0.89600 0.87516 0.19155-0.28438-0.40059
  -4   6 -12    4.40    0.50   1-0.20325-0.69741 0.54233-0.20565 0.81520 0.68652
   4  -6  12    5.22    0.51   1-0.20145 0.29463-0.55369 0.19449 0.80798 0.93560
   4  -6  12    4.25    0.63   1-0.80581-0.30904 0.08892 0.83579-0.58545-0.45379
  -4   6 -12    4.40    0.65   1-0.40030-0.89831 0.86900 0.12310-0.29083-0.42174
   4  -5 -10    0.13    0.31   1-0.24188 0.34632 0.01712-0.58548 0.97015 0.73298
  -4   5  10    0.12    0.39   1-0.10465-0.69134-0.90158-0.29941 0.41975 0.65756
  -4   5  10    0.11    0.31   1-0.36978-0.95708-0.88942-0.28832-0.26866-0.02940
   4  -5 -10    0.02    0.54   1-0.80628-0.21902 0.08216-0.51965-0.58579-0.82582
   4  -5  -9    0.18    0.30   1-0.24180 0.33960-0.03130-0.57155 0.96982 0.74698
  -4   5   9    0.21    0.41   1-0.10202-0.68204-0.90671-0.36687 0.40921 0.63262
  -4   5   9    0.08    0.35   1-0.35106-0.93164-0.90094-0.36210-0.25506-0.03037
   4  -5  -9    0.18    0.49   1-0.80901-0.22845 0.00420-0.53533-0.58778-0.81316
   4  -5  -8    5.61    0.48   1-0.24110 0.33349-0.08192-0.55982 0.96703 0.75854
  -4   5   8    5.79    0.38   1-0.09713-0.67047-0.91585-0.43835 0.38957 0.59859
  -4   5   8    5.29    0.36   1-0.32388-0.89774-0.91636-0.43979-0.23531-0.02520
   4  -5  -8    5.32    0.50   1-0.80637-0.23251-0.08073-0.55800-0.58586-0.79659
   4  -5  -7   15.86    0.84   1-0.23968 0.32811-0.13562-0.55116 0.96133 0.76717
  -4   5   7   16.57    0.74   1-0.08923-0.65590-0.92948-0.51431 0.35789 0.55251
   4  -5  -7   15.52    0.84   1-0.79668-0.22952-0.17393-0.58892-0.57882-0.77490
   4  -5  -6    7.85    0.48   1-0.23733 0.32365-0.19372-0.54691 0.95191 0.77209
  -4   5   6    8.45    0.39   1-0.07724-0.63723-0.94766-0.59482 0.30979 0.49001
   4  -5  -6    7.87    0.41   1-0.77747-0.21701-0.27651-0.62923-0.56486-0.74630
   4  -5  -5    8.90    0.60   1-0.23371 0.32047-0.25820-0.54904 0.93739 0.77191
  -4   5   5    9.70    0.43   1-0.05953-0.61286-0.96924-0.67873 0.23880 0.40461
   4  -5  -5   10.05    0.46   1-0.74529-0.19153-0.38900-0.67945-0.54148-0.70827
   4  -5  -4   20.85    1.15   1-0.22818 0.31919-0.33215-0.56064 0.91520 0.76406
  -4   5   4   22.24    0.82   1-0.03381-0.58046-0.99018-0.76200 0.13563 0.28705
   4  -5  -4   22.56    0.96   1-0.69571-0.14866-0.51037-0.73855-0.50546-0.65760
   4  -5  -3   53.85    2.10   1-0.21951 0.32107-0.42036-0.58649 0.88040 0.74359
  -4   5   3   57.73    1.69   1 0.00268-0.53715-0.99993-0.83400-0.01076 0.12607
   4  -5  -3   57.63    1.91   1-0.62294-0.08267-0.63804-0.80327-0.45259-0.58984
   4  -5  -3   56.49    1.89   1-0.00480 0.53480 0.99998 0.83288-0.00349-0.14242
   4  -5  -2   34.58    1.38   1-0.20508 0.32848-0.53044-0.63415 0.82253 0.69996
  -4   5   2   36.57    1.20   1 0.05259-0.48057-0.97608-0.87247-0.21094-0.08851
   4  -5  -2   35.73    1.30   1-0.11645 0.41658 0.98958 0.88478-0.08460-0.20883
   4  -5  -1   35.25    1.28   1-0.11333 0.41344 0.88348 0.84219 0.45455 0.34606
   4  -5  -1   34.28    1.26   1-0.18013 0.34670-0.66753-0.70889 0.72246 0.61422
   4  -5  -1   33.82    1.24   1-0.23451 0.29195 0.95706 0.91455-0.17038-0.27990
   4  -5   0   39.96    1.55   1-0.17229 0.34759 0.70197 0.72302 0.69104 0.59699
   4  -5   0   38.35    1.49   1-0.13667 0.38342-0.82511-0.80412 0.54817 0.45426
   4  -5   0   37.77    1.42   1-0.34961 0.17028 0.90180 0.92158-0.25400-0.34882
   4  -5   1   41.26    1.37   1-0.21355 0.29970 0.46983 0.55332 0.85653 0.77718
   4  -5   1   39.19    1.43   1-0.07029 0.44298-0.95684-0.87335 0.28195 0.20252
   4  -5   1   41.17    1.46   1-0.45430 0.05906 0.82744 0.91006-0.33006-0.41023
   4  -5   2   35.26    1.22   1-0.23351 0.27289 0.26131 0.40712 0.93658 0.87165
   4  -5   2   35.43    1.20   1 0.00605 0.51257-0.99968-0.85400-0.02428-0.08908
   4  -5   2   34.29    1.20   1-0.54158-0.03486 0.74286 0.88778-0.39348-0.45893
  -4   5  -2   34.87    1.21   1-0.00740-0.51416 0.99995 0.85558-0.00538 0.06002
   4  -5   3    8.16    0.39   1-0.24065 0.25890 0.10213 0.31028 0.96522 0.91470
   4  -5   3    8.44    0.40   1 0.07221 0.57206-0.95441-0.74641-0.28962-0.34000
   4  -5   3    8.16    0.41   1-0.61177-0.11170 0.65435 0.86156-0.44447-0.49520
  -4   5  -3    8.59    0.41   1-0.12207-0.62225 0.98855 0.78188-0.08869-0.03798
  -4   5  -4   12.75    0.47   1-0.11984-0.61220 0.86868 0.59829 0.48065 0.51696
   4  -5   4   13.11    0.46   1-0.24189 0.25106-0.01521 0.25513 0.97018 0.93374
   4  -5   4   13.60    0.47   1-0.66653-0.17311 0.56675 0.83626-0.48426-0.52028
  -4   5  -4   13.26    0.50   1-0.21523-0.70885 0.96395 0.69500-0.15638-0.12038
  -4   5  -5    4.52    0.27   1-0.15097-0.63645 0.78137 0.44864 0.60552 0.62740
   4  -5   5    4.77    0.30   1-0.24054 0.24561-0.10669 0.22600 0.96475 0.94265
   4  -5   5    4.88    0.30   1-0.70850-0.22173 0.48273 0.81453-0.51476-0.53606
  -4   5  -5    4.46    0.31   1-0.28806-0.77510 0.93446 0.60321-0.20928-0.18799
  -4   5  -6    2.53    0.29   1-0.17096-0.64955 0.70753 0.31247 0.68568 0.69313
   4  -5   6    2.62    0.32   1-0.23792 0.24142-0.18096 0.21409 0.95427 0.94651
   4  -5   6    2.70    0.26   1-0.74029-0.26016 0.40334 0.79743-0.53785-0.54443
  -4   5  -6    2.57    0.34   1-0.34352-0.82400 0.90537 0.51182-0.24958-0.24300
  -4   5  -7    0.31    0.28   1-0.18378-0.65550 0.65027 0.19287 0.73713 0.73014
   4  -5   7    0.27    0.27   1-0.23461 0.23793-0.24398 0.21342 0.94097 0.94754
  -4   5  -7    0.40    0.23   1-0.38495-0.85886 0.87953 0.42370-0.27968-0.28780
  -4   5  -8    8.03    0.40   1-0.19203-0.65687 0.60817 0.08844 0.77022 0.74879
   4  -5   8    8.26    0.39   1-0.23082 0.23491-0.29937 0.22038 0.92579 0.94670
   4  -5   8    8.29    0.65   1-0.78152-0.31468 0.25848 0.77716-0.56781-0.54496
  -4   5  -8    8.67    0.42   1-0.41528-0.88262 0.85819 0.34007-0.30172-0.32454
  -4   5  -9    0.25    0.34   1-0.19728-0.65523 0.57876-0.00330 0.79127 0.75541
   4  -5   9    0.50    0.34   1-0.22667 0.23225-0.34937 0.23274 0.90915 0.94439
   4  -5   9    0.34    0.26   1-0.79393-0.33398 0.19220 0.77358-0.57682-0.53853
  -4   5  -9    0.25    0.28   1-0.43756-0.89775 0.84111 0.26012-0.31791-0.35547
  -4   5 -10    8.19    0.51   1-0.20049-0.65156 0.55961-0.08478 0.80413 0.75384
   4  -5  10    7.64    0.39   1-0.22220 0.22992-0.39541 0.24904 0.89121 0.94080
   4  -5  10    7.15    0.44   1-0.80222-0.34898 0.12926 0.77291-0.58285-0.52991
  -4   5 -10    8.21    0.55   1-0.45221-0.90576 0.82918 0.18591-0.32855-0.38083
  -4   5 -11    4.93    0.39   1-0.20224-0.64643 0.54873-0.15799 0.81116 0.74643
   4  -5  11    5.35    0.36   1-0.21742 0.22790-0.43846 0.26835 0.87205 0.93597
   4  -5  11    5.04    0.47   1-0.80707-0.36053 0.06923 0.77516-0.58637-0.51878
  -4   5 -11    5.47    0.56   1-0.46130-0.90820 0.82150 0.11593-0.33515-0.40215
  -4   5 -12   12.59    0.60   1-0.20290-0.64021 0.54454-0.22452 0.81381 0.73465
   4  -5  12   14.51    0.61   1-0.21233 0.22697-0.47921 0.28996 0.85162 0.92973
   4  -5  12   12.79    0.90   1-0.80896-0.36912 0.01168 0.77988-0.58774-0.50550
  -4   5 -12   11.82    1.09   1-0.46583-0.90608 0.81758 0.04972-0.33844-0.42015
   4  -4 -11    6.66    0.44   1-0.24174 0.29646-0.03810-0.68202 0.96959 0.66854
  -4   4  11    6.81    0.50   1-0.10493-0.64154-0.90103-0.25752 0.42085 0.72256
  -4   4  11    6.90    0.46   1-0.44375-0.98082-0.83614-0.19393-0.32240-0.01912
   4  -4 -11    6.70    0.45   1-0.78722-0.25018 0.23052-0.41224-0.57195-0.87605
   4  -4 -10   15.64    0.95   1-0.24089 0.29051-0.09218-0.67375 0.96616 0.67945
  -4   4  10   17.22    0.94   1-0.10371-0.63365-0.90343-0.32225 0.41598 0.70330
  -4   4  10   18.11    0.92   1-0.43375-0.96411-0.84411-0.26417-0.31514-0.02643
   4  -4 -10   17.58    0.99   1-0.79796-0.26762 0.16472-0.41576-0.57975-0.86920
   4  -4  -9   15.32    0.79   1-0.23922 0.28537-0.14895-0.66817 0.95947 0.68709
  -4   4   9   16.81    0.84   1-0.10073-0.62400-0.90917-0.39033 0.40403 0.67695
  -4   4   9   16.28    0.77   1-0.41649-0.94012-0.85730-0.33962-0.30260-0.02845
   4  -4  -9   16.40    0.90   1-0.80551-0.28187 0.09291-0.42529-0.58524-0.86004
   4  -4  -8   26.34    1.28   1-0.23656 0.28123-0.20927-0.66613 0.94880 0.69077
  -4   4   8   28.24    1.29   1-0.09551-0.61210-0.91876-0.46224 0.38308 0.64160
  -4   4   8   28.11    1.27   1-0.38993-0.90685-0.87617-0.42077-0.28330-0.02373
   4  -4  -8   24.95    1.25   1-0.80894-0.29200 0.01341-0.44252-0.58773-0.84788
   4  -4  -7    6.39    0.40   1-0.23264 0.27835-0.27427-0.66877 0.93308 0.68939
  -4   4   7    6.64    0.37   1-0.08736-0.59728-0.93251-0.53833 0.35039 0.59451
  -4   4   7    7.04    0.40   1-0.35129-0.86148-0.90080-0.50767-0.25522-0.01022
   4  -4  -7    6.45    0.43   1-0.80667-0.29644-0.07600-0.46966-0.58608-0.83158
   4  -4  -6   42.08    1.49   1-0.22702 0.27716-0.34544-0.67760 0.91056 0.68120
  -4   4   6   44.85    1.34   1-0.07530-0.57855-0.95031-0.61846 0.30204 0.53176
  -4   4   6   41.95    1.26   1-0.29684-0.80032-0.93025-0.59938-0.21566 0.01475
   4  -4  -6   43.46    1.47   1-0.79609-0.29255-0.17805-0.50944-0.57839-0.80924
   4  -4  -5    8.51    0.52   1-0.21901 0.27837-0.42476-0.69456 0.87841 0.66339
  -4   4   5    9.21    0.39   1-0.05798-0.55455-0.97085-0.70133 0.23255 0.44787
   4  -4  -5    8.76    0.41   1-0.77284-0.27601-0.29566-0.56478-0.56150-0.77770
   4  -4  -4   14.38    0.59   1-0.20737 0.28287-0.51497-0.72238 0.83174 0.63098
  -4   4   4   14.97    0.47   1-0.03359-0.52348-0.99031-0.78313 0.13473 0.33565
   4  -4  -4   15.81    0.63   1-0.73009-0.23996-0.43080-0.63764-0.53044-0.73199
   4  -4  -3   19.71    0.69   1-0.19032 0.29319-0.61728-0.76234 0.76336 0.57694
  -4   4   3   20.19    0.62   1-0.00031-0.48339-0.99999-0.85504 0.00128 0.18766
   4  -4  -3   20.78    0.76   1-0.65742-0.17409-0.58279-0.72685-0.47764-0.66435
   4  -4  -3   19.37    0.79   1 0.00258 0.48523 0.99999 0.85430 0.00187-0.18631
   4  -4  -2    0.20    0.15   1-0.16488 0.31190-0.73176-0.81448 0.66130 0.48921
  -4   4   2    0.15    0.20   1 0.04320-0.43320-0.98392-0.90129-0.17329-0.00131
   4  -4  -2    0.20    0.16   1-0.54634-0.06973-0.73752-0.81931-0.39694-0.56908
   4  -4  -2    0.08    0.23   1-0.14213 0.33395 0.98444 0.90104-0.10326-0.27675
   4  -4  -1    2.84    0.23   1-0.09469 0.37522 0.92020 0.90000 0.37981 0.22180
   4  -4  -1    2.91    0.23   1-0.12735 0.34270-0.85022-0.87059 0.51077 0.35302
   4  -4  -1    2.81    0.25   1-0.29186 0.17764 0.93265 0.91154-0.21205-0.37083
   4  -4   0    0.57    0.14   1-0.14627 0.31676 0.79650 0.83864 0.58666 0.44310
   4  -4   0    0.49    0.15   1-0.07551 0.38768-0.95002-0.90787 0.30288 0.15955
   4  -4   0    0.56    0.16   1-0.42929 0.03370 0.84760 0.88933-0.31189-0.45600
   4  -4   1   17.31    0.54   1-0.18830 0.26785 0.62781 0.73228 0.75523 0.62610
   4  -4   1   16.47    0.52   1-0.01404 0.44248-0.99831-0.89382 0.05631-0.07261
   4  -4   1   16.21    0.53   1-0.53939-0.08304 0.74530 0.84933-0.39189-0.52128
  -4   4  -1   16.28    0.50   1 0.04004-0.41632 0.99877 0.89529 0.02909 0.15846
   4  -4   2    3.66    0.25   1-0.21620 0.23339 0.44866 0.61560 0.86715 0.75269
   4  -4   2    3.69    0.26   1 0.04625 0.49601-0.98155-0.81489-0.18552-0.29985
   4  -4   2    3.70    0.29   1-0.62198-0.17227 0.63947 0.80580-0.45189-0.56657
  -4   4  -2    3.76    0.28   1-0.11617-0.56597 0.98963 0.82386-0.08440 0.03026
  -4   4  -3   18.06    0.49   1-0.09609-0.53848 0.91772 0.68859 0.38540 0.48567
   4  -4   3   19.44    0.52   1-0.23162 0.21112 0.28866 0.51793 0.92899 0.82895
   4  -4   3   19.38    0.52   1-0.68153-0.23848 0.53881 0.76743-0.49516-0.59512
  -4   4  -3   19.83    0.55   1-0.23917-0.68240 0.95529 0.72723-0.17377-0.07380
  -4   4  -4   22.28    0.63   1-0.13221-0.56772 0.83744 0.54597 0.53029 0.61612
   4  -4   4   23.58    0.85   1-0.23901 0.19688 0.15458 0.44618 0.95863 0.87301
   4  -4   4   22.97    0.56   1-0.72388-0.28747 0.44652 0.73744-0.52593-0.61117
  -4   4  -4   23.95    0.87   1-0.33060-0.76726 0.91269 0.62233-0.24019-0.15493
  -4   4  -5   21.73    0.70   1-0.15696-0.58559 0.76093 0.40713 0.62955 0.70094
   4  -4   5   22.39    0.56   1-0.24168 0.18736 0.04380 0.39773 0.96936 0.89816
   4  -4   5   22.14    0.62   1-0.75389-0.32412 0.36281 0.71602-0.54773-0.61826
  -4   4  -5   22.42    0.61   1-0.39654-0.82663 0.87163 0.51898-0.28810-0.21755
  -4   4  -6   44.62    1.43   1-0.17352-0.59526 0.69679 0.28066 0.69595 0.75292
   4  -4   6   46.78    1.41   1-0.24164 0.18089-0.04766 0.36842 0.96919 0.91188
   4  -4   6   45.26    1.37   1-0.77505-0.35194 0.28668 0.70218-0.56311-0.61892
  -4   4  -6   47.45    1.44   1-0.44411-0.86723 0.83584 0.42034-0.32267-0.26685
  -4   4  -7   34.63    1.19   1-0.18451-0.59937 0.64674 0.16826 0.74005 0.78258
   4  -4   7   34.63    1.08   1-0.23996 0.17577-0.12682 0.35162 0.96245 0.91949
   4  -4   7   34.05    1.08   1-0.78971-0.37329 0.21713 0.69529-0.57376-0.61418
  -4   4  -7   35.34    1.13   1-0.47673-0.89320 0.80792 0.33012-0.34637-0.30527
  -4   4  -8   21.57    0.84   1-0.19176-0.59974 0.60963 0.06883 0.76913 0.79722
   4  -4   8   22.22    0.82   1-0.23722 0.17170-0.19601 0.34478 0.95147 0.92284
   4  -4   8   21.07    0.82   1-0.79957-0.38985 0.15233 0.69277-0.58092-0.60669
  -4   4  -8   22.77    0.88   1-0.49900-0.90882 0.78711 0.24702-0.36254-0.33616
  -4   4  -9   21.03    0.94   1-0.19645-0.59754 0.58357-0.01956 0.78793 0.80159
   4  -4   9   21.02    0.90   1-0.23374 0.16838-0.25774 0.34541 0.93751 0.92321
   4  -4   9   20.35    0.94   1-0.80560-0.40258 0.09169 0.69440-0.58530-0.59643
  -4   4  -9   22.32    0.98   1-0.51353-0.91670 0.77271 0.17032-0.37310-0.36143
  -4   4 -10   18.21    0.97   1-0.19933-0.59354 0.56664-0.09882 0.79948 0.79870
   4  -4  10   19.74    0.94   1-0.22970 0.16562-0.31378 0.35172 0.92128 0.92133
   4  -4  10   16.94    0.93   1-0.80853-0.41221 0.03439 0.69937-0.58743-0.58391
  -4   4 -10   17.67    0.99   1-0.52212-0.91865 0.76385 0.09917-0.37934-0.38239
  -4   4 -11   12.63    0.72   1-0.20088-0.58821 0.55720-0.17061 0.80571 0.79050
   4  -4  11   12.66    0.68   1-0.22519 0.16333-0.36541 0.36245 0.90319 0.91757
   4  -4  11   12.68    0.75   1-0.80885-0.41923-0.02020 0.70705-0.58766-0.56949
  -4   4 -11   11.24    0.91   1-0.52605-0.91594 0.75972 0.03274-0.38220-0.39997
  -4   4 -12    8.15    0.45   1-0.20142-0.58187 0.55389-0.23625 0.80785 0.77821
   4  -4  12    8.32    0.60   1-0.22026 0.16145-0.41353 0.37668 0.88344 0.91216
   4  -4  12    8.16    0.98   1-0.80688-0.42396-0.07259 0.71693-0.58623-0.55341
  -4   4 -12    6.70    1.32   1-0.52619-0.90943 0.75958-0.02969-0.38230-0.41478
  -4   3  12    0.02    0.46   1-0.10264-0.58917-0.90553-0.22067 0.41167 0.77728
  -4   3  12   -0.00    0.37   1-0.50869-0.99554-0.77757-0.09426-0.36959-0.00228
   4  -3 -12    0.17    0.32   1-0.74932-0.26358 0.37698-0.30740-0.54441-0.91434
   4  -3 -11    2.56    0.35   1-0.23984 0.24156-0.13067-0.75355 0.96197 0.61138
  -4   3  11    2.48    0.46   1-0.10241-0.58227-0.90597-0.28344 0.41076 0.76198
  -4   3  11    2.52    0.37   1-0.50717-0.98730-0.77909-0.15804-0.36848-0.01574
   4  -3 -11    2.39    0.33   1-0.76506-0.28596 0.32512-0.29697-0.55585-0.91105
   4  -3 -10    5.54    0.40   1-0.23749 0.23711-0.19045-0.75097 0.95253 0.61628
  -4   3  10    6.29    0.49   1-0.10073-0.57391-0.90919-0.34900 0.40400 0.74082
  -4   3  10    6.18    0.41   1-0.50009-0.97350-0.78605-0.22728-0.36333-0.02517
   4  -3 -10    6.41    0.45   1-0.77906-0.30661 0.26959-0.29020-0.56602-0.90651
   4  -3  -9    2.52    0.42   1-0.23401 0.23378-0.25352-0.75169 0.93859 0.61668
  -4   3   9    2.60    0.31   1-0.09725-0.56376-0.91563-0.41778 0.39006 0.71247
  -4   3   9    2.79    0.31   1-0.48580-0.95249-0.79962-0.30312-0.35296-0.02936
   4  -3  -9    2.49    0.31   1-0.79182-0.32511 0.20503-0.29185-0.57529-0.89951
   4  -3  -8    0.17    0.24   1-0.22914 0.23185-0.32072-0.75654 0.91903 0.61146
  -4   3   8    0.15    0.23   1-0.09152-0.55136-0.92567-0.49015 0.36707 0.67509
  -4   3   8    0.09    0.31   1-0.46179-0.92176-0.82108-0.38684-0.33551-0.02648
   4  -3  -8    0.15    0.25   1-0.80132-0.34131 0.13753-0.29708-0.58219-0.89176
   4  -3  -7    0.30    0.22   1-0.22245 0.23174-0.39304-0.76650 0.89220 0.59897
  -4   3   7    0.37    0.31   1-0.08289-0.53605-0.93946-0.56628 0.33245 0.62607
  -4   3   7    0.26    0.19   1-0.42413-0.87738-0.85156-0.47959-0.30814-0.01369
   4  -3  -7    0.19    0.24   1-0.80753-0.35422 0.06047-0.31186-0.58670-0.88162
   4  -3  -6   10.58    0.45   1-0.21333 0.23405-0.47157-0.78268 0.85563 0.57673
  -4   3   6   11.04    0.42   1-0.07047-0.51697-0.95662-0.64576 0.28267 0.56189
  -4   3   6   11.13    0.41   1-0.36683-0.81337-0.89128-0.58158-0.26652 0.01336
   4  -3  -6    9.96    0.45   1-0.80864-0.36203-0.03035-0.34041-0.58751-0.86778
   4  -3  -5   22.27    0.87   1-0.20082 0.23937-0.55755-0.80632 0.80548 0.54086
  -4   3   5   23.23    0.81   1-0.05312-0.49294-0.97559-0.72706 0.21306 0.47788
   4  -3  -5   23.14    0.89   1-0.80089-0.36098-0.14134-0.38913-0.58188-0.84750
   4  -3  -4   12.49    0.61   1-0.18366 0.24980-0.65086-0.83728 0.73664 0.48636
  -4   3   4   12.39    0.46   1-0.02943-0.46257-0.99257-0.80638 0.11804 0.36847
   4  -3  -4   11.66    0.49   1-0.77631-0.34310-0.28145-0.46697-0.56402-0.81499
   4  -3  -3   18.50    0.57   1-0.15997 0.26676-0.75014-0.87421 0.64162 0.40568
  -4   3   3   17.88    0.53   1 0.00176-0.42455-0.99997-0.87600-0.00707 0.22885
   4  -3  -3   17.71    0.62   1-0.71857-0.29205-0.45945-0.58269-0.52207-0.75839
   4  -3  -3   18.08    0.72   1-0.00884 0.41684 0.99993 0.87564-0.00642-0.24389
   4  -3  -2   27.40    0.75   1-0.12766 0.29234-0.84942-0.91114 0.51203 0.29042
  -4   3   2   28.05    0.83   1 0.04107-0.37857-0.98547-0.92382-0.16475 0.05675
   4  -3  -2   28.73    0.94   1-0.59976-0.18010-0.67111-0.73174-0.43575-0.65735
   4  -3  -2   27.03    0.98   1-0.21278 0.20633 0.96478 0.90278-0.15459-0.37735
   4  -3  -1   78.62    2.03   1-0.08645 0.32661 0.93396 0.93484 0.34674 0.13922
   4  -3  -1   77.19    2.07   1-0.08523 0.32789-0.93588-0.93507 0.34184 0.13461
   4  -3  -1   73.65    2.18   1-0.40932 0.00323 0.86256 0.86285-0.29738-0.50544
   4  -3   0   51.57    1.43   1-0.13219 0.27398 0.83749 0.90070 0.53021 0.33713
   4  -3   0   50.31    1.39   1-0.03448 0.37196-0.98978-0.92664 0.13832-0.05451
   4  -3   0   49.45    1.42   1-0.55993-0.15395 0.72178 0.78493-0.40681-0.60015
   4  -3   1   64.55    1.76   1-0.17195 0.22734 0.70340 0.82895 0.68967 0.51102
   4  -3   1   63.34    1.71   1 0.01911 0.41878-0.99687-0.87155-0.07667-0.25496
   4  -3   1   62.15    1.72   1-0.65627-0.25694 0.58476 0.71020-0.47681-0.65543
  -4   3  -1   63.76    1.74   1-0.07710-0.47652 0.99544 0.87057-0.05602 0.12261
   4  -3   2   74.30    1.89   1-0.20164 0.19077 0.55251 0.74039 0.80874 0.64453
   4  -3   2   73.63    1.90   1 0.06830 0.46130-0.95930-0.77167-0.27397-0.43785
   4  -3   2   69.67    1.79   1-0.71551-0.32282 0.46667 0.65441-0.51985-0.68375
  -4   3  -2   73.92    1.90   1-0.25417-0.64701 0.94936 0.76219-0.18466-0.02073
  -4   3  -3   25.75    0.66   1-0.10836-0.49389 0.89407 0.64385 0.43461 0.58439
   4  -3   3   26.80    0.67   1-0.22130 0.16462 0.40396 0.65436 0.88760 0.73804
   4  -3   3   24.55    0.58   1-0.75229-0.36624 0.36785 0.61788-0.54657-0.69576
  -4   3  -3   25.57    0.69   1-0.37499-0.76126 0.88608 0.63662-0.27244-0.12321
  -4   3  -4   43.20    1.12   1-0.13792-0.51657 0.82157 0.50902 0.55316 0.68851
   4  -3   4   45.30    1.14   1-0.23289 0.14619 0.27063 0.58336 0.93408 0.79894
   4  -3   4   42.17    1.06   1-0.77568-0.39629 0.28407 0.59639-0.56357-0.69804
  -4   3  -4   44.75    1.14   1-0.45553-0.83493 0.82640 0.51408-0.33096-0.19649
  -4   3  -5   18.45    0.56   1-0.15883-0.53060 0.75427 0.37938 0.63706 0.75797
   4  -3   5   19.37    0.57   1-0.23903 0.13320 0.15413 0.52919 0.95870 0.83797
   4  -3   5   17.94    0.57   1-0.79063-0.41772 0.21197 0.58691-0.57442-0.69356
  -4   3  -5   19.40    0.58   1-0.50737-0.88012 0.77889 0.40427-0.36862-0.24887
  -4   3  -6    9.52    0.40   1-0.17330-0.53818 0.69774 0.26051 0.69507 0.80155
   4  -3   6   10.56    0.39   1-0.24158 0.12380 0.05307 0.49046 0.96892 0.86262
   4  -3   6    9.63    0.44   1-0.80024-0.43404 0.14686 0.58408-0.58141-0.68589
  -4   3  -6   10.27    0.42   1-0.54113-0.90723 0.74337 0.30646-0.39315-0.28811
  -4   3  -7   12.45    0.45   1-0.18318-0.54118 0.65318 0.15363 0.73470 0.82674
   4  -3   7   12.29    0.43   1-0.24178 0.11715-0.03393 0.46555 0.96973 0.87722
   4  -3   7   10.86    1.76   1-0.80591-0.44640 0.08753 0.58702-0.58552-0.67536
  -4   3  -7   12.67    1.18   1-0.56275-0.92221 0.71842 0.21921-0.40886-0.31854
  -4   3  -8    2.95    0.28   1-0.18984-0.54096 0.61981 0.05792 0.76143 0.83904
   4  -3   8    2.79    0.28   1-0.24040 0.11173-0.11188 0.44995 0.96420 0.88603
   4  -3   8    2.53    0.49   1-0.80858-0.45578 0.03248 0.59424-0.58747-0.66266
  -4   3  -9    0.19    0.24   1-0.19422-0.53846 0.59617-0.02804 0.77900 0.84217
   4  -3   9    0.15    0.32   1-0.23789 0.10743-0.18170 0.44249 0.95414 0.89031
  -4   3 -10    3.39    0.42   1-0.19694-0.53430 0.58074-0.10581 0.78990 0.83864
   4  -3  10    3.29    0.36   1-0.23454 0.10398-0.24505 0.44149 0.94071 0.89121
  -4   3 -11    0.04    0.40   1-0.19841-0.52888 0.57216-0.17673 0.79578 0.83008
   4  -3  11    0.14    0.26   1-0.23053 0.10119-0.30322 0.44567 0.92461 0.88945
  -4   3 -12    3.64    0.48   1-0.19889-0.52248 0.56927-0.24195 0.79772 0.81759
   4  -3  12    3.70    0.33   1-0.22596 0.09895-0.35720 0.45405 0.90628 0.88546
  -4   3 -12    2.65    1.03   1-0.58079-0.90701 0.69615-0.11453-0.42196-0.40522
   4  -2 -12    0.74    0.32   1-0.23910 0.19230-0.15220-0.81639 0.95898 0.54452
  -4   2  12    0.82    0.32   1-0.09884-0.52862-0.91272-0.24885 0.39644 0.81155
  -4   2  12    0.67    0.48   1-0.56889-0.99880-0.71099-0.04884-0.41332 0.00343
   4  -2 -12    0.65    0.31   1-0.71463-0.28590 0.46874-0.19424-0.51921-0.93836
   4  -2 -11   19.99    1.04   1-0.23635 0.18825-0.21328-0.81512 0.94796 0.54784
  -4   2  11   21.49    1.05   1-0.09808-0.52119-0.91411-0.31258 0.39341 0.79413
  -4   2  11   20.39    1.07   1-0.57080-0.99398-0.70865-0.10877-0.41471-0.01251
   4  -2 -11   22.38    1.09   1-0.73088-0.30880 0.42875-0.17193-0.53101-0.93545
   4  -2 -10   11.94    0.68   1-0.23243 0.18536-0.27721-0.81670 0.93226 0.54647
  -4   2  10   13.32    0.68   1-0.09583-0.51226-0.91819-0.37899 0.38435 0.77067
  -4   2  10   13.15    0.74   1-0.56784-0.98431-0.71227-0.17466-0.41256-0.02493
   4  -2 -10   12.71    0.63   1-0.74589-0.33045 0.38725-0.15113-0.54192-0.93164
   4  -2  -9    9.61    0.51   1-0.22710 0.18389-0.34457-0.82170 0.91087 0.53942
  -4   2   9   11.13    0.58   1-0.09173-0.50149-0.92531-0.44844 0.36794 0.73986
  -4   2   9   11.49    0.59   1-0.55839-0.96814-0.72360-0.24825-0.40569-0.03264
   4  -2  -9   10.49    0.48   1-0.75973-0.35094 0.34368-0.13241-0.55198-0.92698
   4  -2  -8   40.12    1.47   1-0.21999 0.18419-0.41600-0.83078 0.88235 0.52523
  -4   2   8   41.05    1.36   1-0.08535-0.48844-0.93568-0.52115 0.34234 0.69986
  -4   2   8   41.47    1.35   1-0.53968-0.94271-0.74497-0.33190-0.39210-0.03362
   4  -2  -8   39.13    1.32   1-0.77248-0.37034 0.29710-0.11670-0.56124-0.92153
   4  -2  -7   28.67    1.14   1-0.21059 0.18629-0.49218-0.84466 0.84463 0.50183
  -4   2   7   29.18    0.95   1-0.07608-0.47249-0.94925-0.59705 0.30515 0.64827
  -4   2   7   28.92    0.95   1-0.50684-0.90315-0.77942-0.42861-0.36824-0.02433
   4  -2  -7   28.26    1.03   1-0.78416-0.38867 0.24593-0.10557-0.56973-0.91530
   4  -2  -6   51.49    1.69   1-0.19821 0.19193-0.57329-0.86341 0.79501 0.46654
  -4   2   6   49.95    1.53   1-0.06312-0.45286-0.96535-0.67548 0.25319 0.58191
  -4   2   6   52.75    1.56   1-0.45100-0.84059-0.83019-0.54165-0.32767 0.00166
   4  -2  -6   51.13    1.73   1-0.79552-0.40583 0.18184-0.10689-0.57798-0.90767
   4  -2  -5   18.54    0.61   1-0.18191 0.20150-0.65922-0.88699 0.72961 0.41548
  -4   2   5   18.36    0.57   1-0.04551-0.42858-0.98214-0.75461 0.18254 0.49687
  -4   2   5   18.54    0.55   1-0.35552-0.73839-0.89826-0.67199-0.25830 0.05646
   4  -2  -5   17.33    0.63   1-0.80419-0.42120 0.10898-0.11748-0.58428-0.89932
   4  -2  -4   66.20    1.56   1-0.16045 0.21623-0.74839-0.91382 0.64354 0.34375
  -4   2   4   68.75    1.60   1-0.02218-0.39858-0.99578-0.83058 0.08899 0.38892
   4  -2  -3   18.07    0.56   1-0.13250 0.23745-0.83665-0.93973 0.53145 0.24599
  -4   2   3   18.49    0.52   1 0.00752-0.36203-0.99951-0.89652-0.03017 0.25529
   4  -2  -3   16.49    0.60   1-0.79990-0.43031-0.14969-0.25161-0.58116-0.86690
   4  -2  -3   18.85    0.64   1-0.07433 0.29440 0.99576 0.89287-0.05400-0.34073
   4  -2  -2   34.78    1.05   1-0.09694 0.26610-0.91619-0.95673 0.38881 0.11768
  -4   2   2   33.93    1.05   1 0.04372-0.31916-0.98352-0.94285-0.17538 0.09567
   4  -2  -2   33.55    1.12   1-0.72752-0.36463-0.43740-0.47704-0.52857-0.79966
   4  -2  -2   34.37    1.31   1-0.41701-0.05485 0.85691 0.81630-0.30298-0.57500
   4  -2  -1   27.61    0.81   1-0.05443 0.30193-0.97435-0.95255 0.21833-0.03839
   4  -2  -1   30.13    1.06   1-0.45812-0.10212-0.82422-0.80141-0.33284-0.58933
   4  -2  -1   27.51    0.93   1-0.65087-0.29525 0.59391 0.61617-0.47288-0.73016
   4  -2   0    2.04    0.33   1-0.12556 0.22375 0.85474 0.93904 0.50363 0.26102
   4  -2   0    2.12    0.22   1-0.00753 0.34216-0.99951-0.91538 0.03021-0.21212
   4  -2   0    2.29    0.21   1-0.74056-0.39159 0.40256 0.48712-0.53805-0.78061
   4  -2   1    6.07    0.32   1-0.16232 0.18011 0.74147 0.88810 0.65105 0.42288
   4  -2   1    6.07    0.36   1 0.03894 0.38184-0.98695-0.84066-0.15618-0.38402
   4  -2   1    5.71    0.31   1-0.77558-0.43326 0.28448 0.43133-0.56349-0.79134
  -4   2  -1    5.97    0.32   1-0.24827-0.59072 0.95174 0.80546-0.18038 0.04752
   4  -2   2    0.72    0.16   1-0.19160 0.14395 0.61049 0.81946 0.76849 0.55475
   4  -2   2    0.74    0.17   1-0.79187-0.45578 0.20477 0.41422-0.57532-0.78782
  -4   2  -2    0.83    0.16   1-0.42555-0.76122 0.85047 0.64133-0.30918-0.09604
  -4   2  -3    8.48    0.34   1-0.11401-0.44268 0.88198 0.61069 0.45727 0.65657
   4  -2   3    8.78    0.37   1-0.21281 0.11630 0.47557 0.74708 0.85354 0.65446
   4  -2   3    8.16    0.42   1-0.80107-0.47169 0.13975 0.41147-0.58201-0.77986
  -4   2  -3    8.23    0.37   1-0.52247-0.85149 0.76349 0.49206-0.37959-0.18118
  -4   2  -4    1.90    0.26   1-0.13937-0.46116 0.81738 0.48374 0.55898 0.74385
   4  -2   4    2.00    0.25   1-0.22676 0.09550 0.34841 0.68227 0.90949 0.72483
   4  -2   4    1.94    0.34   1-0.80612-0.48344 0.08444 0.41844-0.58568-0.76888
  -4   2  -4    2.11    0.28   1-0.57765-0.90003 0.70012 0.36639-0.41969-0.23599
  -4   2  -5   12.27    0.48   1-0.15783-0.47274 0.75787 0.36190 0.63302 0.80345
   4  -2   5   13.66    0.46   1-0.23528 0.08013 0.23260 0.62878 0.94368 0.77343
   4  -2   5   11.69    0.51   1-0.80852-0.49254 0.03488 0.43115-0.58742-0.75598
  -4   2  -5   12.65    0.94   1-0.60985-0.92559 0.65707 0.26104-0.44308-0.27410
  -4   2  -6   16.83    0.54   1-0.17096-0.47899 0.70752 0.24922 0.68570 0.84169
   4  -2   6   16.96    0.47   1-0.23990 0.06867 0.12888 0.58740 0.96220 0.80637
   4  -2   6   14.93    1.15   1-0.80896-0.49968-0.01103 0.44750-0.58774-0.74165
  -4   2  -6   16.07    1.33   1-0.62858-0.93767 0.62953 0.17121-0.45669-0.30242
  -4   2  -7   17.68    0.70   1-0.18016-0.48131 0.66735 0.14671 0.72261 0.86418
   4  -2   7   18.62    0.71   1-0.24176 0.05996 0.03629 0.55714 0.96965 0.82824
   4  -2   7   17.78    0.93   1-0.80781-0.50523-0.05453 0.46628-0.58691-0.72616
  -4   2  -7   17.46    1.13   1-0.63883-0.94127 0.61356 0.09294-0.46414-0.32458
  -4   2  -8   32.81    1.20   1-0.18651-0.48077 0.63688 0.05391 0.74805 0.87518
   4  -2   8   34.61    1.15   1-0.24167 0.05366-0.04543 0.53745 0.96929 0.84158
   4  -2   8   33.28    1.46   1-0.80525-0.50937-0.09634 0.48674-0.58505-0.70965
  -4   2  -8   30.45    1.24   1-0.64339-0.93918 0.60624 0.02333-0.46744-0.34261
  -4   2  -9   24.27    1.03   1-0.19075-0.47813 0.61504-0.03025 0.76507 0.87776
   4  -2   9   25.35    1.00   1-0.24016 0.04836-0.12045 0.52478 0.96323 0.84985
   4  -2   9   24.95    1.47   1-0.80139-0.51221-0.13694 0.50841-0.58224-0.69220
  -4   2  -9   21.56    1.42   1-0.64385-0.93300 0.60549-0.03971-0.46778-0.35766
  -4   2 -10   11.15    0.63   1-0.19342-0.47392 0.60062-0.10701 0.77578 0.87403
   4  -2  10   11.56    0.63   1-0.23756 0.04415-0.18886 0.51872 0.95283 0.85379
   4  -2  10   10.86    0.84   1-0.79629-0.51381-0.17667 0.53096-0.57853-0.67385
  -4   2 -10   11.18    0.75   1-0.64119-0.92369 0.60979-0.09771-0.46585-0.37044
  -4   2 -11   15.34    0.80   1-0.19488-0.46850 0.59251-0.17745 0.78163 0.86545
   4  -2  11   16.04    0.83   1-0.23412 0.04079-0.25182 0.51812 0.93902 0.85433
   4  -2  11   16.45    0.80   1-0.78996-0.51418-0.21574 0.55416-0.57394-0.65460
  -4   2 -11   16.78    0.85   1-0.63601-0.91186 0.61803-0.15176-0.46208-0.38139
  -4   2 -12   11.23    0.68   1-0.19537-0.46211 0.58973-0.24257 0.78360 0.85299
   4  -2  12   12.45    0.70   1-0.22998 0.03813-0.31024 0.52205 0.92241 0.85205
   4  -2  12   11.63    0.91   1-0.78241-0.51334-0.25432 0.57786-0.56845-0.63447
  -4   2 -12   12.09    0.86   1-0.62867-0.89788 0.62939-0.20269-0.45675-0.39078
   4  -1 -12   16.56    0.91   1-0.23589 0.13871-0.22191-0.86506 0.94610 0.48210
  -4   1  12   17.14    0.91   1-0.09339-0.46642-0.92247-0.27959 0.37459 0.83920
  -4   1  12   18.14    0.99   1-0.62694-0.99990-0.63202 0.00896-0.45550 0.01072
   4  -1 -12   18.66    1.00   1-0.66651-0.29479 0.56680-0.07476-0.48424-0.95262
   4  -1 -11   22.54    1.10   1-0.23183 0.13597-0.28577-0.86657 0.92983 0.48016
  -4   1  11   23.97    1.09   1-0.09203-0.45839-0.92480-0.34426 0.36914 0.81936
  -4   1  11   24.05    1.11   1-0.63274-0.99897-0.62313-0.04442-0.45971-0.00805
   4  -1 -11   25.20    1.11   1-0.68057-0.31551 0.54065-0.03861-0.49447-0.94813
   4  -1 -10    0.22    0.33   1-0.22639 0.13460-0.35243-0.87087 0.90803 0.47271
  -4   1  10    0.07    0.26   1-0.08912-0.44880-0.92967-0.41146 0.35744 0.79326
  -4   1  10    0.01    0.27   1-0.63482-0.99434-0.61989-0.10344-0.46122-0.02414
   4  -1 -10    0.18    0.23   1-0.69292-0.33450 0.51613-0.00084-0.50344-0.94239
   4  -1  -9    5.46    0.43   1-0.21929 0.13490-0.42228-0.87836 0.87953 0.45855
  -4   1   9    5.95    0.44   1-0.08431-0.43732-0.93730-0.48142 0.33816 0.75958
  -4   1   9    5.85    0.38   1-0.63192-0.98472-0.62440-0.17022-0.45911-0.03660
   4  -1  -9    5.72    0.40   1-0.70342-0.35165 0.49395 0.03926-0.51107-0.93530
   4  -1  -8   17.53    0.82   1-0.21011 0.13672-0.49562-0.88945 0.84273 0.43608
  -4   1   8   18.49    0.73   1-0.07718-0.42351-0.94774-0.55420 0.30956 0.71658
  -4   1   8   18.83    0.77   1-0.62168-0.96777-0.63991-0.24800-0.45168-0.04374
   4  -1  -8   17.54    0.74   1-0.71177-0.36664 0.47533 0.08294-0.51713-0.92665
   4  -1  -7    8.71    0.44   1-0.19833 0.14176-0.57259-0.90407 0.79548 0.40317
  -4   1   7    8.89    0.39   1-0.06716-0.40682-0.96069-0.62948 0.26937 0.66200
  -4   1   7    9.38    0.40   1-0.59939-0.93876-0.67161-0.34197-0.43548-0.04211
   4  -1  -7    8.33    0.37   1-0.71730-0.37882 0.46246 0.13237-0.52115-0.91595
   4  -1  -6    0.43    0.25   1-0.18325 0.15011-0.65281-0.92194 0.73501 0.35703
  -4   1   6    0.62    0.21   1-0.05356-0.38655-0.97518-0.70630 0.21482 0.59304
  -4   1   6    0.61    0.17   1-0.55457-0.88722-0.72807-0.46070-0.40292-0.02412
   4  -1  -6    0.62    0.17   1-0.71841-0.38657 0.45983 0.19202-0.52195-0.90204
   4  -1  -5    0.14    0.18   1-0.16403 0.16260-0.73500-0.94178 0.65792 0.29427
  -4   1   5    0.18    0.18   1-0.03558-0.36190-0.98912-0.78258 0.14272 0.50655
  -4   1   5    0.16    0.17   1-0.46018-0.78611-0.82246-0.61736-0.33434 0.02988
   4  -1  -5    0.19    0.13   1-0.71045-0.38527 0.47833 0.27282-0.51617-0.88155
   4  -1  -4   12.70    0.51   1-0.13975 0.18015-0.81626-0.96069 0.56052 0.21121
  -4   1   4   13.11    0.45   1-0.01248-0.33212-0.99866-0.85446 0.05005 0.39949
   4  -1  -4   12.85    0.44   1-0.67265-0.35410 0.55561 0.41239-0.48870-0.83936
   4  -1  -3   28.02    0.83   1-0.10952 0.20344-0.89164-0.97351 0.43928 0.10425
  -4   1   3   27.56    0.80   1 0.01603-0.29676-0.99779-0.91578-0.06433 0.27068
   4  -1  -2   13.98    0.53   1-0.07355 0.23274-0.95265-0.97220 0.29501-0.02562
  -4   1   2   13.81    0.52   1 0.04973-0.25640-0.97864-0.95894-0.19946 0.12113
   4  -1  -1   23.87    0.73   1-0.08691 0.21243 0.93322 0.97627 0.34861 0.04205
   4  -1  -1   24.33    0.75   1-0.03292 0.26670-0.99069-0.94790 0.13204-0.17419
   4  -1   0   31.85    0.96   1-0.12395 0.16851 0.85876 0.96413 0.49715 0.20503
   4  -1   0   31.95    0.97   1 0.00951 0.30232-0.99922-0.89427-0.03816-0.32995
   4  -1   0   32.60    0.99   1-0.78129-0.48873-0.25951-0.15328-0.56764-0.85886
  -4   1   0   31.99    0.98   1-0.15718-0.44925 0.98094 0.87555-0.11420 0.17767
   4  -1   1   58.64    2.15   1-0.15765 0.12793 0.75850 0.92621 0.63231 0.35462
   4  -1   1   59.72    1.60   1 0.05021 0.33636-0.97822-0.81094-0.20139-0.47877
   4  -1   1   60.00    1.63   1-0.79979-0.51392-0.15059 0.01790-0.58108-0.85764
  -4   1  -1   58.73    1.55   1-0.48786-0.77317 0.79771 0.62945-0.35445-0.07737
  -4   1  -2   57.86    1.51   1-0.08617-0.36488 0.93440 0.70435 0.34563 0.60888
   4  -1   2   60.25    1.59   1-0.18552 0.09318 0.64179 0.87183 0.74409 0.48084
   4  -1   2   58.07    1.60   1-0.80280-0.52363-0.12371 0.10706-0.58327-0.84518
  -4   1  -2   59.20    1.56   1-0.60494-0.88360 0.66397 0.43342-0.43951-0.17715
  -4   1  -3   79.27    1.99   1-0.11529-0.38711 0.87913 0.58675 0.46242 0.71123
   4  -1   3   82.07    2.03   1-0.20684 0.06545 0.51861 0.81126 0.82960 0.58100
   4  -1   3   75.92    1.99   1-0.80285-0.53038-0.12323 0.16981-0.58330-0.83057
  -4   1  -3   82.14    2.10   1-0.65673-0.92874 0.58398 0.29113-0.47714-0.22949
  -4   1  -4   68.60    1.56   1-0.13781-0.40274 0.82189 0.46717 0.55272 0.78710
   4  -1   4   69.71    1.52   1-0.22184 0.04361 0.39889 0.75386 0.88975 0.65557
   4  -1   4   69.77    1.62   1-0.80162-0.53585-0.13491 0.22040-0.58241-0.81503
  -4   1  -4   70.60    1.61   1-0.68209-0.94745 0.53773 0.18259-0.49556-0.26263
  -4   1  -5   12.39    0.48   1-0.15462-0.41267 0.76909 0.35205 0.62014 0.84009
   4  -1   5   12.51    0.43   1-0.23177 0.02682 0.28654 0.70384 0.92960 0.70984
   4  -1   5   12.51    0.51   1-0.79945-0.54039-0.15326 0.26433-0.58083-0.79881
  -4   1  -5   12.14    0.50   1-0.69462-0.95335 0.51263 0.09519-0.50467-0.28646
  -4   1  -6   34.66    1.11   1-0.16689-0.41806 0.72394 0.24456 0.66936 0.87487
   4  -1   6   37.67    1.18   1-0.23782 0.01393 0.18335 0.66298 0.95384 0.74849
   4  -1   6   36.15    1.89   1-0.79643-0.54407-0.17570 0.30416-0.57864-0.78196
  -4   1  -6   31.65    2.01   1-0.70000-0.95208 0.50133 0.02160-0.50858-0.30508
  -4   1  -7   22.44    0.84   1-0.17569-0.41998 0.68743 0.14571 0.70467 0.89575
   4  -1   7   22.32    0.82   1-0.24095 0.00395 0.08938 0.63135 0.96641 0.77548
   4  -1   7   23.93    0.89   1-0.79253-0.54687-0.20083 0.34131-0.57580-0.76448
  -4   1  -7   19.45    1.87   1-0.70088-0.94631 0.49945-0.04257-0.50922-0.32043
  -4   1  -8    5.16    0.33   1-0.18188-0.41929 0.65933 0.05528 0.72951 0.90616
   4  -1   8    5.73    0.39   1-0.24191-0.00338 0.00524 0.60916 0.97028 0.79303
  -4   1  -9   15.54    0.77   1-0.18611-0.41663 0.63889-0.02749 0.74644 0.90865
   4  -1   9   16.49    0.72   1-0.24128-0.00955-0.07282 0.59345 0.96771 0.80480
   4  -1   9   14.83    1.85   1-0.78200-0.54974-0.25624 0.41044-0.56816-0.72753
  -4   1  -9   16.80    1.54   1-0.69400-0.92614 0.51391-0.15270-0.50422-0.34487
  -4   1 -10    2.20    0.31   1-0.18881-0.41246 0.62518-0.10353 0.75729 0.90507
   4  -1  10    2.29    0.29   1-0.23938-0.01445-0.14451 0.58412 0.96011 0.81153
  -4   1 -11    0.11    0.28   1-0.19032-0.40709 0.61729-0.17376 0.76336 0.89670
   4  -1  11    0.15    0.26   1-0.23648-0.01836-0.21077 0.58020 0.94849 0.81426
  -4   1 -12    0.58    0.31   1-0.19087-0.40075 0.61440-0.23898 0.76555 0.88446
   4  -1  12    0.54    0.28   1-0.23277-0.02145-0.27244 0.58089 0.93359 0.81369
   4   0 -12    0.36    0.30   1-0.23205 0.08574-0.28265-0.90476 0.93072 0.41718
  -4   0  12    0.31    0.30   1-0.08635-0.40263-0.93412-0.31224 0.34634 0.86046
   4   0 -11   10.41    0.68   1-0.22677 0.08422-0.34827-0.90803 0.90954 0.41034
  -4   0  11   10.31    0.66   1-0.08432-0.39393-0.93728-0.37773 0.33821 0.83793
  -4   0  11   11.08    0.64   1-0.69007-0.99936-0.52195 0.03560-0.50136-0.00025
   4   0 -11   10.34    1.30   1-0.61231-0.30426 0.65357 0.09570-0.44487-0.94776
   4   0 -10    1.74    0.39   1-0.21995 0.08424-0.41641-0.91381 0.88217 0.39730
  -4   0  10    1.94    0.39   1-0.08068-0.38361-0.94275-0.44553 0.32359 0.80891
   4   0  -9   38.89    1.41   1-0.21128 0.08551-0.48711-0.92229 0.84739 0.37689
  -4   0   9   39.63    1.34   1-0.07508-0.37134-0.95060-0.51572 0.30116 0.77209
  -4   0   9   37.76    2.11   1-0.70118-0.99714-0.49879-0.06589-0.50944-0.03697
   4   0  -9   40.63    1.42   1-0.61770-0.32294 0.64577 0.21249-0.44879-0.92225
   4   0  -8   17.34    0.70   1-0.20033 0.08972-0.56060-0.93344 0.80348 0.34732
  -4   0   8   17.48    0.67   1-0.06714-0.35672-0.96071-0.58816 0.26928 0.72581
  -4   0   8   16.68    0.71   1-0.70114-0.99039-0.49889-0.12826-0.50941-0.05159
   4   0  -8   18.42    0.69   1-0.61101-0.32290 0.65542 0.28444-0.44393-0.90267
   4   0  -7   13.61    0.60   1-0.18660 0.09672-0.63642-0.94691 0.74842 0.30659
  -4   0   7   14.20    0.47   1-0.05632-0.33923-0.97251-0.66230 0.22591 0.66803
  -4   0   7   13.78    0.50   1-0.69430-0.97685-0.51330-0.20495-0.50444-0.06126
   4   0  -7   14.17    0.45   1-0.59244-0.31097 0.68098 0.37229-0.43043-0.87446
   4   0  -6   70.63    2.17   1-0.16948 0.10710-0.71357-0.96170 0.67977 0.25227
  -4   0   6   73.09    2.12   1-0.04205-0.31829-0.98477-0.73689 0.16866 0.59639
  -4   0   6   78.19    2.22   1-0.67412-0.94982-0.55288-0.30667-0.48977-0.06152
   4   0  -6   77.84    2.18   1-0.55006-0.27524 0.73329 0.48689-0.39964-0.82896
   4   0  -5   36.93    1.27   1-0.14831 0.12154-0.79002-0.97581 0.59486 0.18170
  -4   0   5   36.49    1.27   1-0.02370-0.29327-0.99518-0.80963 0.09507 0.50840
  -4   0   5   39.01    1.31   1-0.61612-0.88511-0.64807-0.46414-0.44764-0.03395
   4   0  -5   39.03    1.30   1-0.44602-0.17785 0.83429 0.65019-0.32405-0.73865
   4   0  -4   71.41    1.68   1-0.12239 0.14049-0.86258-0.98580 0.49088 0.09195
  -4   0   4   70.61    1.64   1-0.00088-0.26359-0.99999-0.87663 0.00355 0.40252
   4   0  -3   40.00    1.17   1-0.09171 0.16450-0.92535-0.98623 0.36785-0.01668
  -4   0   3   39.07    1.14   1 0.02664-0.22939-0.99391-0.93288-0.10687 0.27768
   4   0  -2   67.61    1.79   1-0.05664 0.19289-0.97219-0.97075 0.22719-0.14293
  -4   0   2   66.75    1.75   1 0.05816-0.19121-0.97067-0.97195-0.23327 0.13687
   4   0  -1   33.20    1.01   1-0.09225 0.15023 0.92442 0.98855 0.37002 0.01395
   4   0   0   50.40    1.37   1-0.12585 0.10975 0.85402 0.98047 0.50478 0.16314
   4   0   0   44.80    2.18   1 0.01960 0.25566-0.99671-0.87077-0.07864-0.41997
   4   0   0   55.16    1.53   1-0.50103-0.26563-0.78514-0.65774-0.36402-0.70485
  -4   0   0   48.96    1.32   1-0.59548-0.83042 0.67691 0.54954-0.43264-0.09162
   4   0   1   21.34    2.08   1-0.15663 0.07209 0.76209 0.95088 0.62823 0.30103
   4   0   1   22.57    0.71   1 0.05565 0.28503-0.97318-0.78492-0.22320-0.55012
   4   0   1   20.99    0.68   1-0.67923-0.45056-0.54323-0.35355-0.49349-0.81975
  -4   0  -1   21.03    0.67   1-0.70969-0.93799 0.48006 0.29039-0.51562-0.18932
  -4   0  -2   10.81    0.43   1-0.08744-0.30929 0.93238 0.68126 0.35072 0.66349
   4   0   2   11.78    0.45   1-0.18267 0.03916 0.65559 0.90671 0.73268 0.41991
   4   0   2   11.50    0.47   1-0.73127-0.50903-0.42772-0.17561-0.53130-0.84263
  -4   0  -2   11.39    0.48   1-0.74069-0.96234 0.40221 0.15025-0.53814-0.22655
  -4   0  -3    4.36    0.27   1-0.11344-0.32840 0.88324 0.56978 0.45499 0.75332
   4   0   3    4.68    0.27   1-0.20320 0.01175 0.54263 0.85609 0.81501 0.51668
   4   0   3    4.53    0.28   1-0.75124-0.53570-0.37110-0.05672-0.54581-0.84249
  -4   0  -3    4.33    0.31   1-0.75184-0.96684 0.36925 0.05499-0.54624-0.24937
  -4   0  -4    0.53    0.18   1-0.13394-0.34202 0.83275 0.45695 0.53720 0.82110
   4   0   4    0.60    0.23   1-0.21849-0.00985 0.42932 0.80542 0.87632 0.59261
   4   0   4    0.62    0.26   1-0.75967-0.55083-0.34389 0.03275-0.55193-0.83397
  -4   0  -4    0.44    0.21   1-0.75528-0.96363 0.35836-0.01818-0.54874-0.26658
  -4   0  -5    1.14    0.21   1-0.14960-0.35080 0.78586 0.34773 0.60002 0.86949
   4   0   5    1.17    0.20   1-0.22908-0.02729 0.32142 0.75985 0.91880 0.64951
   4   0   5    1.04    0.29   1-0.76261-0.56048-0.33378 0.10514-0.55407-0.82146
  -4   0  -5    1.09    0.25   1-0.75477-0.95648 0.35999-0.07884-0.54837-0.28093
  -4   0  -6    0.88    0.21   1-0.16130-0.35562 0.74525 0.24479 0.64696 0.90200
   4   0   6    0.93    0.21   1-0.23597-0.04102 0.22037 0.72114 0.94643 0.69156
   4   0   6    0.62    0.46   1-0.76242-0.56698-0.33446 0.16673-0.55393-0.80667
  -4   0  -6    0.89    0.26   1-0.75178-0.94684 0.36942-0.13171-0.54620-0.29347
  -4   0  -7    4.39    0.37   1-0.16989-0.35732 0.71192 0.14912 0.68140 0.92199
   4   0   7    4.78    0.30   1-0.23996-0.05187 0.12684 0.68993 0.96245 0.72200
   4   0   7    4.40    0.49   1-0.76011-0.57137-0.34239 0.22107-0.55225-0.79034
  -4   0  -7    4.92    0.36   1-0.74698-0.93539 0.38402-0.17940-0.54271-0.30470
  -4   0  -8    8.89    0.40   1-0.17605-0.35660 0.68586 0.06073 0.70611 0.93227
   4   0   8    9.26    0.39   1-0.24172-0.06047 0.04061 0.66604 0.96949 0.74346
   4   0   8    9.14    0.42   1-0.75618-0.57414-0.35544 0.27030-0.54940-0.77284
  -4   0  -8    9.41    0.45   1-0.74068-0.92245 0.40223-0.22349-0.53813-0.31484
  -4   0  -9    9.65    0.57   1-0.18033-0.35400 0.66659-0.02087 0.72328 0.93501
   4   0   9   10.30    0.58   1-0.24175-0.06682-0.03752 0.64980 0.96961 0.75716
   4   0   9    9.98    0.58   1-0.75088-0.57554-0.37223 0.31578-0.54554-0.75434
  -4   0  -9   10.19    0.67   1-0.73305-0.90818 0.42304-0.26498-0.53259-0.32401
  -4   0 -10   17.82    0.86   1-0.18313-0.34992 0.65341-0.09638 0.73451 0.93180
   4   0  10   18.60    0.84   1-0.24042-0.07230-0.11112 0.63855 0.96428 0.76617
   4   0  10   18.24    0.83   1-0.74431-0.57568-0.39185 0.35843-0.54077-0.73492
  -4   0 -10   18.79    0.87   1-0.72418-0.89266 0.44578-0.30453-0.52615-0.33228
  -4   0 -11   12.87    0.72   1-0.18474-0.34465 0.64561-0.16652 0.74098 0.92384
   4   0  11   13.51    0.71   1-0.23799-0.07667-0.17952 0.63249 0.95453 0.77075
   4   0  11   12.41    0.68   1-0.73654-0.57461-0.41367 0.39889-0.53513-0.71463
  -4   0 -11   13.74    0.69   1-0.71409-0.87592 0.47000-0.34261-0.51881-0.33967
  -4   0 -12    4.88    0.50   1-0.18538-0.33840 0.64249-0.23197 0.74353 0.91195
   4   0  12    5.49    0.38   1-0.23464-0.08012-0.24342 0.63095 0.94110 0.77166
   4   0  12    5.59    0.48   1-0.72758-0.57235-0.43722 0.43761-0.52862-0.69347
  -4   0 -12    5.65    0.51   1-0.70278-0.85796 0.49535-0.37955-0.51060-0.34617
   4   1 -13    8.99    0.61   1-0.23293 0.03487-0.27010-0.93352 0.93423 0.35681
  -4  -1  13    9.30    0.55   1-0.07907-0.34527-0.94506-0.28184 0.31716 0.89517
  -4  -1  13   10.04    0.76   1-0.71394-0.97977-0.47034 0.19032-0.51871 0.06177
   4   1 -13   10.23    0.87   1-0.52191-0.25758 0.76407 0.10302-0.37919-0.96074
   4   1 -12   15.01    0.87   1-0.22797 0.03302-0.33462-0.93568 0.91436 0.35128
  -4  -1  12   16.38    0.78   1-0.07775-0.33728-0.94693-0.34604 0.31187 0.87549
  -4  -1  12   18.11    0.88   1-0.72723-0.98636-0.43813 0.16025-0.52836 0.03746
   4   1 -12   16.62    0.84   1-0.52693-0.26924 0.75879 0.16004-0.38284-0.94967
   4   1 -11   21.62    1.06   1-0.22160 0.03259-0.40112-0.93983 0.88881 0.34007
  -4  -1  11   23.03    1.05   1-0.07501-0.32786-0.95071-0.41215 0.30085 0.85007
  -4  -1  11   25.29    1.52   1-0.73906-0.99149-0.40676 0.12935-0.53696 0.01422
   4   1 -11   22.70    1.57   1-0.52713-0.27609 0.75858 0.22212-0.38298-0.93511
   4   1 -10   38.05    1.72   1-0.21357 0.03382-0.46970-0.94607 0.85659 0.32219
  -4  -1  10   39.87    1.74   1-0.07058-0.31676-0.95648-0.48026 0.28310 0.81792
  -4  -1  10   41.81    1.83   1-0.74948-0.99521-0.37649 0.09734-0.54453-0.00799
   4   1 -10   41.55    1.85   1-0.52095-0.27656 0.76507 0.29091-0.37849-0.91590
   4   1  -9   37.76    1.36   1-0.20359 0.03641-0.54012-0.95431 0.81658 0.29657
  -4  -1   9   39.12    1.36   1-0.06416-0.30367-0.96418-0.55028 0.25736 0.77779
  -4  -1   9   40.15    2.61   1-0.75850-0.99753-0.34780 0.06376-0.55108-0.02920
   4   1  -9   40.62    2.22   1-0.50568-0.26793 0.78057 0.36870-0.36740-0.89009
   4   1  -8    0.15    0.22   1-0.19123 0.04204-0.61249-0.96433 0.76699 0.26131
  -4  -1   8    0.21    0.22   1-0.05537-0.28821-0.97344-0.62188 0.22211 0.72814
   4   1  -8    0.19    0.20   1-0.47637-0.24527 0.80826 0.45868-0.34610-0.85407
   4   1  -7   11.20    0.45   1-0.17605 0.05049-0.68586-0.97535 0.70611 0.21476
  -4  -1   7   11.86    0.48   1-0.04376-0.26992-0.98349-0.69427 0.17554 0.66717
  -4  -1   7   11.36    0.46   1-0.77196-0.99759-0.29916-0.01214-0.56086-0.06827
   4   1  -7   12.62    0.47   1-0.42394-0.19979 0.85170 0.56383-0.30801-0.80135
   4   1  -6   33.31    1.21   1-0.15756 0.06224-0.75881-0.98596 0.63196 0.15494
  -4  -1   6   33.92    1.10   1-0.02885-0.24834-0.99286-0.76596 0.11574 0.59297
  -4  -1   6   30.99    1.06   1-0.77561-0.99454-0.28435-0.05960-0.56352-0.08557
   4   1  -6   34.58    1.20   1-0.32740-0.10982 0.91445 0.68888-0.23786-0.71650
   4   1  -5   17.12    0.59   1-0.13530 0.07776-0.82895-0.99375 0.54269 0.08001
  -4  -1   5   17.28    0.55   1-0.01020-0.22302-0.99910-0.83454 0.04094 0.50377
  -4  -1   5   15.72    0.56   1-0.77494-0.98717-0.28715-0.12467-0.56303-0.09973
   4   1  -5   18.38    0.67   1-0.13975 0.07125 0.98496 0.82168-0.10153-0.56546
   4   1  -4    2.37    0.25   1-0.10889 0.09724-0.89296-0.99519 0.43675-0.01167
  -4  -1   4    2.05    0.24   1 0.01236-0.19358-0.99869-0.89631-0.04958 0.39892
  -4  -1   4    2.43    0.28   1-0.75571-0.96124-0.35697-0.25677-0.54905-0.10040
   4   1  -3    0.02    0.17   1-0.07865 0.12081-0.94567-0.98556 0.31546-0.11857
  -4  -1   3   -0.08    0.22   1 0.03883-0.16045-0.98703-0.94698-0.15573 0.27835
  -4  -1   2    6.47    0.35   1 0.06835-0.12426-0.95925-0.98151-0.27415 0.14553
   4   1  -1   22.62    1.21   1-0.09972 0.08591 0.91108 0.99628 0.39997-0.00561
   4   1  -1   24.02    0.75   1-0.01011 0.17600-0.99912-0.91435 0.04057-0.36466
  -4  -1   1   23.05    0.89   1-0.79402-0.97945 0.19160 0.10498-0.57689-0.17219
  -4  -1   1   23.59    0.80   1-0.17230-0.35702 0.97705 0.89116-0.12518 0.27992
   4   1   0   12.00    0.47   1-0.13028 0.04847 0.84260 0.99014 0.52252 0.13137
   4   1   0    9.99    1.18   1 0.02455 0.20384-0.99483-0.84792-0.09848-0.48935
   4   1   0   11.37    0.48   1-0.31836-0.13991-0.91931-0.77074-0.23130-0.62159
  -4  -1   0    9.09    0.47   1-0.80229-0.98101 0.12863-0.02025-0.58290-0.19285
   4   1   1   19.93    0.81   1-0.15832 0.01354 0.75609 0.96596 0.63501 0.25829
   4   1   1   19.89    0.92   1 0.05688 0.22951-0.97196-0.76273-0.22815-0.60461
   4   1   1   18.91    0.71   1-0.52410-0.35237-0.76178-0.55094-0.38078-0.75650
  -4  -1  -1   16.54    0.67   1-0.80251-0.97453 0.12654-0.08461-0.58306-0.20765
   4   1   2   29.15    0.80   1-0.18239-0.01739 0.65696 0.92917 0.73152 0.36924
   4   1   2   28.53    0.87   1-0.61790-0.45289-0.64548-0.37237-0.44893-0.81007
  -4  -1  -2   26.81    0.83   1-0.80091-0.96623 0.14119-0.13224-0.58189-0.22114
  -4  -1  -3   19.51    0.52   1-0.10917-0.26728 0.89238 0.55783 0.43788 0.78573
   4   1   3   20.34    0.52   1-0.20180-0.04369 0.55149 0.88603 0.80939 0.46154
   4   1   3   19.00    0.56   1-0.66499-0.50669-0.56951-0.23414-0.48314-0.82971
  -4  -1  -3   20.05    0.69   1-0.79819-0.95681 0.16299-0.17271-0.57992-0.23382
  -4  -1  -4   51.81    1.61   1-0.12818-0.27941 0.84807 0.45120 0.51413 0.84755
   4   1   4   53.81    1.65   1-0.21670-0.06487 0.44454 0.84177 0.86914 0.53592
   4   1   4   52.43    1.63   1-0.69011-0.53853-0.52187-0.12422-0.50139-0.83339
  -4  -1  -4   54.02    1.75   1-0.79450-0.94642 0.18854-0.20943-0.57724-0.24578
  -4  -1  -5   68.51    1.94   1-0.14302-0.28737 0.80651 0.34730 0.57365 0.89263
   4   1   5   72.03    2.03   1-0.22740-0.08242 0.34123 0.80078 0.91205 0.59324
   4   1   5   66.29    1.95   1-0.70429-0.55907-0.49207-0.03181-0.51169-0.82850
  -4  -1  -5   71.68    2.10   1-0.78987-0.93508 0.21627-0.24398-0.57387-0.25706
  -4  -1  -6   34.61    1.24   1-0.15435-0.29181 0.76999 0.24845 0.61909 0.92364
   4   1   6   36.83    1.21   1-0.23466-0.09653 0.24307 0.76495 0.94119 0.63680
   4   1   6   33.79    1.16   1-0.71095-0.57243-0.47721 0.04531-0.51653-0.81869
  -4  -1  -6   37.23    1.29   1-0.78443-0.92247 0.24465-0.27789-0.56992-0.26796
  -4  -1  -7    6.15    0.35   1-0.16283-0.29341 0.73954 0.15567 0.65311 0.94322
   4   1   7    6.35    0.33   1-0.23914-0.10786 0.15099 0.73521 0.95917 0.66919
   4   1   7    5.98    0.36   1-0.71325-0.58143-0.47193 0.11286-0.51821-0.80572
  -4  -1  -7    6.71    0.39   1-0.77784-0.90924 0.27492-0.30992-0.56513-0.27789
  -4  -1  -8   19.44    0.90   1-0.16904-0.29274 0.71535 0.06914 0.67800 0.95368
   4   1   8   19.67    0.82   1-0.24140-0.11697 0.06514 0.71169 0.96823 0.69267
   4   1   8   18.47    0.80   1-0.71249-0.58737-0.47368 0.17338-0.51765-0.79052
  -4  -1  -8   19.87    0.86   1-0.77026-0.89501 0.30579-0.34134-0.55962-0.28710
  -4  -1  -9   16.52    0.84   1-0.17344-0.29025 0.69714-0.01140 0.69563 0.95688
   4   1   9   17.00    0.83   1-0.24190-0.12377-0.01330 0.69505 0.97021 0.70821
   4   1   9   16.17    0.82   1-0.70939-0.59097-0.48074 0.22860-0.51540-0.77361
  -4  -1  -9   17.58    0.92   1-0.76166-0.87977 0.33709-0.37233-0.55338-0.29557
  -4  -1 -10    2.60    0.32   1-0.17637-0.28631 0.68443-0.08644 0.70741 0.95422
   4   1  10    2.64    0.39   1-0.24098-0.12966-0.08779 0.68291 0.96654 0.71889
   4   1  10    2.29    0.42   1-0.70437-0.59265-0.49189 0.27972-0.51175-0.75532
  -4  -1 -10    2.48    0.33   1-0.75201-0.86347 0.36871-0.40301-0.54637-0.30328
  -4  -1 -11   11.13    0.67   1-0.17812-0.28117 0.67666-0.15655 0.71442 0.94679
   4   1  11   12.10    0.69   1-0.23890-0.13438-0.15743 0.67563 0.95819 0.72488
   4   1  11   12.63    0.77   1-0.69767-0.59266-0.50626 0.32762-0.50689-0.73580
  -4  -1 -11   11.32    0.67   1-0.74128-0.84609 0.40055-0.43347-0.53857-0.31019
   4   2 -13    3.34    0.44   1-0.22976-0.01875-0.31306-0.95544 0.92151 0.29456
  -4  -2  13    3.95    0.46   1-0.06967-0.27912-0.95762-0.31539 0.27946 0.90698
  -4  -2  13    3.39    0.99   1-0.75097-0.95989-0.37193 0.26740-0.54561 0.08428
   4   2 -13    3.23    0.67   1-0.44174-0.23442 0.83776 0.19812-0.32094-0.95173
   4   2 -12    1.89    0.33   1-0.22396-0.01976-0.37810-0.95813 0.89826 0.28564
  -4  -2  12    1.72    0.32   1-0.06765-0.27043-0.96009-0.38019 0.27136 0.88448
   4   2 -11    0.27    0.28   1-0.21667-0.01927-0.44478-0.96245 0.86903 0.27074
  -4  -2  11    0.01    0.38   1-0.06415-0.26025-0.96419-0.44663 0.25730 0.85603
   4   2 -10   -0.02    0.25   1-0.20770-0.01773-0.51274-0.96829 0.83303 0.24917
  -4  -2  10    0.11    0.25   1-0.05892-0.24834-0.96988-0.51465 0.23631 0.82064
   4   2  -9    8.30    0.48   1-0.19666-0.01343-0.58237-0.97557 0.78877 0.21923
  -4  -2   9    8.53    0.41   1-0.05166-0.23442-0.97692-0.58402 0.20721 0.77714
   4   2  -9    9.01    0.43   1-0.37900-0.19867 0.88347 0.49243-0.27535-0.84737
   4   2  -8    1.34    0.26   1-0.18325-0.00676-0.65282-0.98367 0.73500 0.17980
  -4  -2   8    1.67    0.34   1-0.04204-0.21813-0.98478-0.65421 0.16864 0.72417
  -4  -2   8    1.63    0.29   1-0.80291-0.97832-0.12260 0.20536-0.58335-0.02669
   4   2  -8    1.50    0.26   1-0.32866-0.15490 0.91375 0.58500-0.23879-0.79610
   4   2  -7   48.08    1.59   1-0.16710 0.00265-0.72308-0.99159 0.67023 0.12937
  -4  -2   7   47.14    1.52   1-0.02969-0.19910-0.99243-0.72420 0.11908 0.66021
  -4  -2   7   52.11    1.73   1-0.80779-0.97650-0.05491 0.21077-0.58689-0.04488
   4   2  -7   50.12    1.69   1-0.24992-0.08274 0.95108 0.68462-0.18158-0.72418
   4   2  -6   16.09    0.55   1-0.14784 0.01518-0.79152-0.99767 0.59298 0.06646
  -4  -2   6   16.91    0.51   1-0.01423-0.17696-0.99826-0.79236 0.05708 0.58381
  -4  -2   6   15.58    0.57   1-0.80866-0.97067 0.02931 0.23274-0.58753-0.06017
   4   2  -6   17.25    0.70   1-0.12794 0.03267 0.98741 0.78324-0.09295-0.62085
   4   2  -5   14.56    0.52   1-0.12511 0.03095-0.85589-0.99946 0.50178-0.01054
  -4  -2   5   15.13    0.54   1 0.00456-0.15129-0.99982-0.85610-0.01829 0.49416
  -4  -2   5   15.33    0.57   1-0.80051-0.95581 0.14462 0.28577-0.58160-0.06889
   4   2  -4   85.33    2.54   1-0.09902 0.05036-0.91239-0.99363 0.39715-0.10078
  -4  -2   4   85.98    2.55   1 0.02681-0.12237-0.99383-0.91243-0.10756 0.39048
  -4  -2   4   88.52    2.58   1-0.30257-0.45095-0.92742-0.84808-0.21983 0.27819
  -4  -2   4   84.44    2.51   1-0.76444-0.91194 0.32733 0.40631-0.55540-0.05706
   4   2  -3   37.26    0.99   1-0.06981 0.07289-0.95745-0.97635 0.28002-0.20351
  -4  -2   3   35.37    1.01   1 0.05218-0.09033-0.97645-0.95738-0.20930 0.27433
  -4  -2   3   38.94    0.98   1-0.54605-0.68771-0.73785-0.72078-0.39673 0.08672
  -4  -2   3   36.99    0.95   1-0.65044-0.79129 0.59463 0.61133-0.47257 0.01105
   4   2  -2   66.35    2.20   1-0.03834 0.09769-0.98736-0.94392 0.15378-0.31535
  -4  -2   2   74.11    1.65   1-0.69730-0.83251-0.50703-0.55271-0.50662-0.03785
  -4  -2   2   66.85    1.52   1-0.39059-0.52492 0.87573 0.83073-0.28378 0.18529
   4   2  -1   50.59    1.85   1-0.10871 0.02006 0.89333 0.99961 0.43604-0.01905
   4   2  -1   48.75    2.13   1-0.00595 0.12341-0.99969-0.89393 0.02387-0.43087
  -4  -2   1   53.94    1.30   1-0.76193-0.89043-0.33615-0.44410-0.55357-0.09946
  -4  -2   1   50.77    1.28   1-0.04968-0.17745 0.99811 0.89081-0.03609 0.41827
   4   2   0   37.01    2.33   1-0.13652-0.01462 0.82554 0.99416 0.54757 0.10690
   4   2   0   41.55    1.93   1 0.02560 0.14813-0.99438-0.82649-0.10268-0.54310
  -4  -2   0   45.06    1.14   1-0.78924-0.91104-0.21971-0.38993-0.57342-0.13395
   4   2   1   37.14    0.96   1-0.16202-0.04700 0.74259 0.97354 0.64985 0.22361
   4   2   1   34.88    1.49   1 0.05494 0.17081-0.97386-0.74365-0.22036-0.64636
   4   2   1   35.30    1.05   1-0.40035-0.28557-0.86896-0.63696-0.29087-0.71605
  -4  -2  -1   35.12    0.99   1-0.80166-0.91676-0.13452-0.36701-0.58244-0.15762
   4   2   2   41.76    1.06   1-0.18408-0.07594 0.64885 0.94213 0.73831 0.32651
   4   2   2   39.50    1.05   1-0.50581-0.39774-0.78044-0.48617-0.36749-0.77809
  -4  -2  -2   42.39    1.15   1-0.80722-0.91562-0.06655-0.36131-0.58648-0.17631
  -4  -2  -3   11.30    0.46   1-0.10295-0.20420 0.90493 0.54931 0.41291 0.81028
   4   2   3   12.01    0.43   1-0.20215-0.10090 0.54930 0.90492 0.81079 0.41343
   4   2   3   11.39    0.50   1-0.56946-0.46811-0.71030-0.35376-0.41373-0.80976
  -4  -2  -3   11.36    0.56   1-0.80898-0.91068-0.00860-0.36564-0.58776-0.19224
  -4  -2  -4   19.89    0.56   1-0.12082-0.21520 0.86634 0.44838 0.48461 0.86754
   4   2   4   20.30    0.71   1-0.21630-0.12129 0.44781 0.86616 0.86756 0.48481
   4   2   4   19.48    0.53   1-0.60850-0.51386-0.65899-0.24018-0.44210-0.82356
  -4  -2  -4   18.76    0.63   1-0.80826-0.90326 0.04310-0.37620-0.58723-0.20636
  -4  -2  -5    1.62    0.24   1-0.13505-0.22254 0.82967 0.34938 0.54166 0.91016
   4   2   5    1.92    0.29   1-0.22672-0.13856 0.34884 0.82952 0.90934 0.54101
   4   2   5    1.97    0.25   1-0.63258-0.54467-0.62337-0.14229-0.45960-0.82648
  -4  -2  -5    1.78    0.41   1-0.80568-0.89397 0.09071-0.39087-0.58536-0.21913
  -4  -2  -6    0.16    0.21   1-0.14613-0.22673 0.79695 0.25433 0.58609 0.94016
   4   2   6    0.14    0.27   1-0.23400-0.15268 0.25380 0.79681 0.93852 0.58460
   4   2   6    0.23    0.22   1-0.64713-0.56594-0.60012-0.05677-0.47017-0.82248
  -4  -2  -6    0.15    0.27   1-0.80155-0.88315 0.13547-0.40838-0.58236-0.23079
  -4  -2  -7   -0.04    0.31   1-0.15458-0.22830 0.76922 0.16426 0.62000 0.95963
   4   2   7   -0.06    0.29   1-0.23865-0.16418 0.16373 0.76907 0.95720 0.61770
   4   2   7    0.03    0.23   1-0.65526-0.58079-0.58648 0.01913-0.47608-0.81382
  -4  -2  -7   -0.09    0.40   1-0.79606-0.87096 0.17820-0.42793-0.57837-0.24144
  -4  -2  -8    0.16    0.24   1-0.16088-0.22772 0.74681 0.07952 0.64527 0.97047
   4   2   8    0.49    0.31   1-0.24116-0.17354 0.07896 0.74664 0.96726 0.64218
   4   2   8    0.10    0.37   1-0.65883-0.59108-0.58034 0.08754-0.47867-0.80184
  -4  -2  -8    0.18    0.28   1-0.78930-0.85749 0.21940-0.44900-0.57346-0.25118
  -4  -2  -9    1.28    0.28   1-0.16542-0.22539 0.72965 0.00002 0.66350 0.97426
   4   2   9    1.18    0.35   1-0.24192-0.18060 0.00094 0.73035 0.97029 0.65876
   4   2   9    0.93    0.40   1-0.65897-0.59793-0.58011 0.15004-0.47877-0.78737
  -4  -2  -9    1.47    0.43   1-0.78134-0.84244 0.25929-0.47154-0.56768-0.26064
  -4  -2 -10    3.62    0.35   1-0.16853-0.22161 0.71741-0.07454 0.67595 0.97228
   4   2  10    3.70    0.39   1-0.24126-0.18674-0.07370 0.71805 0.96765 0.67046
   4   2  10    3.76    0.36   1-0.65638-0.60206-0.58458 0.20784-0.47689-0.77092
  -4  -2 -10    3.70    0.36   1-0.77211-0.82656 0.29855-0.49458-0.56097-0.26865
  -4  -2 -11    3.47    0.47   1-0.17043-0.21663 0.70968-0.14460 0.68358 0.96548
   4   2  11    3.95    0.35   1-0.23940-0.19169-0.14386 0.71024 0.96020 0.67734
   4   2  11    3.42    0.36   1-0.65151-0.60391-0.59284 0.26184-0.47335-0.75281
  -4  -2 -11    3.61    0.48   1-0.76167-0.80947 0.33707-0.51836-0.55338-0.27578
   4   3 -12    8.51    0.65   1-0.22027-0.07287-0.41349-0.97247 0.88346 0.22130
  -4  -3  12    9.37    0.60   1-0.05610-0.20212-0.97274-0.41383 0.22500 0.88763
  -4  -3  12    9.89    0.63   1-0.79022-0.93551-0.21425 0.34147-0.57413 0.09053
   4   3 -12    9.76    0.72   1-0.34423-0.20115 0.90495 0.34843-0.25010-0.91549
   4   3 -11   15.61    0.85   1-0.21225-0.07165-0.47982-0.97645 0.85130 0.20348
  -4  -3  11   16.92    0.87   1-0.05182-0.19117-0.97678-0.48021 0.20783 0.85606
  -4  -3  11   18.44    0.94   1-0.79939-0.93798-0.15376 0.33969-0.58079 0.06922
   4   3 -11   18.44    0.96   1-0.32528-0.18877 0.91560 0.42137-0.23633-0.88702
   4   3 -10   20.63    1.05   1-0.20254-0.06936-0.54684-0.98140 0.81236 0.17898
  -4  -3  10   21.37    1.01   1-0.04577-0.17845-0.98193-0.54768 0.18359 0.81742
  -4  -3  10   21.96    1.09   1-0.80590-0.93779-0.08759 0.34359-0.58552 0.04984
   4   3 -10   23.18    1.14   1-0.29547-0.16553 0.93091 0.49897-0.21467-0.85065
   4   3  -9   30.48    1.24   1-0.19076-0.06432-0.61497-0.98717 0.76512 0.14607
  -4  -3   9   31.42    1.20   1-0.03770-0.16370-0.98778-0.61586 0.15122 0.77065
  -4  -3   9   30.63    1.22   1-0.80894-0.93413-0.01350 0.35540-0.58773 0.03299
   4   3  -9   35.10    1.40   1-0.25132-0.12795 0.95052 0.58087-0.18259-0.80387
   4   3  -8   60.62    1.97   1-0.17668-0.05696-0.68309-0.99295 0.70863 0.10392
  -4  -3   8   61.20    1.93   1-0.02730-0.14664-0.99360-0.68403 0.10953 0.71456
   4   3  -8   66.08    1.24   1-0.18806-0.07126 0.97260 0.66524-0.13664-0.74321
   4   3  -7   42.92    1.34   1-0.15999-0.04701-0.75006-0.99757 0.64171 0.05133
  -4  -3   7   42.91    1.30   1-0.01429-0.12695-0.99825-0.75100 0.05733 0.64797
  -4  -3   7   45.46    1.42   1-0.79679-0.90858 0.17315 0.41751-0.57890 0.01251
   4   3  -7   46.97    1.53   1-0.09985 0.01037 0.99235 0.74729-0.07254-0.66441
   4   3  -6    0.58    0.31   1-0.14046-0.03421-0.81417-0.99933 0.56337-0.01267
  -4  -3   6    0.60    0.30   1 0.00156-0.10419-0.99997-0.81491-0.00627 0.57013
  -4  -3   6    0.55    0.18   1-0.77141-0.87519 0.30131 0.48348-0.56046 0.01653
   4   3  -6    0.64    0.22   1 0.01872 0.12238 0.99973 0.81696 0.01360-0.56355
   4   3  -5   18.25    0.55   1-0.11787-0.01856-0.87327-0.99585 0.47275-0.08907
  -4  -3   5   18.22    0.56   1 0.02042-0.07866-0.99642-0.87369-0.08192 0.48008
  -4  -3   5   17.68    0.48   1-0.72074-0.81787 0.45422 0.57409-0.52365 0.03863
   4   3  -4   40.96    1.35   1-0.09247 0.00015-0.92405-0.98429 0.37091-0.17652
  -4  -3   4   39.64    1.32   1 0.04217-0.05025-0.98468-0.92426-0.16916 0.37842
  -4  -3   4   39.23    1.28   1-0.33560-0.42703-0.90990-0.85172-0.24382 0.30365
  -4  -3   4   39.28    1.26   1-0.62534-0.71583 0.63444 0.69202-0.45434 0.09323
   4   3  -3   19.63    0.73   1-0.06464 0.02132-0.96364-0.96155 0.25925-0.27378
  -4  -3   3   19.32    0.60   1 0.06638-0.01938-0.96161-0.96351-0.26624 0.26693
  -4  -3   3   19.51    0.56   1-0.49209-0.57681-0.79373-0.79782-0.35752 0.17538
  -4  -3   3   19.01    0.58   1-0.46699-0.55083 0.81657 0.81185-0.33929 0.19356
   4   3  -2    4.46    0.30   1-0.09257-0.01375 0.92389 0.98892 0.37128-0.14777
   4   3  -2    4.00    0.31   1-0.03518 0.04410-0.98936-0.92494 0.14111-0.37752
  -4  -3   2    4.49    0.30   1-0.61261-0.69061-0.65314-0.71950-0.44509 0.07325
  -4  -3   2    3.84    0.26   1-0.25581-0.33318 0.94869 0.88229-0.18585 0.33248
  -4  -3   1   -0.01    0.17   1-0.69384-0.76542-0.51425-0.64352-0.50410-0.00057
  -4  -3   1    0.11    0.15   1-0.03053-0.10134 0.99928 0.87059-0.02218 0.48145
  -4  -3   0    0.81    0.17   1-0.74304-0.80792-0.39553-0.58708-0.53985-0.05096
   4   3   1   12.20    0.45   1-0.16720-0.10903 0.72271 0.97475 0.67061 0.19485
   4   3   1   11.79    0.48   1 0.05049 0.10960-0.97797-0.72678-0.20251-0.67806
   4   3   1   11.21    0.46   1-0.30644-0.24860-0.92548-0.67231-0.22264-0.69727
  -4  -3  -1   11.35    0.44   1-0.77290-0.83108-0.29543-0.54925-0.56154-0.08731
   4   3   2    7.77    0.39   1-0.18728-0.13600 0.63299 0.94736 0.75116 0.28983
   4   3   2    7.49    0.39   1 0.07438 0.12683-0.95155-0.63804-0.29834-0.75948
   4   3   2    7.26    0.39   1-0.40797-0.35685-0.86353-0.54810-0.29641-0.75646
  -4  -3  -2    7.49    0.38   1-0.79091-0.84239-0.21034-0.52643-0.57463-0.11504
  -4  -3  -3    8.58    0.37   1-0.09506-0.13946 0.91956 0.54285 0.38127 0.82816
   4   3   3    9.13    0.37   1-0.20390-0.15950 0.53816 0.91486 0.81780 0.37091
   4   3   3    8.64    0.37   1-0.47751-0.43310-0.80722-0.42952-0.34693-0.79242
  -4  -3  -3    9.23    0.42   1-0.80145-0.84622-0.13644-0.51481-0.58228-0.13734
  -4  -3  -4   18.59    0.71   1-0.11203-0.14955 0.88629 0.44726 0.44935 0.88181
   4   3   4   20.29    0.74   1-0.21709-0.17889 0.44130 0.88078 0.87069 0.43842
   4   3   4   18.22    0.75   1-0.52476-0.48708-0.76108-0.32111-0.38126-0.81218
  -4  -3  -4   19.61    0.80   1-0.80698-0.84506-0.07075-0.51139-0.58631-0.15602
  -4  -3  -5    2.16    0.26   1-0.12578-0.15642 0.85419 0.35282 0.50450 0.92252
   4   3   5    2.03    0.31   1-0.22695-0.19560 0.34629 0.84810 0.91025 0.49240
   4   3   5    2.34    0.26   1-0.55669-0.52572-0.72560-0.22335-0.40446-0.82080
  -4  -3  -5    2.39    0.41   1-0.80896-0.84034-0.01109-0.51400-0.58774-0.17210
  -4  -3  -6   37.33    1.30   1-0.13668-0.16043 0.82508 0.26138 0.54822 0.95180
   4   3   6   37.38    1.28   1-0.23396-0.20946 0.25437 0.81851 0.93837 0.53494
   4   3   6   36.07    1.28   1-0.57793-0.55368-0.69976-0.13525-0.41989-0.82166
  -4  -3  -6   34.67    1.25   1-0.80823-0.83290 0.04404-0.52114-0.58721-0.18622
  -4  -3  -7   44.82    1.67   1-0.14515-0.16202 0.79999 0.17395 0.58218 0.97133
   4   3   7   45.88    1.68   1-0.23854-0.22089 0.16656 0.79303 0.95674 0.56772
   4   3   7   44.78    1.64   1-0.59153-0.57400-0.68218-0.05540-0.42977-0.81697
  -4  -3  -7   44.41    1.99   1-0.80530-0.82327 0.09574-0.53171-0.58508-0.19873
  -4  -3  -8    9.83    0.55   1-0.15157-0.16156 0.77937 0.09100 0.60794 0.98265
   4   3   8    9.69    0.57   1-0.24108-0.23027 0.08329 0.77209 0.96692 0.59232
   4   3   8   10.18    0.57   1-0.59948-0.58867-0.67149 0.01755-0.43555-0.80818
  -4  -3  -8   10.30    0.62   1-0.80049-0.81176 0.14477-0.54495-0.58159-0.20989
  -4  -3  -9    3.94    0.45   1-0.15629-0.15939 0.76330 0.01259 0.62685 0.98713
   4   3   9    3.87    0.41   1-0.24191-0.23739 0.00619 0.75664 0.97027 0.60920
   4   3   9    3.64    0.36   1-0.60310-0.59900-0.66652 0.08479-0.43818-0.79624
  -4  -3  -9    3.81    0.38   1-0.79401-0.79858 0.19170-0.56029-0.57688-0.21983
  -4  -3 -10    7.23    0.42   1-0.15957-0.15579 0.75159-0.06144 0.64002 0.98587
   4   3  10    7.93    0.40   1-0.24136-0.24364-0.06807 0.74471 0.96804 0.62131
   4   3  10    6.86    0.43   1-0.60327-0.60589-0.66629 0.14729-0.43830-0.78179
  -4  -3 -10    7.70    0.46   1-0.78597-0.78384 0.23695-0.57732-0.57104-0.22864
   4   4 -12    5.48    0.40   1-0.21710-0.12650-0.44118-0.97913 0.87075 0.15905
  -4  -4  12    4.69    0.49   1-0.04314-0.13241-0.98397-0.44605 0.17303 0.88515
  -4  -4  12    5.65    0.44   1-0.80467-0.89304-0.10346 0.43094-0.58463 0.12945
   4   4 -12    5.75    0.46   1-0.24753-0.16140 0.95204 0.41691-0.17984-0.89450
   4   4 -11    3.96    0.46   1-0.20861-0.12548-0.50632-0.98223 0.83672 0.13949
  -4  -4  11    4.37    0.37   1-0.03809-0.12069-0.98752-0.51194 0.15277 0.85049
  -4  -4  11    4.44    0.42   1-0.80863-0.89030-0.03073 0.44139-0.58750 0.11193
   4   4 -11    4.91    0.49   1-0.22121-0.14165 0.96189 0.48905-0.16072-0.86067
   4   4 -10    4.95    0.45   1-0.19834-0.12194-0.57256-0.98612 0.79550 0.11260
  -4  -4  10    4.91    0.36   1-0.03125-0.10718-0.99161-0.57836 0.12537 0.80870
  -4  -4  10    5.03    0.42   1-0.80803-0.88300 0.04922 0.45908-0.58707 0.09771
   4   4 -10    5.90    0.43   1-0.18379-0.11080 0.97385 0.56331-0.13353-0.81878
   4   4  -9    0.14    0.36   1-0.18610-0.11643-0.63892-0.99014 0.74641 0.07785
  -4  -4   9    0.09    0.35   1-0.02241-0.09167-0.99569-0.64477 0.08992 0.75885
  -4  -4   9    0.18    0.28   1-0.80122-0.86949 0.13845 0.48604-0.58212 0.08801
   4   4  -9    0.29    0.38   1-0.13278-0.06636 0.98644 0.63819-0.09647-0.76701
   4   4  -8    0.14    0.34   1-0.17166-0.10873-0.70461-0.99348 0.68851 0.03428
  -4  -4   8    0.32    0.24   1-0.01133-0.07391-0.99890-0.71031 0.04545 0.69999
  -4  -4   8    0.25    0.23   1-0.78482-0.84487 0.24274 0.52808-0.57020 0.08545
   4   4  -8    0.27    0.37   1-0.06547-0.00563 0.99671 0.71076-0.04757-0.70340
   4   4  -7    3.05    0.38   1-0.15481-0.09861-0.76842-0.99494 0.62092-0.01896
  -4  -4   7    2.99    0.37   1 0.00221-0.05344-0.99995-0.77355-0.00889 0.63147
  -4  -4   7    3.15    0.26   1-0.75551-0.80893 0.35760 0.58065-0.54891 0.09202
   4   4  -7    3.65    0.34   1 0.02027 0.07354 0.99968 0.77602 0.01472-0.62640
   4   4  -6   -0.05    0.22   1-0.13539-0.08592-0.82871-0.99287 0.54304-0.08251
  -4  -4   6   -0.02    0.30   1 0.01834-0.03065-0.99712-0.83303-0.07358 0.55236
  -4  -4   6    0.15    0.20   1-0.70652-0.75328 0.48716 0.64792-0.51331 0.11291
   4   4  -5   34.54    1.19   1-0.11332-0.07076-0.88349-0.98508 0.45451-0.15682
  -4  -4   5   34.54    1.19   1 0.03707-0.00525-0.98818-0.88642-0.14870 0.46283
  -4  -4   5   33.29    1.10   1-0.62958-0.66970 0.62799 0.72646-0.45742 0.15409
   4   4  -4    9.81    0.42   1-0.08892-0.05303-0.92999-0.96925 0.35665-0.24029
  -4  -4   4   10.14    0.41   1 0.05818 0.02250-0.97065-0.93121-0.23335 0.36378
  -4  -4   4   10.29    0.38   1-0.36687-0.40136-0.89126-0.85425-0.26655 0.33039
  -4  -4   4    9.72    0.39   1-0.51757-0.55105 0.76857 0.80474-0.37604 0.22075
   4   4  -3   12.79    2.01   1-0.06259-0.03338-0.96594-0.94286 0.25105-0.33148
  -4  -4   3   15.41    0.45   1-0.48202-0.50979-0.80312-0.82837-0.35021 0.23215
  -4  -4   3   14.53    0.46   1-0.37262-0.39962 0.88761 0.86210-0.27072 0.31158
   4   4  -2   55.57    1.97   1-0.10557-0.08361 0.89975 0.98587 0.42342-0.14515
   4   4  -2   52.23    1.97   1-0.03510-0.01256-0.98941-0.90400 0.14080-0.42734
  -4  -4   2   56.48    1.65   1-0.57843-0.59948-0.69914-0.78666-0.42025 0.14754
  -4  -4   2   51.01    1.59   1-0.20462-0.22504 0.96748 0.87968-0.14866 0.41894
   4   4  -1   23.72    1.65   1-0.12960-0.11453 0.84438 0.99282 0.51982-0.03431
  -4  -4   1   31.19    1.00   1-0.65249-0.66682-0.59120-0.74099-0.47406 0.07916
  -4  -4   1   28.90    0.98   1-0.03679-0.05064 0.99896 0.84887-0.02673 0.52616
   4   4   0   42.13    1.70   1-0.15255-0.14436 0.77611 0.98689 0.61186 0.07215
   4   4   0   40.20    2.18   1 0.01914 0.02816-0.99686-0.78701-0.07678-0.61628
  -4  -4   0   42.02    1.30   1-0.70720-0.71515-0.48565-0.69853-0.51381 0.02449
   4   4   1   41.56    1.52   1-0.17344-0.17214 0.69710 0.97022 0.69566 0.17039
   4   4   1   39.00    1.83   1 0.04398 0.04633-0.98333-0.71116-0.17640-0.70149
  -4  -4  -1   39.47    1.22   1-0.74476-0.74602-0.39053-0.66568-0.54110-0.01745
   4   4   2   26.24    0.93   1-0.19161-0.19719 0.61044 0.94589 0.76853 0.25769
   4   4   2   24.37    0.90   1 0.06622 0.06191-0.96179-0.62731-0.26562-0.77630
   4   4   2   24.06    0.90   1-0.32424-0.33006-0.91617-0.57957-0.23557-0.74508
  -4  -4  -2   25.08    0.90   1-0.77063-0.76518-0.30437-0.64179-0.55989-0.05089
   4   4   3   24.10    0.80   1-0.20672-0.21918 0.51941 0.91719 0.82914 0.33273
   4   4   3   23.12    0.80   1-0.39344-0.40597-0.87378-0.47490-0.28585-0.78079
  -4  -4  -3   23.48    0.82   1-0.78802-0.77587-0.22632-0.62601-0.57253-0.07817
  -4  -4  -4   22.72    0.85   1-0.10194-0.08260 0.90688 0.44677 0.40885 0.89082
   4   4   4   24.52    0.88   1-0.21881-0.23743 0.42650 0.88709 0.87761 0.39582
   4   4   4   23.19    0.85   1-0.44411-0.46337-0.83584-0.37470-0.32267-0.80304
  -4  -4  -4   24.21    0.90   1-0.79922-0.78037-0.15513-0.61710-0.58066-0.10095
  -4  -4  -5    5.07    0.32   1-0.11529-0.08907 0.87912 0.35667 0.46243 0.92997
   4   4   5    5.73    0.38   1-0.22793-0.25340 0.33504 0.85797 0.91421 0.44683
   4   4   5    5.04    0.33   1-0.48073-0.50670-0.80430-0.28089-0.34927-0.81507
  -4  -4  -5    5.03    0.45   1-0.80576-0.78021-0.08957-0.61381-0.58542-0.12036
  -4  -4  -6   17.65    0.87   1-0.12606-0.09296 0.85349 0.26870 0.50562 0.95872
   4   4   6   17.78    0.85   1-0.23448-0.26679 0.24610 0.83136 0.94045 0.48749
   4   4   6   17.32    0.85   1-0.50675-0.53944-0.77951-0.19384-0.36817-0.81940
  -4  -4  -6   16.80    0.88   1-0.80868-0.77644-0.02857-0.61509-0.58754-0.13713
   4   4   7    0.40    0.23   1-0.23878-0.27794 0.16063 0.80822 0.95769 0.51915
   4   4   7    0.50    0.37   1-0.52472-0.56413-0.76113-0.11319-0.38123-0.81788
  -4  -4  -7    0.48    0.34   1-0.80868-0.76973 0.02873-0.62005-0.58754-0.15177
  -4  -4  -8    0.05    0.33   1-0.14111-0.09424 0.81224 0.10278 0.56599 0.99022
   4   4   8   -0.00    0.33   1-0.24116-0.28717 0.07908 0.78900 0.96725 0.54313
   4   4   8    0.03    0.28   1-0.53647-0.58260-0.74851-0.03830-0.38976-0.81185
  -4  -4  -8   -0.09    0.48   1-0.80622-0.76057 0.08303-0.62802-0.58575-0.16463
  -4  -4  -9    0.27    0.29   1-0.14600-0.09225 0.79733 0.02554 0.58560 0.99540
   4   4   9    0.46    0.37   1-0.24192-0.29420 0.00324 0.77472 0.97029 0.55968
   4   4   9    0.38    0.31   1-0.54330-0.59615-0.74094 0.03153-0.39473-0.80225
  -4  -4  -9    0.30    0.35   1-0.80162-0.74927 0.13487-0.63845-0.58241-0.17594
   4   5 -12   11.13    0.62   1-0.21461-0.18081-0.46156-0.97847 0.86075 0.09951
  -4  -5  12   12.05    0.62   1-0.02884-0.06137-0.99286-0.47593 0.11570 0.87733
  -4  -5  12   11.08    0.87   1-0.80901-0.84046-0.00049 0.51258-0.58778 0.17572
   4   5 -12   12.93    1.40   1-0.15273-0.12356 0.98201 0.46829-0.11096-0.87489
   4   5 -11    3.07    0.35   1-0.20579-0.17944-0.52569-0.98061 0.82540 0.07865
  -4  -5  11    3.36    0.46   1-0.02305-0.04890-0.99544-0.54085 0.09246 0.83969
  -4  -5  11    3.45    0.53   1-0.80636-0.83111 0.08087 0.53168-0.58586 0.16299
   4   5 -11    4.26    0.44   1-0.12167-0.09908 0.98862 0.53719-0.08840-0.83762
   4   5 -10    7.95    0.53   1-0.19522-0.17560-0.59058-0.98316 0.78300 0.05058
  -4  -5  10    8.19    0.53   1-0.01548-0.03466-0.99794-0.60568 0.06211 0.79494
  -4  -5  10    8.81    0.66   1-0.79734-0.81538 0.16927 0.55780-0.57930 0.15490
   4   5 -10    9.51    0.72   1-0.08040-0.06437 0.99505 0.60590-0.05841-0.79292
   4   5  -9   20.31    0.95   1-0.18277-0.16989-0.65512-0.98534 0.73307 0.01499
  -4  -5   9   20.52    0.91   1-0.00596-0.01846-0.99969-0.66976 0.02390 0.74234
  -4  -5   9   22.14    1.00   1-0.77924-0.78894 0.26876 0.59500-0.56615 0.15344
   4   5  -9   23.21    1.09   1-0.02753-0.01807 0.99942 0.67257-0.02000-0.73981
   4   5  -8   21.06    1.05   1-0.16826-0.16211-0.71847-0.98635 0.67488-0.02885
  -4  -5   8   20.81    0.99   1 0.00573 0.00016-0.99971-0.73197-0.02298 0.68133
  -4  -5   8   21.38    1.00   1-0.75031-0.75335 0.37396 0.63790-0.54513 0.15975
   4   5  -8   23.41    1.19   1 0.03792 0.04080 0.99890 0.73434 0.02755-0.67754
   4   5  -7   34.38    1.33   1-0.15155-0.15213-0.77946-0.98498 0.60783-0.08157
  -4  -5   7   33.43    1.30   1 0.01964 0.02074-0.99669-0.79127-0.07879 0.61111
  -4  -5   7   33.29    1.25   1-0.70643-0.70283 0.48735 0.68900-0.51325 0.17692
   4   5  -6   60.54    1.94   1-0.13254-0.13986-0.83655-0.97972 0.53161-0.14346
  -4  -5   6   60.97    1.92   1 0.03586 0.04362-0.98894-0.84584-0.14385 0.53163
  -4  -5   6   61.41    1.90   1-0.64342-0.63317 0.60618 0.74553-0.46747 0.20798
   4   5  -5   36.05    1.21   1-0.11124-0.12543-0.88800-0.96859 0.44617-0.21466
  -4  -5   5   35.75    1.19   1 0.05428 0.06871-0.97449-0.89371-0.21774 0.44334
  -4  -5   5   35.92    1.17   1-0.30061-0.28487-0.92840-0.85028-0.21840 0.44256
  -4  -5   5   34.22    1.12   1-0.55782-0.54092 0.72427 0.80133-0.40528 0.25546
   4   5  -4    1.71    0.39   1-0.08800-0.10887-0.93148-0.94974 0.35297-0.29347
  -4  -5   4    1.78    0.26   1 0.07460 0.09569-0.95126-0.93280-0.29922 0.34745
  -4  -5   4    2.05    0.30   1-0.39725-0.37480-0.87113-0.85528-0.28862 0.35777
  -4  -5   4    2.01    0.23   1-0.44904-0.42550 0.83181 0.84657-0.32625 0.31977
   4   5  -3   18.74    0.70   1-0.09668-0.12469 0.91667 0.96153 0.38776-0.24476
   4   5  -3   15.20    1.93   1-0.06323-0.09077-0.96523-0.92116 0.25361-0.37843
  -4  -5   3   18.85    0.67   1-0.48777-0.45859-0.79780-0.84422-0.35438 0.27744
  -4  -5   3   17.31    0.66   1-0.32319-0.29323 0.91673 0.86982-0.23481 0.39675
   4   5  -2   31.95    1.52   1-0.11894-0.15384 0.87078 0.97797 0.47705-0.14103
   4   5  -2   31.54    1.35   1-0.03760-0.07182-0.98784-0.88143 0.15084-0.46680
  -4  -5   2   32.70    1.11   1-0.56692-0.53103-0.71339-0.82208-0.41189 0.20536
  -4  -5   2   30.94    1.08   1-0.18701-0.15048 0.97291 0.86371-0.13587 0.48099
   4   5  -1    9.25    1.68   1-0.14089-0.18268 0.81289 0.98241 0.56511-0.03854
   4   5  -1    9.90    1.36   1-0.01198-0.05286-0.99877-0.83003 0.04805-0.55519
  -4  -5   1   12.89    0.43   1-0.63226-0.58965-0.62387-0.79483-0.45936 0.14331
  -4  -5   1   12.03    0.45   1-0.05372-0.01061 0.99779 0.82629-0.03903 0.56313
   4   5   0    4.84    0.80   1-0.16165-0.21031 0.74398 0.97584 0.64834 0.05912
   4   5   0    4.91    0.84   1 0.01263-0.03510-0.99863-0.76780-0.05067-0.63971
  -4  -5   0    5.90    0.33   1-0.68388-0.63456-0.53424-0.76746-0.49687 0.09124
  -4  -5  -1    0.17    0.19   1-0.72421-0.66854-0.44571-0.74218-0.52617 0.04690
   4   5   2   -0.00    0.28   1-0.19676-0.25919 0.58180 0.93832 0.78917 0.22881
   4   5   2    0.01    0.23   1 0.05656-0.00450-0.97228-0.61681-0.22687-0.78709
  -4  -5  -2    0.02    0.20   1-0.75357-0.69120-0.36382-0.72257-0.54750 0.01092
   4   5   3    3.52    0.34   1-0.21042-0.27900 0.49341 0.91280 0.84395 0.29822
   4   5   3    3.51    0.31   1 0.07484 0.00710-0.95094-0.53315-0.30017-0.84598
   4   5   3    3.38    0.30   1-0.31732-0.38680-0.91986-0.49982-0.23055-0.77495
  -4  -5  -3    3.47    0.30   1-0.77497-0.70591-0.28701-0.70803-0.56305-0.01927
  -4  -5  -4    3.61    0.30   1-0.09061-0.01441 0.92720 0.44600 0.36342 0.89491
   4   5   4    3.75    0.29   1-0.22126-0.29669 0.40436 0.88608 0.88742 0.35611
   4   5   4    3.43    0.30   1-0.36832-0.44452-0.89035-0.40804-0.26760-0.79743
  -4  -5  -4    4.13    0.34   1-0.79008-0.71431-0.21508-0.69838-0.57402-0.04490
  -4  -5  -5    2.20    0.36   1-0.10363-0.02055 0.90360 0.36007 0.41564 0.93269
   4   5   5    2.45    0.27   1-0.22951-0.31180 0.31609 0.86014 0.92054 0.40365
   4   5   5    2.22    0.36   1-0.40707-0.48999-0.86418-0.31961-0.29576-0.81101
  -4  -5  -5    2.07    0.32   1-0.80015-0.71769-0.14757-0.69314-0.58135-0.06687
  -4  -5  -6    8.62    0.50   1-0.11428-0.02432 0.88138 0.27551 0.45837 0.96098
   4   5   6    9.33    0.51   1-0.23543-0.32456 0.22995 0.83633 0.94429 0.44181
   4   5   6    8.78    0.51   1-0.43599-0.52563-0.84235-0.23551-0.31677-0.81745
  -4  -5  -6    9.11    0.64   1-0.80616-0.71699-0.08392-0.69176-0.58571-0.08588
  -4  -5  -7    0.01    0.36   1-0.12282-0.02597 0.86154 0.19334 0.49260 0.98078
   4   5   7    0.06    0.24   1-0.23930-0.33527 0.14680 0.81551 0.95978 0.47172
   4   5   7    0.22    0.34   1-0.45704-0.55339-0.82513-0.15602-0.33205-0.81817
  -4  -5  -7    0.04    0.33   1-0.80879-0.71292-0.02360-0.69371-0.58762-0.10244
  -4  -5  -8   18.23    0.96   1-0.12949-0.02577 0.84467 0.11414 0.51937 0.99313
   4   5   8   19.62    0.99   1-0.24137-0.34420 0.06709 0.79814 0.96810 0.49446
   4   5   8   19.11    1.03   1-0.47172-0.57479-0.81241-0.08103-0.34272-0.81427
  -4  -5  -8   18.13    1.00   1-0.80855-0.70598 0.03387-0.69851-0.58744-0.11691
  -4  -5  -9   20.74    0.90   1-0.13455-0.02394 0.83105 0.03818 0.53966 0.99898
   4   5   9   21.28    0.91   1-0.24191-0.35099-0.00730 0.78522 0.97026 0.51012
   4   5   9   19.60    0.85   1-0.48121-0.59100-0.80386-0.01021-0.34962-0.80659
  -4  -5  -9   20.27    1.01   1-0.80581-0.69654 0.08894-0.70572-0.58545-0.12957
   4   6 -11   21.70    1.03   1-0.20393-0.23435-0.53798-0.97190 0.81791 0.02165
  -4  -6  11   23.33    0.95   1-0.00681 0.02409-0.99960-0.56599 0.02732 0.82405
  -4  -6  11   25.01    1.59   1-0.79623-0.76405 0.17708 0.60656-0.57849 0.21978
   4   6 -11   27.13    1.18   1-0.02915-0.06351 0.99935 0.56931-0.02118-0.81966
   4   6 -10    6.48    0.44   1-0.19326-0.23043-0.60148-0.97306 0.77515-0.00678
  -4  -6  10    7.35    0.50   1 0.00147 0.03933-0.99998-0.62857-0.00592 0.77675
  -4  -6  10    8.21    0.49   1-0.77859-0.73792 0.27163 0.63875-0.56568 0.21786
   4   6 -10    8.46    0.70   1 0.01296-0.02796 0.99987 0.63213 0.00941-0.77435
   4   6  -9    3.41    0.34   1-0.18083-0.22473-0.66427-0.97350 0.72528-0.04231
  -4  -6   9    3.77    0.34   1 0.01157 0.05609-0.99885-0.68976-0.04641 0.72185
  -4  -6   9    3.76    0.57   1-0.75193-0.70460 0.36897 0.67380-0.54631 0.22252
   4   6  -8    8.60    0.53   1-0.16649-0.21712-0.72551-0.97239 0.66776-0.08549
  -4  -6   8    9.07    0.56   1 0.02365 0.07484-0.99520-0.74844-0.09489 0.65896
  -4  -6   8    8.97    0.50   1-0.71358-0.65961 0.47116 0.71369-0.51845 0.23566
   4   6  -7    0.34    0.25   1-0.15014-0.20750-0.78410-0.96863 0.60219-0.13673
  -4  -6   7    0.44    0.25   1 0.03779 0.09564-0.98772-0.80327-0.15157 0.58787
  -4  -6   7    0.38    0.30   1-0.66121-0.60059 0.57620 0.75643-0.48040 0.25900
   4   6  -6    0.94    0.26   1-0.13177-0.19586-0.83864-0.96082 0.52850-0.19609
  -4  -6   6    0.95    0.26   1 0.05392 0.11844-0.97484-0.85271-0.21627 0.50876
  -4  -6   6    0.90    0.22   1-0.59289-0.52563 0.68038 0.79832-0.43076 0.29392
   4   6  -5    0.49    0.25   1-0.11140-0.18234-0.88765-0.94726 0.44682-0.26351
  -4  -6   5    0.24    0.24   1 0.07186 0.14304-0.95485-0.89505-0.28824 0.42239
  -4  -6   5    0.33    0.30   1-0.34851-0.27583-0.90245-0.84549-0.25321 0.45721
  -4  -6   5    0.13    0.20   1-0.50805-0.43414 0.77822 0.83387-0.36912 0.34085
   4   6  -4    0.82    0.24   1-0.09167-0.16966 0.92542 0.92903 0.36766-0.32881
  -4  -6   4    1.10    0.23   1-0.42701-0.34761-0.84935-0.85467-0.31024 0.38561
  -4  -6   4    1.07    0.43   1-0.40968-0.32933 0.86230 0.85628-0.29765 0.39789
   4   6  -3   13.69    0.72   1-0.11197-0.19685 0.88642 0.95236 0.44912-0.23292
   4   6  -3   13.93    0.68   1-0.06618-0.15047-0.96184-0.89678 0.26546-0.41608
  -4  -6   3   15.08    0.62   1-0.50100-0.41488-0.78517-0.85276-0.36399 0.31728
  -4  -6   3   13.03    0.45   1-0.29994-0.21301 0.92873 0.86042-0.21792 0.46291
   4   6  -2    1.88    0.79   1-0.13249-0.22425 0.83669 0.96496 0.53140-0.13620
  -4  -6   2    3.93    0.35   1-0.56744-0.47461-0.71276-0.84261-0.41227 0.25443
  -4  -6   2    3.61    0.30   1-0.18647-0.09297 0.97307 0.84247-0.13547 0.53065
   4   6  -1   11.15    1.03   1-0.15245-0.25109 0.77645 0.96706 0.61145-0.04172
   4   6  -1   11.55    1.56   1-0.01850-0.11614-0.99707-0.80734 0.07421-0.57853
  -4  -6   1   12.41    0.47   1-0.62464-0.52509-0.63549-0.82761-0.45383 0.19831
  -4  -6   1   11.61    0.51   1-0.07631 0.02374 0.99554 0.80264-0.05544 0.59598
   4   6   0   21.45    1.29   1-0.17112-0.27664 0.70684 0.95979 0.68635 0.04760
   4   6   0   22.09    1.17   1 0.00435-0.10014-0.99983-0.74803-0.01747-0.65606
  -4  -6   0   22.33    0.83   1-0.67219-0.56592-0.55645-0.81084-0.48837 0.14919
  -4  -6   0   20.72    0.81   1 0.02479 0.13142 0.99953 0.74434 0.01801 0.65473
   4   6   1   21.23    0.88   1-0.18792-0.30033 0.62973 0.94501 0.75373 0.12942
   4   6   1   19.82    1.03   1 0.02591-0.08524-0.99424-0.68011-0.10395-0.72812
  -4  -6  -1   20.48    0.78   1-0.71146-0.59888-0.47604-0.79384-0.51691 0.10558
   4   6   2   19.22    0.80   1-0.20246-0.32174 0.54738 0.92499 0.81202 0.20214
   4   6   2   18.77    0.82   1 0.04554-0.07229-0.98212-0.60567-0.18265-0.79242
  -4  -6  -2   18.41    0.79   1-0.74160-0.62231-0.39963-0.77971-0.53880 0.06903
   4   6   3   19.66    0.92   1-0.21459-0.33999 0.46167 0.90218 0.86070 0.26544
   4   6   3   18.01    0.93   1 0.06292-0.06156-0.96557-0.52680-0.25239-0.84775
  -4  -6  -3   18.51    0.92   1-0.76479-0.63880-0.32610-0.76845-0.55565 0.03754
   4   6   4   12.51    0.65   1-0.22421-0.35646 0.37551 0.87836 0.89928 0.31844
   4   6   4   11.68    0.64   1 0.07797-0.05318-0.94663-0.44554-0.31272-0.89367
   4   6   4   11.49    0.63   1-0.29747-0.43062-0.92994-0.42647-0.21612-0.79541
  -4  -6  -4   12.08    0.70   1-0.78211-0.64942-0.25572-0.76035-0.56824 0.01030
  -4  -6  -5    9.36    0.54   1-0.09080 0.04912 0.92688 0.36226 0.36420 0.93077
   4   6   5   10.39    0.56   1-0.23151-0.37061 0.29009 0.85527 0.92857 0.36215
   4   6   5    9.87    0.62   1-0.33660-0.47646-0.90933-0.34359-0.24455-0.80927
  -4  -6  -5    9.55    0.57   1-0.79451-0.65512-0.18850-0.75540-0.57724-0.01335
  -4  -6  -6    9.76    0.59   1-0.10134 0.04547 0.90802 0.28107 0.40647 0.95860
   4   6   6    9.57    0.52   1-0.23670-0.38264 0.20656 0.83407 0.94936 0.39736
   4   6   6    9.39    0.53   1-0.36691-0.51349-0.89124-0.26323-0.26657-0.81672
  -4  -6  -6    9.67    0.58   1-0.80274-0.65665-0.12425-0.75342-0.58323-0.03398
  -4  -6  -7    2.23    0.31   1-0.10990 0.04379 0.89085 0.20157 0.44079 0.97849
   4   6   7    2.29    0.30   1-0.24000-0.39279 0.12567 0.81551 0.96260 0.42501
   4   6   7    2.36    0.33   1-0.38982-0.54312-0.87625-0.18597-0.28322-0.81879
  -4  -6  -7    2.20    0.39   1-0.80742-0.65463-0.06270-0.75415-0.58662-0.05202
   4   7 -10    9.66    0.60   1-0.19250-0.28644-0.60566-0.95625 0.77207-0.05936
  -4  -7  10   10.67    0.71   1 0.01938 0.11400-0.99678-0.64635-0.07774 0.75447
  -4  -7  10   10.57    1.12   1-0.75769-0.66000 0.35049 0.69621-0.55049 0.28228
   4   7  -9    2.00    0.32   1-0.18027-0.28095-0.66686-0.95510 0.72304-0.09407
  -4  -7   9    2.20    0.32   1 0.02993 0.13121-0.99231-0.70420-0.12004 0.69776
  -4  -7   9    2.25    0.31   1-0.72459-0.62025 0.44475 0.72817-0.52644 0.29161
   4   7  -8    5.81    0.38   1-0.16629-0.27370-0.72629-0.95217 0.66696-0.13581
  -4  -7   8    5.61    0.47   1 0.04229 0.15024-0.98459-0.75880-0.16965 0.63374
  -4  -7   8    5.88    0.36   1-0.68064-0.56966 0.54052 0.76164-0.49452 0.30882
   4   7  -7   17.62    0.87   1-0.15050-0.26464-0.78293-0.94647 0.60362-0.18482
  -4  -7   7   18.13    0.86   1 0.05647 0.17108-0.97237-0.80890-0.22650 0.56249
  -4  -7   7   17.85    0.86   1-0.62470-0.50707 0.63541 0.79423-0.45387 0.33476
   4   7  -6   16.35    0.78   1-0.13291-0.25378-0.83556-0.93674 0.53307-0.24103
  -4  -7   6   16.22    0.76   1 0.07233 0.19360-0.95425-0.85311-0.29010 0.48447
  -4  -7   6   17.04    0.78   1-0.32442-0.20152-0.91606-0.81801-0.23571 0.53874
  -4  -7   6   15.79    0.73   1-0.55631-0.43203 0.72605 0.82258-0.40418 0.36973
   4   7  -5   26.32    1.22   1-0.09003-0.21800 0.92816 0.89051 0.36111-0.39932
   4   7  -5   25.55    1.22   1-0.11359-0.24128-0.88291-0.92152 0.45559-0.30425
  -4  -7   5   28.45    1.27   1-0.39080-0.26118-0.87558-0.83979-0.28393 0.47594
  -4  -7   5   24.43    1.12   1-0.47621-0.34529 0.80839 0.84263-0.34599 0.41320
   4   7  -4   40.50    1.87   1-0.10840-0.24324 0.89399 0.91867 0.43476-0.31122
   4   7  -4   38.31    1.80   1-0.09289-0.22726-0.92334-0.89962 0.37257-0.37287
  -4  -7   4   41.89    1.81   1-0.45623-0.31989-0.82581-0.85229-0.33147 0.41383
  -4  -7   4   37.34    1.62   1-0.38781-0.25050 0.87761 0.85019-0.28176 0.46304
   4   7  -3   20.70    1.61   1-0.12728-0.26901 0.85040 0.93742 0.51049-0.22106
   4   7  -3   20.12    1.66   1-0.07116-0.21220-0.95575-0.86970 0.28542-0.44562
  -4  -7   3   22.99    1.08   1-0.51828-0.37522-0.76784-0.85659-0.37655 0.35418
  -4  -7   3   19.94    0.96   1-0.29252-0.14864 0.93234 0.84263-0.21253 0.51756
  -4  -7   2    3.92    0.38   1-0.57499-0.42521-0.70346-0.85448-0.41775 0.29841
  -4  -7   2    3.69    0.33   1-0.19588-0.04543 0.97024 0.81824-0.14232 0.57307
   4   7  -1   10.53    1.07   1-0.16408-0.31958 0.73482 0.94651 0.65811-0.04458
   4   7  -1   11.04    1.21   1-0.02677-0.18116-0.99385-0.78314 0.10738-0.59487
  -4  -7   1   11.96    0.68   1-0.62514-0.46864-0.63474-0.84803-0.45419 0.24740
  -4  -7   1   10.94    0.62   1-0.10239 0.05463 0.99195 0.77766-0.07439 0.62630
   4   7   0   17.94    1.09   1-0.18077-0.34315 0.66453 0.93855 0.72505 0.03679
   4   7   0   18.72    1.20   1-0.00532-0.16638-0.99975-0.72670 0.02136-0.66649
  -4  -7   0   18.78    0.91   1-0.66823-0.50501-0.56369-0.83925-0.48550 0.20152
  -4  -7   0   17.02    0.86   1-0.01568 0.14790 0.99981 0.72322-0.01139 0.67458
   4   7   1    4.88    0.42   1-0.19567-0.36493 0.58803 0.92439 0.78480 0.11098
   4   7   1    4.96    0.64   1 0.01471-0.15321-0.99814-0.66304-0.05901-0.73273
  -4  -7  -1    4.50    0.37   1-0.70520-0.53570-0.49006-0.82919-0.51236 0.15954
   4   7   2    6.25    0.42   1-0.20853-0.38390 0.50690 0.90620 0.83639 0.17720
   4   7   2    6.00    0.39   1 0.03324-0.14134-0.99051-0.59308-0.13332-0.79263
  -4  -7  -2    5.68    0.43   1-0.73460-0.55839-0.41891-0.82032-0.53372 0.12353
   4   7   3    0.70    0.33   1-0.21911-0.40132 0.42389 0.88552 0.87880 0.23403
   4   7   3    0.46    0.27   1 0.04982-0.13143-0.97856-0.51881-0.19981-0.84472
  -4  -7  -3    0.30    0.36   1-0.75809-0.57518-0.34917-0.81285-0.55078 0.09182
   4   7   4    0.14    0.33   1-0.22748-0.41654 0.34029 0.86426 0.91238 0.28202
   4   7   4    0.11    0.38   1 0.06432-0.12359-0.96400-0.44193-0.25799-0.88849
  -4  -7  -4    0.03    0.27   1-0.77635-0.58674-0.28129-0.80724-0.56405 0.06391
   4   7   5    0.47    0.35   1-0.23376-0.42967 0.25745 0.84375 0.93758 0.32164
   4   7   5    0.58    0.28   1 0.07675-0.11782-0.94833-0.36394-0.30785-0.92393
  -4  -7  -5    0.56    0.30   1-0.79000-0.59369-0.21549-0.80372-0.57397 0.03934
  -4  -7  -6    1.49    0.30   1-0.08723 0.11644 0.93273 0.28470 0.34986 0.95151
   4   7   6    1.35    0.39   1-0.23813-0.44089 0.17635 0.82498 0.95508 0.35356
   4   7   6    1.16    0.31   1-0.29995-0.50348-0.92872-0.27955-0.21792-0.81753
  -4  -7  -6    1.43    0.35   1-0.79963-0.59662-0.15182-0.80232-0.58097 0.01769
   4   8  -9   19.18    0.97   1-0.18106-0.33852-0.66317-0.93042 0.72622-0.14040
  -4  -8   9   20.26    0.85   1 0.04900 0.20704-0.97926-0.71214-0.19654 0.67081
  -4  -8   9   20.62    0.90   1-0.70056-0.53921 0.50013 0.76214-0.50898 0.35830
   4   8  -8    7.02    0.41   1-0.16760-0.33179-0.72111-0.92600 0.67223-0.18006
  -4  -8   8    7.59    0.55   1 0.06148 0.22619-0.96716-0.76235-0.24660 0.60634
  -4  -8   8    6.89    0.38   1-0.65407-0.48607 0.58853 0.78824-0.47521 0.37736
   4   8  -7    2.59    0.33   1-0.15251-0.32343-0.77625-0.91879 0.61169-0.22627
  -4  -8   7    2.98    0.34   1 0.07551 0.24688-0.95002-0.80754-0.30288 0.53564
  -4  -8   7    2.79    0.34   1-0.31723-0.14410-0.91991-0.78074-0.23048 0.60799
  -4  -8   7    2.70    0.30   1-0.59777-0.42313 0.67381 0.81123-0.43431 0.40354
   4   8  -6    9.29    0.53   1-0.09131-0.26925 0.92602 0.84712 0.36624-0.45813
   4   8  -6    9.13    0.54   1-0.13582-0.31347-0.82752-0.90772 0.54474-0.27888
  -4  -8   6   10.68    0.57   1-0.37292-0.19307-0.88741-0.81052-0.27094 0.55296
  -4  -8   6    8.52    0.40   1-0.53202-0.35073 0.75334 0.82846-0.38654 0.43660
   4   8  -5    0.75    0.27   1-0.10784-0.29266 0.89514 0.87857 0.43252-0.37742
   4   8  -5    0.90    0.29   1-0.11761-0.30205-0.87387-0.89149 0.47171-0.33763
  -4  -8   5    0.83    0.27   1-0.42943-0.24286-0.84749-0.83286-0.31200 0.49734
  -4  -8   5    0.67    0.37   1-0.45801-0.27007 0.82431 0.83714-0.33276 0.47566
   4   8  -4    1.75    0.29   1-0.12505-0.31675 0.85604 0.90180 0.50155-0.29396
   4   8  -4    1.48    0.30   1-0.09821-0.28933-0.91388-0.86917 0.39392-0.40102
  -4  -8   4    1.52    0.28   1-0.48497-0.29168-0.80040-0.84804-0.35235 0.44241
  -4  -8   4    1.50    0.28   1-0.37889-0.18463 0.88354 0.83472-0.27528 0.51878
  -4  -8   3    0.03    0.25   1-0.53790-0.33790-0.74694-0.85685-0.39081 0.38938
  -4  -8   3    0.08    0.26   1-0.29541-0.09458 0.93094 0.81983-0.21463 0.56473
   4   8  -2    1.85    0.41   1-0.15949-0.36496 0.75189 0.92232 0.63970-0.12694
   4   8  -2    1.77    0.48   1-0.05723-0.26170-0.97161-0.80223 0.22956-0.53659
  -4  -8   2    2.13    0.29   1-0.58689-0.38017-0.68827-0.86046-0.42640 0.33922
  -4  -8   2    1.94    0.40   1-0.21172-0.00431 0.96514 0.79174-0.15382 0.61083
   4   8  -1    3.10    0.35   1-0.17564-0.38799 0.68765 0.92042 0.70446-0.04774
   4   8  -1    3.07    0.42   1-0.03661-0.24775-0.98848-0.75677 0.14684-0.60490
  -4  -8   1    3.13    0.31   1-0.63102-0.41758-0.62578-0.86024-0.45846 0.29258
  -4  -8   1    2.72    0.39   1-0.13084 0.08313 0.98683 0.75113-0.09506 0.65488
   4   8   0    0.72    0.35   1-0.19042-0.40966 0.61676 0.91186 0.76376 0.02598
   4   8   0    0.84    0.45   1-0.01659-0.23440-0.99764-0.70360 0.06654-0.67081
  -4  -8   0    1.06    0.27   1-0.66981-0.44964-0.56083-0.85755-0.48664 0.24984
  -4  -8   0    0.86    0.30   1-0.05528 0.16526 0.99766 0.69967-0.04016 0.69508
   4   8   1    7.15    0.37   1-0.20349-0.42961 0.54079 0.89823 0.81616 0.09282
   4   8   1    7.34    0.59   1 0.00219-0.22248-0.99995-0.64387-0.00880-0.73206
  -4  -8  -1    6.44    0.46   1-0.70400-0.47757-0.49270-0.85316-0.51148 0.20983
  -4  -8  -1    6.45    0.42   1 0.01325 0.24037 0.99986 0.63958 0.00962 0.73017
   4   8   2    5.66    0.35   1-0.21466-0.44685 0.46112 0.88155 0.86097 0.15226
   4   8   2    5.24    0.49   1 0.01971-0.21163-0.99667-0.57826-0.07906-0.78791
  -4  -8  -2    5.23    0.44   1-0.73186-0.49873-0.42617-0.84891-0.53173 0.17494
   4   8   3   10.93    0.62   1-0.22376-0.46279 0.38010 0.86286 0.89746 0.20317
   4   8   3   10.36    0.64   1 0.03553-0.20248-0.98915-0.50842-0.14251-0.83696
  -4  -8  -3   10.00    0.61   1-0.75474-0.51490-0.36011-0.84511-0.54835 0.14368
   4   8   4    6.33    0.37   1-0.23086-0.47674 0.29879 0.84389 0.92596 0.24608
   4   8   4    6.29    0.40   1 0.04951-0.19515-0.97882-0.43577-0.19860-0.87864
  -4  -8  -4    6.32    0.40   1-0.77301-0.52648-0.29498-0.84226-0.56163 0.11575
   4   9  -6    3.41    0.35   1-0.10995-0.34475 0.89074 0.83291 0.44101-0.43289
   4   9  -6    3.20    0.47   1-0.14036-0.37479-0.81447-0.87367 0.56296-0.31018
  -4  -9   6    3.75    0.36   1-0.41684-0.18005-0.85703-0.80130-0.30285 0.57051
  -4  -9   6    3.34    0.43   1-0.51784-0.27954 0.76829 0.82201-0.37623 0.49613
   4   9  -5   11.38    0.71   1-0.12554-0.36721 0.85481 0.85933 0.50351-0.35595
   4   9  -5   10.60    0.77   1-0.12330-0.36450-0.86035-0.85698 0.49455-0.36429
  -4  -9   5   11.56    0.61   1-0.46547-0.22196-0.81789-0.82443-0.33818 0.52060
  -4  -9   5    9.88    0.50   1-0.45007-0.20512 0.83096 0.82238-0.32699 0.53066
   4   9  -4    9.79    0.98   1-0.14149-0.39005 0.81112 0.87797 0.56749-0.27753
   4   9  -4    8.57    1.08   1-0.10521-0.35308-0.90047-0.83477 0.42198-0.42246
  -4  -9   4   10.86    0.67   1-0.51323-0.26299-0.77301-0.84182-0.37288 0.47134
  -4  -9   4    9.57    0.59   1-0.37919-0.12797 0.88335 0.81313-0.27550 0.56783
   4   9  -3   12.27    1.28   1-0.15736-0.41280 0.75953 0.88871 0.63114-0.19945
   4   9  -3   12.55    1.17   1-0.08634-0.34089-0.93413-0.80610 0.34632-0.48373
  -4  -9   3   15.06    0.80   1-0.55893-0.30198-0.72296-0.85404-0.40608 0.42356
  -4  -9   3   13.06    0.73   1-0.30543-0.04763 0.92599 0.79348-0.22190 0.60672
   4   9  -2   19.96    1.40   1-0.17267-0.43499 0.70039 0.89190 0.69255-0.12360
   4   9  -2   14.44    1.23   1-0.06710-0.32831-0.96076-0.77039 0.26912-0.54652
  -4  -9   2   16.54    0.87   1-0.60161-0.33794-0.66858-0.86192-0.43710 0.37798
  -4  -9   2   14.09    0.78   1-0.23201 0.03235 0.95799 0.76319-0.16856 0.64535
   4   9  -1    9.31    1.12   1-0.04790-0.31579-0.98019-0.72749 0.19214-0.60911
  -4  -9   1   10.46    0.62   1-0.64057-0.37018-0.61079-0.86640-0.46540 0.33511
  -4  -9   1    9.88    0.62   1-0.16108 0.10985 0.97997 0.72288-0.11703 0.68218
   4   9   0    5.57    0.70   1-0.19991-0.47600 0.56313 0.87932 0.80181 0.01452
   4   9   0    4.24    0.67   1-0.02920-0.30377-0.99268-0.67765 0.11715-0.66970
  -4  -9   0    4.75    0.36   1-0.67535-0.39825-0.55056-0.86845-0.49067 0.29526
  -4  -9   0    4.42    0.40   1-0.09444 0.18306 0.99316 0.67377-0.06861 0.71590
   4   9   1    5.64    0.36   1-0.21124-0.49339 0.48737 0.86659 0.84725 0.07459
   4   9   1    5.39    0.41   1-0.01141-0.29265-0.99888-0.62152 0.04578-0.72668
  -4  -9  -1    5.40    0.38   1-0.70664-0.42329-0.48688-0.86867-0.51340 0.25733
  -4  -9  -1    5.45    0.43   1-0.03336 0.25071 0.99914 0.61746-0.02423 0.74557
   5 -11   2    0.63    0.44   1-0.45749 0.45003 0.82474 0.87305-0.33239-0.18772
   5 -11   3    2.52    0.39   1-0.50286 0.39802 0.78335 0.89395-0.36535-0.20596
   5 -10  -3    0.80    0.51   1-0.20596 0.67721 0.96705 0.72465-0.14964-0.12753
   5 -10  -2    1.69    0.37   1-0.25480 0.62180 0.94910 0.76900-0.18512-0.14831
   5 -10  -1    3.03    0.38   1-0.30600 0.56403 0.92570 0.80789-0.22232-0.17081
   5 -10   0    1.49    0.33   1-0.35843 0.50502 0.89649 0.84097-0.26042-0.19420
   5 -10   1    7.83    0.52   1-0.41090 0.44598 0.86141 0.86818-0.29854-0.21761
   5 -10   2   13.09    0.80   1-0.46295 0.38757 0.82008 0.88980-0.33635-0.24091
   5 -10   3    9.15    0.58   1-0.51201 0.33186 0.77424 0.90625-0.37199-0.26184
   5 -10   4    8.77    0.58   1-0.55803 0.27919 0.72402 0.91833-0.40543-0.28056
   5 -10   5    6.82    0.40   1-0.60040 0.23017 0.67023 0.92683-0.43622-0.29663
   5 -10   6   10.62    0.53   1-0.63874 0.18518 0.61370 0.93260-0.46407-0.30977
   5 -10   7   11.52    0.59   1-0.67286 0.14442 0.55520 0.93639-0.48886-0.31984
  -5  10  -7   12.47    0.66   1 0.04344-0.77402 0.99855 0.61802 0.03156-0.13758
   5  -9  -5    7.05    0.68   1-0.08772 0.75163 0.99410 0.64851-0.06373-0.12031
   5  -9  -4    8.31    0.61   1-0.13517 0.69761 0.98594 0.70265-0.09821-0.14007
   5  -9  -3   11.87    0.68   1-0.18737 0.63884 0.97280 0.75180-0.13613-0.16329
   5  -9  -2    6.11    0.45   1-0.24330 0.57634 0.95370 0.79499-0.17677-0.18922
   5  -9  -1    9.74    0.62   1-0.30162 0.51145 0.92790 0.83148-0.21914-0.21689
   5  -9   0   11.08    0.63   1-0.36077 0.44573 0.89506 0.86093-0.26211-0.24516
   5  -9   1    2.18    0.31   1-0.41999 0.38015 0.85468 0.88351-0.30514-0.27365
   5  -9   2    4.82    0.36   1-0.47604 0.31746 0.80855 0.89968-0.34586-0.29965
   5  -9   3    4.72    0.35   1-0.52860 0.25825 0.75701 0.91043-0.38405-0.32312
   5  -9   4    0.97    0.35   1-0.57682 0.20339 0.70117 0.91688-0.41908-0.34344
   5  -9   5    1.45    0.39   1-0.62016 0.15339 0.64215 0.92016-0.45057-0.36021
   5  -9   6   -0.14    0.38   1-0.65843 0.10848 0.58103 0.92134-0.47838-0.37330
  -5   9  -6   -0.15    0.30   1 0.02121-0.74586 0.99965 0.66001 0.01541-0.08976
   5  -9   7    2.18    0.45   1-0.69167 0.06860 0.51870 0.92130-0.50252-0.38273
  -5   9  -7    2.57    0.36   1-0.02892-0.78944 0.99936 0.59743-0.02101-0.14090
   5  -9   8    0.14    0.29   1-0.72005 0.03357 0.45588 0.92077-0.52315-0.38864
   5  -8  -7    4.11    0.55   1 0.03174 0.82729 0.99923 0.55045 0.02306-0.11218
   5  -8  -6    4.57    0.53   1-0.00960 0.77936 0.99993 0.61345-0.00697-0.12751
   5  -8  -5    2.62    0.40   1-0.05793 0.72446 0.99743 0.67324-0.04209-0.14792
   5  -8  -4    2.13    0.37   1-0.11283 0.66299 0.99022 0.72833-0.08197-0.17311
   5  -8  -3    0.63    0.31   1-0.17339 0.59586 0.97676 0.77716-0.12598-0.20240
   5  -8  -2    0.92    0.30   1-0.23815 0.52453 0.95569 0.81838-0.17302-0.23474
   5  -8  -1    1.58    0.30   1-0.30514 0.45097 0.92613 0.85112-0.22170-0.26871
   5  -8   0    1.92    0.29   1-0.37216 0.37738 0.88790 0.87518-0.27039-0.30270
   5  -8   1    3.38    0.32   1-0.43791 0.30522 0.84083 0.89107-0.31816-0.33589
   5  -8   2    3.47    0.32   1-0.49865 0.23783 0.78745 0.89999-0.36229-0.36531
   5  -8   3   14.17    0.78   1-0.55405 0.17579 0.72868 0.90351-0.40254-0.39084
   5  -8   4   24.00    1.17   1-0.60336 0.11983 0.66616 0.90328-0.43837-0.41195
   5  -8   5   12.77    0.70   1-0.64635 0.07019 0.60140 0.90082-0.46960-0.42847
  -5   8  -5   13.58    0.79   1 0.00477-0.71192 0.99998 0.70124 0.00346-0.03774
   5  -8   6   10.40    0.70   1-0.18903 0.52007-0.62406-0.26046 0.75816 0.81343
   5  -8   6   11.04    0.65   1 0.06454 0.77369-0.96375-0.60024-0.25885-0.20272
   5  -8   6   12.76    0.64   1-0.68317 0.02673 0.53563 0.89735-0.49635-0.44050
  -5   8  -6   13.16    0.69   1-0.05504-0.76516 0.99768 0.63664-0.03998-0.09591
  -5   8  -7   10.81    0.63   1-0.10543-0.80662 0.90003 0.47426 0.42287 0.35274
   5  -8   7   10.43    0.68   1-0.19231 0.51005-0.60668-0.18074 0.77132 0.84093
   5  -8   7   11.38    0.64   1-0.71417-0.01091 0.46979 0.89380-0.51888-0.44831
  -5   8  -7   12.64    0.69   1-0.10608-0.80964 0.99136 0.56803-0.07707-0.14770
  -5   8  -8   13.38    0.69   1-0.13105-0.82536 0.84054 0.35244 0.52565 0.44108
   5  -8   8   13.14    0.75   1-0.19256 0.50307-0.60531-0.11701 0.77234 0.85628
   5  -8   8   12.69    0.65   1-0.73986-0.04325 0.40453 0.89083-0.53754-0.45226
  -5   8  -8   13.83    0.81   1-0.14874-0.84572 0.98295 0.49733-0.10806-0.19340
  -5   8  -9   13.45    0.64   1-0.14789-0.83531 0.79138 0.24094 0.59315 0.49415
   5  -8   9   13.09    0.69   1-0.19119 0.49770-0.61269-0.06204 0.76684 0.86512
   5  -8   9   13.75    0.68   1-0.76075-0.07078 0.34024 0.88883-0.55271-0.45272
  -5   8  -9   14.34    0.66   1-0.18367-0.87408 0.97388 0.42597-0.13344-0.23348
   5  -7  -8    1.95    0.47   1-0.24069 0.50682 0.10043-0.38762 0.96538 0.76998
  -5   7   8    1.66    0.52   1-0.04200-0.78789-0.98481-0.49685 0.16845 0.36380
   5  -7  -8    1.80    0.43   1-0.80148-0.05487-0.13612-0.62415-0.58231-0.77936
   5  -7  -7    4.52    0.48   1-0.24142 0.49925 0.06396-0.36176 0.96830 0.78732
  -5   7   7    4.36    0.40   1-0.02893-0.76816-0.99282-0.56719 0.11606 0.29701
   5  -7  -7    4.11    0.42   1-0.78758-0.04766-0.22867-0.65443-0.57221-0.75461
   5  -7  -6    2.11    0.38   1-0.24182 0.49200 0.02788-0.33550 0.96991 0.80334
  -5   7   6    2.13    0.33   1-0.01054-0.74309-0.99904-0.63575 0.04230 0.20885
   5  -7  -6    2.31    0.39   1 0.02613 0.75814 0.99947 0.63440 0.01898-0.15081
   5  -7  -5    7.72    0.75   1-0.24191 0.48491-0.00669-0.30807 0.97027 0.81849
  -5   7   5    8.05    0.41   1 0.01474-0.71095-0.99814-0.69709-0.05913 0.09276
   5  -7  -5    7.61    0.47   1-0.03007 0.69537 0.99930 0.69652-0.02184-0.17694
   5  -7  -4    9.85    0.80   1-0.24170 0.47832-0.04199-0.28102 0.96943 0.83200
  -5   7   4   10.69    0.60   1 0.04939-0.66964-0.97893-0.74020-0.19810-0.06061
   5  -7  -4    9.98    0.64   1-0.09453 0.62433 0.99314 0.75265-0.06868-0.20908
   5  -7  -3   10.48    0.76   1-0.09535 0.61780 0.91904 0.74255 0.38243 0.25871
   5  -7  -3   10.91    1.03   1-0.24120 0.47202-0.07692-0.25360 0.96742 0.84432
   5  -7  -3   10.49    0.64   1-0.16595 0.54634 0.97873 0.80053-0.12057-0.24626
   5  -7  -2   20.16    1.17   1-0.15083 0.55544 0.78183 0.66767 0.60496 0.49566
   5  -7  -2   19.54    1.30   1-0.24041 0.46601-0.11142-0.22575 0.96425 0.85549
   5  -7  -2   20.14    0.96   1-0.24205 0.46367 0.95419 0.83828-0.17586-0.28684
   5  -7  -1   31.29    1.63   1-0.20767 0.49193 0.51290 0.46116 0.83294 0.73846
   5  -7  -1   29.94    1.73   1-0.23935 0.46028-0.14532-0.19730 0.95999 0.86556
   5  -7  -1   31.73    1.22   1-0.31982 0.37933 0.91853 0.86492-0.23236-0.32864
   5  -7   0    8.74    0.99   1-0.24089 0.45201 0.09182 0.10242 0.96619 0.88611
   5  -7   0   10.47    0.59   1-0.39596 0.29662 0.87203 0.88071-0.28768-0.36926
   5  -7   1   15.41    0.82   1-0.46842 0.21770 0.81532 0.88697-0.34033-0.40729
   5  -7   2   27.96    1.61   1-0.23428 0.44495-0.24934-0.11424 0.93964 0.88823
   5  -7   2   25.82    1.65   1-0.15495 0.52423-0.76794-0.63256 0.62149 0.57012
   5  -7   2   26.90    1.04   1-0.53302 0.14646 0.75227 0.88621-0.38726-0.43950
   5  -7   3    3.62    0.36   1-0.23210 0.44030-0.28191-0.08446 0.93094 0.89386
   5  -7   3    3.33    0.33   1-0.06938 0.60310-0.95798-0.76027 0.27829 0.24133
   5  -7   3    3.06    0.29   1-0.58966 0.08317 0.68465 0.88089-0.42841-0.46594
   5  -7   4   13.50    0.68   1-0.22963 0.43596-0.31459-0.05479 0.92102 0.89829
   5  -7   4   13.42    0.72   1 0.00553 0.67125-0.99973-0.73989-0.02218-0.04440
   5  -7   4   11.90    0.60   1-0.63809 0.02809 0.61474 0.87327-0.46360-0.48641
  -5   7  -4   13.22    0.70   1-0.00363-0.66994 0.99998 0.74213-0.00264 0.02011
   5  -7   5   10.98    0.63   1-0.22688 0.43191-0.34711-0.02496 0.90996 0.90156
   5  -7   5   10.77    0.53   1 0.06151 0.72057-0.96713-0.64496-0.24673-0.25454
   5  -7   5    9.60    0.41   1-0.67867-0.01913 0.54430 0.86512-0.49308-0.50118
  -5   7  -5    9.88    0.53   1-0.07618-0.73592 0.99555 0.67541-0.05534-0.04730
  -5   7  -6    0.83    0.30   1-0.10110-0.75232 0.90847 0.52396 0.40552 0.39933
   5  -7   6    1.20    0.30   1-0.22383 0.42815-0.37940 0.00510 0.89774 0.90368
   5  -7   6    0.99    0.26   1-0.71211-0.05922 0.47455 0.85767-0.51738-0.51076
  -5   7  -7    0.05    0.24   1-0.12779-0.77213 0.84907 0.40223 0.51257 0.49195
   5  -7   7   -0.04    0.37   1-0.22049 0.42469-0.41143 0.03542 0.88436 0.90464
  -5   7  -7   -0.06    0.27   1-0.18788-0.83448 0.97265 0.52792-0.13650-0.15787
  -5   7  -8    0.00    0.25   1-0.14601-0.78346 0.79730 0.28811 0.58565 0.55060
   5  -7   8    0.05    0.29   1-0.21686 0.42151-0.44319 0.06601 0.86979 0.90441
  -5   7  -9    2.52    0.38   1-0.15847-0.78904 0.75557 0.18405 0.63560 0.58611
   5  -7   9    2.41    0.36   1-0.21292 0.41865-0.47468 0.09688 0.85401 0.90296
  -5   7 -10    0.04    0.33   1-0.16694-0.79063 0.72373 0.08988 0.66957 0.60566
   5  -7  10    0.24    0.45   1-0.20865 0.41672-0.50604 0.12794 0.83688 0.89998
   5  -6  -9   12.60    0.85   1-0.24191 0.45532-0.00528-0.53504 0.97028 0.71161
  -5   6   9   13.44    0.69   1-0.05686-0.75268-0.97197-0.44267 0.22809 0.48733
   5  -6  -9   11.37    0.77   1-0.80895-0.11256 0.01248-0.51649-0.58773-0.84886
   5  -6  -8    8.06    0.53   1-0.24154 0.44889-0.05570-0.52311 0.96878 0.72446
  -5   6   8    8.28    0.46   1-0.04848-0.73763-0.97970-0.51274 0.19446 0.43931
   5  -6  -8    7.27    0.60   1-0.80676-0.11707-0.07462-0.54133-0.58614-0.83261
   5  -6  -7   12.41    0.86   1-0.24048 0.44315-0.10881-0.51386 0.96453 0.73454
  -5   6   7   13.44    0.74   1-0.03652-0.71899-0.98853-0.58389 0.14651 0.37696
   5  -6  -7   12.65    0.96   1-0.79736-0.11437-0.16912-0.57355-0.57931-0.81114
   5  -6  -6    7.15    0.63   1-0.23857 0.43825-0.16574-0.50844 0.95687 0.74122
  -5   6   6    6.87    0.47   1-0.02000-0.69580-0.99657-0.65427 0.08023 0.29628
   5  -6  -6    6.51    0.51   1-0.77861-0.10232-0.27154-0.61370-0.56569-0.78287
   5  -6  -5   11.99    0.82   1-0.23554 0.43449-0.22817-0.50852 0.94469 0.74338
  -5   6   5   12.57    0.71   1 0.00216-0.66677-0.99996-0.71989-0.00866 0.19278
   5  -6  -5   11.73    0.73   1-0.74777-0.07818-0.38165-0.66154-0.54329-0.74581
   5  -6  -5   12.27    0.85   1-0.00486 0.66362 0.99998 0.71859-0.00353-0.20789
   5  -6  -4    9.15    0.60   1-0.23088 0.43234-0.29861-0.51661 0.92602 0.73904
  -5   6   4    9.48    0.41   1 0.03158-0.63068-0.99143-0.77368-0.12670 0.06033
   5  -6  -4    9.13    0.47   1-0.08222 0.57969 0.99482 0.77573-0.05973-0.24939
   5  -6  -3   11.74    0.65   1-0.22369 0.43272-0.38080-0.53644 0.89718 0.72455
  -5   6   3   12.01    0.44   1 0.06892-0.58668-0.95855-0.80313-0.27643-0.10380
   5  -6  -3   11.02    0.53   1-0.16843 0.48690 0.97808 0.82128-0.12237-0.29732
   5  -6  -2    8.25    0.54   1-0.11314 0.53627 0.88390 0.79082 0.45378 0.29497
   5  -6  -2    7.46    0.53   1-0.21213 0.43726-0.48070-0.57391 0.85083 0.69240
   5  -6  -2    7.33    0.42   1-0.25971 0.38906 0.94707 0.85256-0.18869-0.34893
   5  -6  -1    0.53    0.22   1-0.15892 0.48361 0.75396 0.72321 0.63740 0.49303
   5  -6  -1    0.58    0.20   1-0.19328 0.44938-0.60137-0.63223 0.77523 0.63113
   5  -6  -1    0.48    0.27   1-0.35100 0.29119 0.90097 0.86876-0.25501-0.40056
   5  -6   0    0.78    0.25   1-0.19805 0.43760 0.57428 0.60586 0.79434 0.66439
   5  -6   0    0.73    0.20   1-0.16238 0.47354-0.74124-0.70975 0.65129 0.52153
   5  -6   0    0.86    0.22   1-0.43834 0.19741 0.84049 0.87125-0.31847-0.44938
   5  -6   1    1.27    0.19   1-0.22403 0.40504 0.37738 0.47143 0.89854 0.78337
   5  -6   1    1.28    0.21   1-0.11579 0.51328-0.87800-0.78397 0.46443 0.34916
   5  -6   1    1.32    0.30   1-0.51534 0.11377 0.77086 0.86392-0.37441-0.49060
   5  -6   2    1.56    0.21   1-0.23676 0.38546 0.20532 0.36171 0.94962 0.84886
   5  -6   2    1.68    0.26   1-0.05758 0.56482-0.97125-0.81489 0.23096 0.13010
   5  -6   2    1.40    0.23   1-0.58131 0.04115 0.69547 0.85083-0.42234-0.52382
   5  -6   3    3.20    0.27   1-0.24134 0.37404 0.06901 0.28773 0.96798 0.88164
   5  -6   3    3.10    0.34   1 0.00147 0.61709-0.99998-0.78148-0.00590-0.09207
   5  -6   3    3.09    0.28   1-0.63601-0.02019 0.61803 0.83567-0.46208-0.54884
  -5   6  -3    2.89    0.37   1 0.00003-0.61589 1.00000 0.78304 0.00002 0.08674
   5  -6   4    6.57    0.35   1-0.24176 0.36703-0.03594 0.24489 0.96966 0.89739
   5  -6   4    7.06    0.37   1 0.05217 0.66113-0.97646-0.69564-0.20926-0.28102
   5  -6   4    6.34    0.34   1-0.68031-0.07114 0.54116 0.82111-0.49427-0.56631
  -5   6  -4    6.38    0.38   1-0.09024-0.69959 0.99375 0.71450-0.06556 0.00645
  -5   6  -5   16.19    0.66   1-0.09165-0.69289 0.92545 0.58219 0.36760 0.42537
   5  -6   5   17.68    0.73   1-0.24015 0.36183-0.12060 0.22259 0.96321 0.90527
   5  -6   5   17.01    0.71   1-0.71560-0.11308 0.46646 0.80870-0.51991-0.57724
  -5   6  -5   17.49    0.73   1-0.16520-0.76798 0.97892 0.63738-0.12003-0.06271
  -5   6  -6   27.23    1.14   1-0.12010-0.71446 0.86806 0.46247 0.48170 0.52503
   5  -6   6   29.64    1.19   1-0.23747 0.35771-0.19096 0.21458 0.95243 0.90884
   5  -6   6   28.26    1.11   1-0.74333-0.14745 0.39468 0.79921-0.54006-0.58267
  -5   6  -6   28.81    1.32   1-0.22575-0.82196 0.96027 0.55644-0.16402-0.12141
  -5   6  -7   14.61    0.81   1-0.14032-0.72780 0.81458 0.34665 0.56282 0.59172
   5  -6   7   15.21    0.82   1-0.23413 0.35425-0.25165 0.21624 0.93906 0.90980
   5  -6   7   14.24    0.74   1-0.76481-0.17557 0.32603 0.79286-0.55566-0.58356
  -5   6  -7   14.25    0.79   1-0.27362-0.86326 0.94106 0.47493-0.19880-0.17089
  -5   6  -8   12.91    0.74   1-0.15455-0.73514 0.76931 0.23905 0.61988 0.63435
   5  -6   8   13.55    0.68   1-0.23034 0.35123-0.30563 0.22462 0.92386 0.90894
   5  -6   8   14.18    0.76   1-0.78109-0.19851 0.26043 0.78956-0.56750-0.58068
  -5   6  -8   13.99    0.71   1-0.31073-0.89380 0.92329 0.39487-0.22576-0.21256
  -5   6  -9   14.17    0.77   1-0.16448-0.73819 0.73329 0.14069 0.65971 0.65974
   5  -6   9   14.60    0.77   1-0.22618 0.34859-0.35476 0.23783 0.90718 0.90659
   5  -6   9   14.49    0.78   1-0.79302-0.21724 0.19785 0.78979-0.57616-0.57361
  -5   6  -9   14.90    0.86   1-0.33888-0.91539 0.90803 0.31732-0.24621-0.24772
  -5   6 -10   10.46    0.74   1-0.17131-0.73814 0.70607 0.05114 0.68710 0.67270
   5  -6  10   11.71    0.68   1-0.22169 0.34628-0.40031 0.25464 0.88915 0.90290
   5  -6  10   10.82    0.69   1-0.80133-0.23225 0.13751 0.79172-0.58220-0.56499
  -5   6 -10   11.10    0.70   1-0.35962-0.92954 0.89577 0.24276-0.26127-0.27749
  -5   6 -11   11.53    0.62   1-0.17586-0.73580 0.68671-0.03055 0.70533 0.67650
   5  -6  11   11.35    0.59   1-0.21687 0.34429-0.44311 0.27420 0.86983 0.89792
   5  -6  11   10.58    0.73   1-0.80646-0.24408 0.07938 0.79587-0.58592-0.55407
  -5   6 -11   11.93    0.68   1-0.37417-0.93753 0.88661 0.17131-0.27185-0.30277
   5  -5 -10    4.64    0.58   1-0.24121 0.40603-0.07639-0.64747 0.96745 0.64491
  -5   5  10    5.25    0.65   1-0.06497-0.71070-0.96326-0.39262 0.26058 0.58372
   5  -5 -10    4.80    0.69   1-0.79714-0.15097 0.17071-0.39921-0.57915-0.90434
   5  -5  -9    1.34    0.35   1-0.23975 0.40068-0.13355-0.64227 0.96160 0.65339
  -5   5   9    1.47    0.41   1-0.05947-0.69853-0.96931-0.46100 0.23853 0.54728
   5  -5  -9    1.09    0.54   1-0.80535-0.16588 0.09501-0.41263-0.58512-0.89566
   5  -5  -8    0.69    0.32   1-0.23733 0.39631-0.19391-0.64028 0.95187 0.65801
  -5   5   8    0.79    0.30   1-0.05134-0.68373-0.97721-0.53124 0.20593 0.50028
   5  -5  -8    0.68    0.42   1-0.80896-0.17619 0.01162-0.43375-0.58774-0.88363
   5  -5  -7   -0.08    0.40   1-0.23370 0.39313-0.25843-0.64244 0.93733 0.65780
  -5   5   7    0.05    0.36   1-0.03994-0.66566-0.98627-0.60263 0.16019 0.44014
   5  -5  -7    0.08    0.42   1-0.80633-0.18027-0.08130-0.46440-0.58583-0.86707
   5  -5  -6    1.95    0.30   1-0.22850 0.39152-0.32834-0.65000 0.91649 0.65130
  -5   5   6    1.75    0.33   1-0.02444-0.64349-0.99488-0.67356 0.09806 0.36361
   5  -5  -6    1.68    0.33   1-0.79494-0.17557-0.18570-0.50653-0.57756-0.84415
   5  -5  -5    6.09    0.47   1-0.22117 0.39205-0.40514-0.66444 0.88709 0.63624
  -5   5   5    6.53    0.36   1-0.00408-0.61626-0.99985-0.74076 0.01637 0.26736
   5  -5  -5    5.99    0.42   1-0.77095-0.15828-0.30311-0.56167-0.56013-0.81207
   5  -5  -5    6.62    0.45   1 0.01635 0.62788 0.99979 0.73981 0.01188-0.24174
   5  -5  -4    2.98    0.43   1-0.21075 0.39533-0.49101-0.68792 0.84527 0.60865
  -5   5   4    3.02    0.34   1 0.02235-0.58316-0.99572-0.79895-0.08964 0.14693
   5  -5  -4    3.05    0.34   1-0.72906-0.12310-0.43345-0.62973-0.52969-0.76699
   5  -5  -4    3.13    0.38   1-0.07960 0.52535 0.99514 0.79745-0.05783-0.29675
   5  -5  -3   21.62    1.11   1-0.19601 0.40333-0.58608-0.72065 0.78618 0.56389
  -5   5   3   22.93    0.79   1 0.05511-0.54373-0.97370-0.83925-0.22105 0.00111
   5  -5  -3   22.30    0.90   1-0.18742 0.41095 0.97279 0.83739-0.13617-0.36039
   5  -5  -2    8.24    0.49   1-0.09344 0.49912 0.92239 0.85039 0.37476 0.16644
   5  -5  -2    8.23    0.50   1-0.17501 0.41760-0.69039-0.76261 0.70194 0.49399
   5  -5  -2    7.65    0.47   1-0.29992 0.29188 0.92874 0.85563-0.21791-0.42742
   5  -5  -1   15.28    0.64   1-0.13371 0.45196 0.83336 0.82370 0.53630 0.34240
   5  -5  -1   14.69    0.66   1-0.14555 0.44033-0.79875-0.80862 0.58378 0.39016
   5  -5  -1   13.40    0.69   1-0.40781 0.17743 0.86365 0.85284-0.29629-0.49110
   5  -5   0   44.73    1.75   1-0.17112 0.40766 0.70684 0.75951 0.68635 0.50689
   5  -5   0   43.54    1.58   1-0.10613 0.47287-0.89863-0.84594 0.42566 0.24649
   5  -5   0   42.16    1.49   1-0.50428 0.07446 0.78195 0.83413-0.36638-0.54651
   5  -5   1   53.37    2.06   1-0.20088 0.37102 0.55720 0.67220 0.80571 0.64068
   5  -5   1   53.30    1.80   1-0.05869 0.51363-0.97011-0.85509 0.23542 0.07066
   5  -5   1   49.46    1.68   1-0.58262-0.01052 0.69380 0.80826-0.42330-0.58872
   5  -5   2   17.92    0.75   1-0.22133 0.34408 0.40367 0.58117 0.88772 0.73745
   5  -5   2   17.72    0.77   1-0.00835 0.55730-0.99940-0.82204 0.03351-0.11684
   5  -5   2   16.75    0.70   1-0.64425-0.07880 0.60483 0.78159-0.46808-0.61878
  -5   5  -2   17.62    0.71   1 0.02363-0.54190 0.99957 0.82350 0.01717 0.16786
   5  -5   3   19.53    0.81   1-0.23330 0.32526 0.26455 0.50439 0.93572 0.79986
   5  -5   3   20.68    0.84   1 0.03842 0.59729-0.98730-0.74782-0.15411-0.28982
   5  -5   3   19.24    0.76   1-0.69143-0.13263 0.51918 0.75823-0.50235-0.63834
  -5   5  -3   20.00    0.78   1-0.09321-0.65218 0.99333 0.75498-0.06772 0.06825
   5  -5   4   45.11    1.37   1-0.23940 0.31231 0.14384 0.44601 0.96020 0.83876
   5  -5   4   45.29    1.38   1 0.07752 0.62972-0.94726-0.64546-0.31091-0.43222
   5  -5   4   44.80    1.35   1-0.72703-0.17487 0.43863 0.73998-0.52822-0.64949
  -5   5  -4   46.81    1.41   1-0.18803-0.74042 0.97261 0.67196-0.13661-0.01533
  -5   5  -5    3.76    0.27   1-0.10825-0.65264 0.89428 0.52994 0.43420 0.54149
   5  -5   5    3.70    0.28   1-0.24172 0.30315 0.04077 0.40527 0.96948 0.86246
   5  -5   5    3.96    0.30   1-0.75366-0.20815 0.36353 0.72718-0.54756-0.65412
  -5   5  -5    3.76    0.31   1-0.26225-0.80808 0.94599 0.58305-0.19054-0.08396
  -5   5  -6   18.86    0.76   1-0.13086-0.66836 0.84107 0.41439 0.52485 0.61770
   5  -5   6   19.30    0.78   1-0.24165 0.29672-0.04659 0.37999 0.96924 0.87610
   5  -5   6   19.00    0.76   1-0.77337-0.23451 0.29352 0.71947-0.56189-0.65373
  -5   5  -6   18.77    0.75   1-0.31903-0.85828 0.91896 0.49372-0.23179-0.13992
  -5   5  -7   12.47    0.60   1-0.14730-0.67792 0.79325 0.30424 0.59079 0.66921
   5  -5   7   13.44    0.63   1-0.24006 0.29151-0.12361 0.36533 0.96285 0.88405
   5  -5   7   13.16    0.64   1-0.78761-0.25536 0.22847 0.71719-0.57223-0.64839
  -5   5  -7   12.68    0.62   1-0.36170-0.89438 0.89448 0.40696-0.26279-0.18562
  -5   5  -8    1.02    0.25   1-0.15909-0.68283 0.75332 0.20198 0.63810 0.70209
   5  -5   8    1.07    0.26   1-0.23742 0.28735-0.19182 0.35946 0.95227 0.88781
   5  -5   8    0.79    0.42   1-0.79771-0.27215 0.16660 0.71759-0.57957-0.64108
  -5   5  -8    1.09    0.30   1-0.39318-0.91930 0.87395 0.32413-0.28566-0.22320
  -5   5  -9    1.17    0.28   1-0.16744-0.68430 0.72174 0.10807 0.67159 0.72114
   5  -5   9    1.21    0.38   1-0.23403 0.28394-0.25326 0.36038 0.93866 0.88853
   5  -5   9    1.15    0.32   1-0.80429-0.28543 0.10790 0.72117-0.58435-0.63121
  -5   5  -9    1.27    0.32   1-0.41584-0.93538 0.85778 0.24567-0.30212-0.25437
  -5   5 -10    0.14    0.36   1-0.17322-0.68320 0.69804 0.02203 0.69478 0.72989
   5  -5  10    0.21    0.27   1-0.23005 0.28112-0.30941 0.36659 0.92268 0.88689
   5  -5  10    0.06    0.34   1-0.80792-0.29577 0.05184 0.72738-0.58699-0.61921
  -5   5 -10    0.22    0.34   1-0.43220-0.94448 0.84534 0.17022-0.31401-0.28103
  -5   5 -11    1.50    0.34   1-0.17706-0.68015 0.68140-0.05694 0.71016 0.73085
   5  -5  11    1.73    0.31   1-0.22557 0.27879-0.36138 0.37697 0.90472 0.88326
   5  -4 -10    0.35    0.46   1-0.23784 0.35260-0.18284-0.73288 0.95393 0.58185
  -5   4  10    0.77    0.45   1-0.06502-0.65401-0.96320-0.41355 0.26079 0.63344
  -5   4  10    0.80    0.42   1-0.33312-0.92233-0.91128-0.36319-0.24203 0.13188
   5  -4 -10    0.84    0.33   1-0.77832-0.19012 0.27282-0.27654-0.56548-0.94200
   5  -4  -9   13.37    0.90   1-0.23447 0.34916-0.24618-0.73386 0.94043 0.58268
  -5   4   9   14.54    0.78   1-0.05940-0.64171-0.96938-0.48206 0.23824 0.59649
  -5   4   9   14.27    0.77   1-0.30451-0.88699-0.92645-0.44063-0.22124 0.13810
   5  -4  -9   12.10    0.72   1-0.79229-0.20974 0.20228-0.28404-0.57563-0.93559
   5  -4  -8   17.56    0.92   1-0.22975 0.34708-0.31315-0.73847 0.92149 0.57808
  -5   4   8   18.94    0.86   1-0.05127-0.62691-0.97728-0.55229 0.20564 0.54949
   5  -4  -8   15.40    0.84   1-0.80227-0.22643 0.12879-0.29525-0.58288-0.92819
   5  -4  -7   20.95    1.14   1-0.22332 0.34671-0.38450-0.74747 0.89570 0.56663
  -5   4   7   22.68    1.09   1-0.04007-0.60904-0.98618-0.62353 0.16072 0.49017
   5  -4  -7   18.54    0.97   1-0.80820-0.23905 0.04491-0.31686-0.58719-0.91785
   5  -4  -6   21.80    1.02   1-0.21468 0.34854-0.46099-0.76161 0.86104 0.54631
  -5   4   6   24.35    0.90   1-0.02512-0.58742-0.99459-0.69427 0.10078 0.41583
   5  -4  -6   20.80    0.98   1-0.80786-0.24542-0.05323-0.35274-0.58695-0.90296
   5  -4  -5   20.47    0.94   1-0.20306 0.35296-0.54354-0.78181 0.81444 0.51397
  -5   4   5   21.90    0.81   1-0.00584-0.56126-0.99970-0.76159 0.02343 0.32396
   5  -4  -5   19.03    1.11   1-0.79714-0.24139-0.17070-0.40793-0.57915-0.88051
   5  -4  -5   21.08    0.94   1 0.03080 0.58537 0.99927 0.76069 0.02237-0.28051
   5  -4  -4   15.93    0.83   1-0.18760 0.36169-0.63137-0.80729 0.75244 0.46630
  -5   4   4   16.39    0.66   1 0.01867-0.53007-0.99701-0.82122-0.07491 0.21120
   5  -4  -4   14.56    0.75   1-0.76845-0.21940-0.31268-0.48763-0.55831-0.84502
   5  -4  -4   15.64    0.77   1-0.09492 0.45307 0.99309 0.81680-0.06896-0.35715
   5  -4  -3   25.25    1.02   1-0.16704 0.37552-0.72334-0.83692 0.66997 0.39817
  -5   4   3   25.92    0.92   1 0.04848-0.49360-0.97971-0.86624-0.19445 0.07726
   5  -4  -3   24.02    1.12   1-0.70953-0.16719-0.48041-0.59310-0.51551-0.78757
   5  -4  -3   24.74    1.04   1-0.23781 0.30362 0.95582 0.84182-0.17278-0.44626
   5  -4  -2   12.77    0.64   1-0.14012 0.39571-0.81518-0.86641 0.56199 0.30452
   5  -4  -2   12.20    0.59   1-0.38130 0.15355 0.88196 0.83025-0.27703-0.53581
   5  -4  -1   32.94    1.60   1-0.11922 0.40959 0.87012 0.88153 0.47819 0.23478
   5  -4  -1   31.43    1.34   1-0.10592 0.42300-0.89905-0.88770 0.42482 0.18176
   5  -4  -1   31.74    1.20   1-0.50770 0.02066 0.77856 0.78985-0.36887-0.61295
   5  -4   0   17.06    0.69   1-0.15412 0.36781 0.77078 0.84453 0.61816 0.38919
   5  -4   0   16.38    0.61   1-0.06551 0.45673-0.96262-0.88894 0.26278 0.03411
   5  -4   0   15.10    0.60   1-0.60310-0.08137 0.66653 0.74011-0.43818-0.66754
   5  -4   1    0.18    0.25   1-0.02156 0.49401-0.99602-0.86000 0.08647-0.12779
   5  -4   1    0.20    0.15   1-0.67075-0.15567 0.55910 0.69497-0.48733-0.70197
   5  -4   2    0.20    0.16   1-0.20725 0.30135 0.51583 0.71446 0.83124 0.63144
   5  -4   2    0.18    0.26   1 0.02165 0.53042-0.99598-0.79784-0.08684-0.28651
  -5   4  -2    0.15    0.25   1-0.07643-0.58501 0.99552 0.79806-0.05553 0.14442
   5  -4   3    0.38    0.17   1-0.22315 0.27859 0.38616 0.64713 0.89502 0.70964
   5  -4   3    0.34    0.27   1 0.06031 0.56242-0.96842-0.70796-0.24190-0.42716
   5  -4   3    0.41    0.18   1-0.74931-0.24752 0.37701 0.63747-0.54441-0.72962
  -5   4  -3    0.33    0.26   1-0.20291-0.70492 0.96803 0.70827-0.14742 0.03782
  -5   4  -4    0.62    0.18   1-0.09261-0.58702 0.92381 0.60073 0.37145 0.54269
   5  -4   4    0.61    0.25   1-0.23320 0.26169 0.26596 0.58925 0.93534 0.76438
   5  -4   4    0.66    0.21   1-0.77145-0.27630 0.30118 0.62394-0.56049-0.73099
  -5   4  -4    0.64    0.21   1-0.29717-0.79260 0.93009 0.60804-0.21590-0.04536
  -5   4  -5    1.25    0.21   1-0.11765-0.60518 0.87376 0.48834 0.47189 0.62870
   5  -4   5    1.24    0.21   1-0.23888 0.24917 0.15785 0.54348 0.95813 0.80158
   5  -4   5    1.27    0.25   1-0.78656-0.29783 0.23394 0.61944-0.57147-0.72635
  -5   4  -5    1.27    0.23   1-0.36564-0.85451 0.89203 0.50769-0.26565-0.10981
  -5   4  -6    6.60    0.38   1-0.13660-0.61724 0.82533 0.37757 0.54787 0.69024
   5  -4   6    7.25    0.35   1-0.24146 0.23975 0.06165 0.50961 0.96845 0.82632
   5  -4   6    7.13    0.48   1-0.79704-0.31501 0.17137 0.61915-0.57908-0.71931
  -5   4  -6    6.82    0.37   1-0.41470-0.89700 0.85862 0.41198-0.30130-0.16016
  -5   4  -7   12.82    0.45   1-0.15062-0.62439 0.78252 0.27243 0.60412 0.73206
   5  -4   7   13.86    0.60   1-0.24185 0.23292-0.02286 0.48711 0.97004 0.84170
   5  -4   7   12.32    0.50   1-0.80380-0.32846 0.11333 0.62338-0.58399-0.70957
  -5   4  -7   14.22    0.64   1-0.45029-0.92549 0.83078 0.32114-0.32715-0.20080
  -5   4  -8   21.36    1.02   1-0.16084-0.62772 0.74696 0.17454 0.64511 0.75861
   5  -4   8   22.39    1.05   1-0.24071 0.22726-0.09971 0.47262 0.96546 0.85145
   5  -4   8   19.94    1.22   1-0.80761-0.33898 0.05879 0.63111-0.58676-0.69769
  -5   4  -8   22.73    1.24   1-0.47430-0.94286 0.81010 0.23817-0.34460-0.23296
  -5   4  -9   12.59    0.64   1-0.16816-0.62815 0.71891 0.08415 0.67445 0.77351
   5  -4   9   13.10    0.70   1-0.23842 0.22274-0.16930 0.46538 0.95628 0.85662
   5  -4   9   11.77    1.22   1-0.80899-0.34706 0.00697 0.64157-0.58777-0.68405
  -5   4  -9   13.95    0.93   1-0.49033-0.95224 0.79539 0.16116-0.35624-0.25932
  -5   4 -10   11.12    0.68   1-0.17325-0.62637 0.69793 0.00084 0.69489 0.77952
   5  -4  10   10.88    0.62   1-0.23526 0.21910-0.23296 0.46407 0.94359 0.85826
   5  -4  10   11.53    0.69   1-0.80827-0.35304-0.04268 0.65418-0.58724-0.66888
  -5   4 -10   10.30    0.67   1-0.50020-0.95546 0.78595 0.08942-0.36341-0.28121
  -5   4 -11   12.59    0.73   1-0.17662-0.62286 0.68333-0.07609 0.70842 0.77862
   5  -4  11   12.42    0.70   1-0.23139 0.21617-0.29177 0.46762 0.92807 0.85708
   5  -4  11   12.30    0.96   1-0.80568-0.35715-0.09065 0.66849-0.58536-0.65234
  -5   4 -11   10.56    0.78   1-0.50519-0.95381 0.78105 0.02223-0.36704-0.29955
   5  -3 -11    5.51    0.56   1-0.23643 0.30401-0.21184-0.80318 0.94827 0.51231
  -5   3  11    6.05    0.59   1-0.06677-0.60568-0.96115-0.37015 0.26781 0.70436
  -5   3  11    6.18    0.65   1-0.41411-0.95309-0.85905-0.26986-0.30087 0.13707
   5  -3 -11    6.31    0.62   1-0.72815-0.19031 0.43580-0.15445-0.52903-0.96949
   5  -3 -10    0.67    0.32   1-0.23251 0.30113-0.27615-0.80514 0.93256 0.51094
  -5   3  10    0.95    0.43   1-0.06290-0.59514-0.96560-0.43694 0.25230 0.67445
  -5   3  10    0.87    0.38   1-0.39671-0.92897-0.87151-0.34458-0.28823 0.13514
   5  -3 -10    0.84    0.30   1-0.74503-0.21384 0.38977-0.13818-0.54129-0.96704
   5  -3  -9    8.40    0.65   1-0.22720 0.29963-0.34342-0.81006 0.91128 0.50399
  -5   3   9    8.92    0.55   1-0.05702-0.58258-0.97182-0.50549 0.22869 0.63644
  -5   3   9    9.34    0.56   1-0.36818-0.89372-0.89043-0.42578-0.26750 0.14130
   5  -3  -9    8.77    0.59   1-0.76062-0.23608 0.34066-0.12499-0.55262-0.96365
   5  -3  -8   10.00    0.73   1-0.22020 0.29983-0.41410-0.81838 0.88319 0.49024
  -5   3   8   10.94    0.62   1-0.04871-0.56760-0.97951-0.57552 0.19537 0.58872
  -5   3   8   11.09    0.62   1-0.32435-0.84317-0.91611-0.51372-0.23565 0.15858
   5  -3  -8   10.88    0.61   1-0.77496-0.25707 0.28705-0.11631-0.56304-0.95936
   5  -3  -7    4.73    0.44   1-0.21105 0.30165-0.48875-0.83073 0.84650 0.46785
  -5   3   7    5.12    0.35   1-0.03748-0.54970-0.98792-0.64625 0.15035 0.52931
   5  -3  -7    4.92    0.35   1-0.78910-0.27687 0.22052-0.11992-0.57331-0.95339
   5  -3  -6    1.49    0.34   1-0.19927 0.30670-0.56698-0.84661 0.79926 0.43494
  -5   3   6    1.52    0.33   1-0.02278-0.52832-0.99555-0.71622 0.09139 0.45594
   5  -3  -6    1.38    0.26   1-0.80009-0.29457 0.14808-0.13008-0.58130-0.94673
   5  -3  -5    0.74    0.31   1-0.18413 0.31511-0.64859-0.86587 0.73852 0.38854
  -5   3   5    0.88    0.22   1-0.00416-0.50282-0.99985-0.78272 0.01669 0.36676
   5  -3  -5    0.78    0.23   1-0.80772-0.30890 0.05643-0.15947-0.58684-0.93762
   5  -3  -5    0.82    0.23   1 0.03150 0.52912 0.99924 0.78205 0.02289-0.32926
   5  -3  -4    1.60    0.24   1-0.16480 0.32771-0.73205-0.88698 0.66100 0.32535
  -5   3   4    1.71    0.30   1 0.01905-0.47294-0.99689-0.84208-0.07640 0.25926
   5  -3  -4    1.43    0.24   1-0.80705-0.31493-0.06958-0.22321-0.58635-0.92249
   5  -3  -4    1.71    0.27   1-0.15195 0.33909 0.98220 0.82731-0.11040-0.44785
   5  -3  -3    8.61    0.49   1-0.14047 0.34531-0.81414-0.90672 0.56341 0.24210
  -5   3   3    8.15    0.36   1 0.04673-0.43859-0.98115-0.88867-0.18746 0.13379
   5  -3  -3    7.43    0.51   1-0.78219-0.29676-0.25537-0.34672-0.56829-0.88977
   5  -3  -3    8.25    0.46   1-0.36419 0.12027 0.89294 0.80034-0.26460-0.58735
   5  -3  -2    2.33    0.25   1-0.11046 0.36838-0.88966-0.91965 0.44305 0.13608
  -5   3   2    2.26    0.23   1 0.07812-0.40054-0.94642-0.91625-0.31333-0.00649
   5  -3  -2    2.27    0.28   1-0.69244-0.21372-0.51712-0.54620-0.50309-0.80992
   5  -3  -2    2.28    0.21   1-0.55271-0.07469 0.73024 0.70064-0.40156-0.70959
   5  -3  -1   51.09    1.66   1-0.11151 0.36045 0.88742 0.91992 0.44725 0.15432
   5  -3  -1   48.27    1.60   1-0.07539 0.39678-0.95019-0.91786 0.30238 0.00982
   5  -3  -1   47.64    1.58   1-0.66977-0.19841 0.56089 0.59358-0.48662-0.77992
   5  -3   0    2.04    0.23   1-0.14389 0.32118 0.80386 0.89869 0.57714 0.29865
   5  -3   0    1.92    0.23   1-0.73148-0.26676 0.42717 0.52216-0.53145-0.81004
   5  -3   1   16.07    0.92   1-0.17279 0.28540 0.69987 0.85703 0.69305 0.42899
   5  -3   1   15.76    0.65   1 0.00300 0.46167-0.99992-0.84312-0.01204-0.27566
   5  -3   1   15.36    0.54   1-0.76441-0.30633 0.32746 0.48475-0.55537-0.81925
  -5   3  -1   15.93    0.53   1-0.01683-0.47502 0.99978 0.84320-0.01222 0.25169
   5  -3   2   72.25    2.21   1-0.19639 0.25492 0.58393 0.80343 0.78768 0.53806
   5  -3   2   71.95    2.19   1 0.04051 0.49252-0.98587-0.76676-0.16248-0.41169
   5  -3   2   70.71    2.21   1-0.78342-0.33199 0.24955 0.46913-0.56918-0.81834
  -5   3  -2   71.58    2.16   1-0.20286-0.65448 0.96804 0.74918-0.14739 0.10182
   5  -3   3   51.98    1.52   1-0.21430 0.23063 0.46400 0.74609 0.85951 0.62461
   5  -3   3   51.46    1.54   1 0.07341 0.51876-0.95284-0.67140-0.29444-0.52924
   5  -3   3   51.90    1.62   1-0.79477-0.34956 0.18679 0.46908-0.57743-0.81102
  -5   3  -3   51.94    1.54   1-0.33001-0.77506 0.91301 0.63185-0.23977-0.00525
  -5   3  -4   23.26    0.85   1-0.10089-0.53845 0.90887 0.56470 0.40468 0.62543
   5  -3   4   25.25    0.88   1-0.22670 0.21138 0.34903 0.69345 0.90927 0.68878
   5  -3   4   23.38    0.85   1-0.80218-0.36366 0.12970 0.47426-0.58282-0.80176
  -5   3  -4   24.08    0.84   1-0.41473-0.85321 0.85860 0.51515-0.30132-0.08151
  -5   3  -5   16.26    0.67   1-0.12239-0.55306 0.86257 0.45607 0.49089 0.69721
   5  -3   5   17.65    0.69   1-0.23474 0.19649 0.24169 0.64844 0.94152 0.73546
   5  -3   5   15.79    0.74   1-0.80655-0.37474 0.07794 0.48477-0.58599-0.79029
  -5   3  -5   16.29    0.68   1-0.47207-0.90356 0.81209 0.40563-0.34298-0.13797
  -5   3  -6   42.43    1.40   1-0.13889-0.56268 0.81877 0.34993 0.55706 0.74895
   5  -3   6   44.89    1.42   1-0.23942 0.18497 0.14327 0.61235 0.96028 0.76863
   5  -3   6   40.51    1.36   1-0.80865-0.38354 0.02979 0.49890-0.58752-0.77716
  -5   3  -6   46.73    1.50   1-0.50935-0.93419 0.77692 0.30816-0.37006-0.17977
  -5   3  -7    3.93    0.30   1-0.15129-0.56820 0.78031 0.24914 0.60681 0.78426
   5  -3   7    4.55    0.31   1-0.24157 0.17597 0.05364 0.58506 0.96889 0.79166
   5  -3   7    3.75    0.35   1-0.80891-0.39050-0.01583 0.51554-0.58771-0.76270
  -5   3  -7    3.85    0.34   1-0.53385-0.95204 0.75137 0.22031-0.38786-0.21228
  -5   3  -8   18.22    0.90   1-0.16045-0.57048 0.74839 0.15488 0.64355 0.80657
   5  -3   8   18.84    0.90   1-0.24183 0.16934-0.02677 0.56659 0.96994 0.80640
   5  -3   8   18.70    1.32   1-0.80757-0.39586-0.05965 0.53399-0.58673-0.74708
  -5   3  -8   18.69    1.61   1-0.54939-0.96094 0.73404 0.14070-0.39916-0.23829
  -5   3  -9   10.80    0.59   1-0.16708-0.57022 0.72318 0.06734 0.67013 0.81872
   5  -3   9   11.56    0.60   1-0.24067 0.16369-0.10146 0.55426 0.96528 0.81608
   5  -3   9   10.78    1.00   1-0.80478-0.39977-0.10213 0.55378-0.58471-0.73041
  -5   3  -9    9.95    1.20   1-0.55843-0.96333 0.72356 0.06791-0.40572-0.25957
  -5   3 -10    0.74    0.40   1-0.17172-0.56799 0.70434-0.01382 0.68876 0.82291
   5  -3  10    0.93    0.38   1-0.23839 0.15917-0.17020 0.54788 0.95613 0.82127
  -5   3 -11    3.22    0.36   1-0.17480-0.56418 0.69130-0.08920 0.70110 0.82081
   5  -3  11    2.90    0.34   1-0.23521 0.15555-0.23389 0.54654 0.94338 0.82285
   5  -2 -11    0.20    0.32   1-0.23152 0.25211-0.28998-0.86028 0.92860 0.44310
  -5   2  11    0.14    0.44   1-0.06310-0.54526-0.96537-0.39537 0.25311 0.73916
  -5   2  11    0.19    0.35   1-0.47932-0.96135-0.80558-0.23755-0.34824 0.13915
   5  -2 -11    0.15    0.31   1-0.67572-0.19491 0.54987-0.01896-0.49094-0.98063
   5  -2 -10    5.03    0.38   1-0.22600 0.25083-0.35667-0.86462 0.90647 0.43531
  -5   2  10    5.71    0.40   1-0.05884-0.53432-0.96996-0.46230 0.23600 0.70765
  -5   2  10    5.65    0.50   1-0.46491-0.94022-0.81839-0.31262-0.33777 0.13505
   5  -2 -10    5.74    0.38   1-0.69001-0.21584 0.52206 0.01551-0.50132-0.97630
   5  -2  -9    3.15    0.43   1-0.21887 0.25116-0.42598-0.87157 0.87785 0.42103
  -5   2   9    3.40    0.33   1-0.05258-0.52139-0.97609-0.53075 0.21091 0.66816
  -5   2   9    3.58    0.34   1-0.43866-0.90725-0.84023-0.39674-0.31870 0.13955
   5  -2  -9    3.75    0.41   1-0.70246-0.23493 0.49605 0.05180-0.51036-0.97062
   5  -2  -8    2.08    0.39   1-0.20977 0.25289-0.49812-0.88145 0.84135 0.39884
  -5   2   8    2.18    0.38   1-0.04397-0.50611-0.98334-0.60033 0.17637 0.61922
  -5   2   8    2.41    0.31   1-0.39456-0.85644-0.87300-0.49178-0.28666 0.15702
   5  -2  -8    2.26    0.28   1-0.71284-0.25196 0.47289 0.09093-0.51790-0.96345
   5  -2  -7   22.35    1.01   1-0.19830 0.25762-0.57276-0.89375 0.79536 0.36720
  -5   2   7   22.76    0.85   1-0.03257-0.48804-0.99089-0.67022 0.13066 0.55912
  -5   2   7   23.25    0.86   1-0.32171-0.77687-0.91753-0.59857-0.23373 0.19538
   5  -2  -7   22.22    0.84   1-0.72061-0.26637 0.45454 0.13488-0.52355-0.95438
   5  -2  -6   27.85    1.14   1-0.18395 0.26525-0.64949-0.90812 0.73778 0.32394
  -5   2   6   29.43    1.03   1-0.01793-0.46672-0.99724-0.73891 0.07192 0.48598
   5  -2  -6   27.70    0.99   1-0.72431-0.27672 0.44546 0.18808-0.52624-0.94236
   5  -2  -5   31.06    1.15   1-0.16610 0.27636-0.72701-0.92329 0.66623 0.26672
  -5   2   5   32.05    1.11   1 0.00027-0.44162-0.99999-0.80384-0.00112 0.39849
   5  -2  -5   30.70    1.07   1-0.71892-0.27798 0.45861 0.26353-0.52232-0.92372
   5  -2  -5   33.59    1.35   1-0.00704 0.43361 0.99996 0.80417-0.00511-0.40654
   5  -2  -4   44.42    1.41   1-0.14421 0.29152-0.80290-0.93684 0.57840 0.19323
  -5   2   4   45.03    1.39   1 0.02253-0.41270-0.99565-0.86182-0.09036 0.29484
   5  -2  -4   45.78    2.13   1-0.66130-0.22697 0.57604 0.44325-0.48046-0.86718
   5  -2  -4   46.43    2.97   1-0.41102 0.02309 0.86132 0.72781-0.29863-0.68537
   5  -2  -3   29.01    1.04   1-0.11771 0.31106-0.87364-0.94498 0.47211 0.10124
  -5   2   3   28.80    0.96   1 0.04859-0.37998-0.97962-0.90811-0.19488 0.17591
   5  -2  -2   29.19    1.20   1-0.08697 0.33512-0.93313-0.94214 0.34883-0.00763
  -5   2   2   28.60    0.99   1 0.07770-0.34420-0.94701-0.93782-0.31164 0.04474
   5  -2  -1   36.64    1.37   1-0.10852 0.30658 0.89372 0.94730 0.43528 0.09283
   5  -2  -1   36.38    1.24   1-0.05268 0.36273-0.97599-0.92267 0.21130-0.13076
   5  -2   0   14.01    0.53   1-0.80808-0.39968-0.04797 0.06882-0.58710-0.91406
   5  -2   1   60.01    1.86   1-0.16593 0.23540 0.72768 0.90592 0.66553 0.35196
   5  -2   1   57.54    2.15   1 0.01906 0.42098-0.99688-0.81911-0.07648-0.38964
   5  -2   1   53.14    1.72   1-0.80880-0.40710-0.02293 0.15613-0.58763-0.89993
  -5   2  -1   60.95    1.87   1-0.16590-0.56713 0.97874 0.80077-0.12053 0.19265
   5  -2   2   22.45    0.56   1-0.18912 0.20534 0.62359 0.86417 0.75852 0.45938
   5  -2   2   21.32    0.63   1 0.05203 0.44728-0.97659-0.73650-0.20869-0.50744
   5  -2   2   19.60    0.64   1-0.80868-0.41369-0.02855 0.21278-0.58754-0.88520
  -5   2  -2   20.98    0.60   1-0.35959-0.75426 0.89578 0.65551-0.26126 0.03722
   5  -2   3    0.07    0.16   1-0.20760 0.18051 0.51339 0.81660 0.83266 0.54824
   5  -2   3    0.19    0.21   1-0.80817-0.41987-0.04574 0.25786-0.58717-0.87017
  -5   2  -3    0.08    0.22   1-0.47014-0.85790 0.81380 0.51052-0.34158-0.05790
  -5   2  -4    0.01    0.25   1-0.10480-0.48550 0.90129 0.53604 0.42033 0.69060
   5  -2   4    0.07    0.17   1-0.22121 0.16005 0.40476 0.77031 0.88725 0.61725
  -5   2  -5   -0.01    0.24   1-0.12381-0.49763 0.85911 0.43152 0.49658 0.75242
   5  -2   5   -0.00    0.18   1-0.23073 0.14369 0.30059 0.72847 0.92541 0.66983
  -5   2  -6    0.18    0.28   1-0.13860-0.50554 0.81959 0.32967 0.55592 0.79733
   5  -2   6    0.14    0.19   1-0.23689 0.13068 0.20282 0.69303 0.95012 0.70895
   5  -2   6    0.08    0.24   1-0.80284-0.43465-0.12328 0.36714-0.58330-0.82236
  -5   2  -6    0.00    0.23   1-0.59540-0.96323 0.67702 0.18685-0.43258-0.19306
  -5   2  -7    0.25    0.22   1-0.14988-0.50994 0.78493 0.23268 0.60116 0.82814
   5  -2   7    0.43    0.21   1-0.24039 0.12033 0.11207 0.66461 0.96418 0.73742
  -5   2  -8    3.99    0.32   1-0.15832-0.51149 0.75610 0.14151 0.63501 0.84755
   5  -2   8    3.83    0.30   1-0.24182 0.11206 0.02818 0.64305 0.96991 0.75757
  -5   2  -9    7.61    0.40   1-0.16449-0.51078 0.73325 0.05633 0.65975 0.85786
   5  -2   9    7.81    0.39   1-0.24164 0.10592-0.04810 0.62866 0.96917 0.77042
   5  -2   9    7.40    0.95   1-0.79000-0.44191-0.21550 0.46174-0.57397-0.76909
  -5   2  -9    5.19    1.34   1-0.61872-0.96660 0.64428-0.03276-0.44952-0.25415
  -5   2 -10   11.78    0.67   1-0.16885-0.50825 0.71613-0.02311 0.67722 0.86089
   5  -2  10   11.84    0.66   1-0.24017 0.10059-0.12006 0.61906 0.96327 0.77886
   5  -2  10   11.42    1.29   1-0.78380-0.44241-0.24772 0.49180-0.56946-0.74993
  -5   2 -10   10.39    1.53   1-0.61761-0.95885 0.64590-0.09344-0.44872-0.26806
  -5   2 -11    8.66    0.65   1-0.17174-0.50426 0.70429-0.09729 0.68881 0.85805
   5  -2  11    8.91    0.57   1-0.23765 0.09631-0.18708 0.61439 0.95316 0.78309
   5  -2  11    8.25    0.75   1-0.77655-0.44186-0.28043 0.52136-0.56419-0.73001
  -5   2 -11    8.45    1.13   1-0.61365-0.94824 0.65165-0.14998-0.44584-0.27989
   5  -1 -11   20.16    1.11   1-0.22595 0.20089-0.35729-0.90655 0.90624 0.37121
  -5   1  11   22.84    0.63   1-0.05772-0.48313-0.97111-0.42210 0.23152 0.76708
  -5   1  11   23.87    0.67   1-0.54664-0.97173-0.73718-0.19032-0.39715 0.13970
   5  -1 -11   23.36    0.62   1-0.60237-0.17856 0.66754 0.12010-0.43764-0.97656
   5  -1 -10   35.97    1.78   1-0.21897 0.20106-0.42507-0.91198 0.87826 0.35757
  -5   1  10   37.28    1.66   1-0.05299-0.47172-0.97571-0.48903 0.21254 0.73370
  -5   1  10   40.09    1.78   1-0.53740-0.95577-0.74749-0.26289-0.39044 0.13184
   5  -1 -10   40.06    1.77   1-0.60804-0.19089 0.65963 0.17449-0.44177-0.96597
   5  -1  -9   11.52    0.79   1-0.21022 0.20239-0.49487-0.91956 0.84315 0.33679
  -5   1   9   12.14    0.66   1-0.04629-0.45835-0.98151-0.55717 0.18568 0.69243
  -5   1   9   13.12    0.74   1-0.51685-0.92850-0.76931-0.34698-0.37551 0.13220
   5  -1  -9   12.83    0.68   1-0.60805-0.19754 0.65962 0.23677-0.44177-0.95126
   5  -1  -8    3.00    0.40   1-0.19935 0.20653-0.56650-0.92884 0.79958 0.30756
  -5   1   8    3.21    0.31   1-0.03730-0.44268-0.98804-0.62602 0.14960 0.64196
  -5   1   8    3.25    0.29   1-0.47744-0.88237-0.80729-0.44723-0.34688 0.14626
   5  -1  -8    3.37    0.30   1-0.59896-0.19510 0.67220 0.31165-0.43517-0.92994
   5  -1  -7   19.52    0.95   1-0.18599 0.21316-0.63946-0.93945 0.74598 0.26829
  -5   1   7   20.97    0.80   1-0.02564-0.42435-0.99436-0.69468 0.10284 0.58080
  -5   1   7   21.84    0.85   1-0.40190-0.80011-0.86787-0.57008-0.29200 0.18658
   5  -1  -7   21.80    0.86   1-0.57208-0.17486 0.70707 0.40881-0.41564-0.89570
   5  -1  -6   14.42    0.69   1-0.16969 0.22272-0.71271-0.95036 0.68061 0.21726
  -5   1   6   15.77    0.62   1-0.01094-0.40298-0.99897-0.76162 0.04390 0.50746
   5  -1  -6   17.37    0.66   1-0.49632-0.10574 0.78970 0.55374-0.36059-0.82594
   5  -1  -5   12.68    0.49   1-0.15003 0.23565-0.78446-0.95976 0.60175 0.15273
  -5   1   5   13.49    0.46   1 0.00698-0.37815-0.99958-0.82440-0.02803 0.42112
   5  -1  -4    2.46    0.26   1-0.12668 0.25227-0.85192-0.96486 0.50811 0.07343
  -5   1   4    2.70    0.27   1 0.02847-0.35000-0.99304-0.88019-0.11420 0.32054
   5  -1  -3    3.61    0.32   1-0.09947 0.27254-0.91155-0.96190 0.39895-0.02140
  -5   1   3    3.65    0.28   1 0.05318-0.31862-0.97553-0.92500-0.21333 0.20701
   5  -1  -2    0.41    0.20   1-0.06908 0.29626-0.95835-0.94637 0.27708-0.12888
   5  -1  -1   10.08    0.41   1-0.10901 0.24924 0.89272 0.96738 0.43721 0.04525
   5  -1  -1    9.42    0.42   1-0.03642 0.32224-0.98859-0.91427 0.14610-0.24546
   5  -1   0    0.68    0.21   1-0.57120-0.22000-0.70816-0.57006-0.41500-0.79159
   5  -1   1   70.65    2.11   1-0.16256 0.18192 0.74058 0.93991 0.65200 0.28890
   5  -1   1   70.12    2.12   1 0.02901 0.37417-0.99278-0.79402-0.11636-0.47907
   5  -1   1   69.05    2.07   1-0.73289-0.38811-0.42347-0.22308-0.53247-0.89420
  -5   1  -1   71.58    2.14   1-0.38202-0.72630 0.88148 0.68210-0.27756 0.08489
   5  -1   2    0.27    0.31   1-0.18481 0.15279 0.64526 0.90692 0.74126 0.39260
   5  -1   2    0.47    0.19   1-0.76418-0.42611-0.32826-0.06559-0.55521-0.90228
  -5   1  -2    0.41    0.15   1-0.53413-0.87152 0.75106 0.48867-0.38806-0.04045
   5  -1   3   13.50    0.42   1-0.20300 0.12772 0.54394 0.86793 0.81419 0.47997
   5  -1   3   12.36    0.43   1-0.77493-0.44356-0.28719 0.03774-0.56302-0.89544
  -5   1  -3   13.34    0.45   1-0.60308-0.93383 0.66655 0.34186-0.43816-0.10526
  -5   1  -4   75.68    2.11   1-0.10549-0.42933 0.89991 0.51359 0.42310 0.74289
   5  -1   4   78.88    2.18   1-0.21717 0.10728 0.44055 0.82722 0.87105 0.55153
   5  -1   4   70.75    2.02   1-0.77862-0.45395-0.27151 0.11569-0.56570-0.88348
  -5   1  -4   79.76    2.25   1-0.63891-0.96301 0.61344 0.22645-0.46419-0.14601
  -5   1  -5   25.99    0.90   1-0.12270-0.43966 0.86183 0.41316 0.49213 0.79748
   5  -1   5   27.65    0.90   1-0.22747 0.09013 0.34038 0.78938 0.91235 0.60724
   5  -1   5   25.50    0.94   1-0.77895-0.46098-0.27005 0.17943-0.56594-0.86907
  -5   1  -5   28.43    0.99   1-0.65825-0.97570 0.58136 0.13208-0.47824-0.17477
  -5   1  -6   25.44    0.95   1-0.13627-0.44635 0.82625 0.31525 0.54656 0.83748
   5  -1   6   27.29    0.93   1-0.23456 0.07619 0.24467 0.75600 0.94080 0.65011
   5  -1   6   25.81    0.92   1-0.77726-0.46598-0.27742 0.23433-0.56471-0.85319
  -5   1  -6   25.41    0.97   1-0.66825-0.97906 0.56365 0.05207-0.48551-0.19676
  -5   1  -7   10.36    0.42   1-0.14675-0.44995 0.79497 0.22164 0.58862 0.86510
   5  -1   7   10.92    0.41   1-0.23901 0.06490 0.15444 0.72811 0.95865 0.68237
   5  -1   7   10.44    0.43   1-0.77407-0.46950-0.29070 0.28333-0.56240-0.83623
  -5   1  -7    9.22    0.47   1-0.67240-0.97656 0.55607-0.01779-0.48852-0.21448
  -5   1  -8   27.88    1.32   1-0.15470-0.45101 0.76881 0.13315 0.62047 0.88252
   5  -1   8   30.03    1.33   1-0.24132 0.05574 0.06995 0.70595 0.96791 0.70606
   5  -1   8   29.09    1.37   1-0.76965-0.47178-0.30813 0.32817-0.55918-0.81836
  -5   1  -8   25.78    1.31   1-0.67251-0.97003 0.55585-0.08031-0.48861-0.22929
  -5   1  -9    4.17    0.34   1-0.16056-0.45000 0.74797 0.04997 0.64400 0.89162
   5  -1   9    4.33    0.40   1-0.24191 0.04885-0.00763 0.69018 0.97026 0.72198
   5  -1   9    4.15    0.84   1-0.76408-0.47291-0.32862 0.36995-0.55514-0.79967
  -5   1  -9    4.40    0.68   1-0.66965-0.96052 0.56111-0.13734-0.48653-0.24192
  -5   1 -10   11.52    0.68   1-0.16474-0.44729 0.73229-0.02804 0.66076 0.89394
   5  -1  10   11.99    0.71   1-0.24111 0.04284-0.08142 0.67874 0.96707 0.73312
   5  -1  10   11.50    1.09   1-0.75741-0.47294-0.35142 0.40943-0.55029-0.78018
  -5   1 -10   12.20    1.33   1-0.66440-0.94863 0.57056-0.19019-0.48271-0.25283
  -5   1 -11    6.83    0.42   1-0.16753-0.44319 0.72141-0.10125 0.67193 0.89068
   5  -1  11    7.24    0.44   1-0.23916 0.03799-0.15057 0.67194 0.95923 0.73962
   5  -1  11    6.79    0.64   1-0.74964-0.47187-0.37602 0.44710-0.54464-0.75988
  -5   1 -11    7.96    0.84   1-0.65714-0.93472 0.58326-0.23978-0.47744-0.26227
   5   0 -12    2.27    0.49   1-0.22679 0.15004-0.34800-0.93857 0.90964 0.31073
  -5   0  12    2.18    0.36   1-0.05429-0.42962-0.97448-0.38413 0.21777 0.81722
   5   0 -11    0.82    0.42   1-0.22017 0.14986-0.41434-0.94256 0.88308 0.29850
  -5   0  11    0.92    0.31   1-0.05074-0.41939-0.97775-0.44973 0.20351 0.78857
  -5   0  11    0.69    0.61   1-0.61399-0.98213-0.65116-0.12545-0.44609 0.14022
   5   0 -11    0.78    0.34   1-0.50811-0.14132 0.77816 0.25213-0.36916-0.95731
   5   0 -10    0.12    0.27   1-0.21195 0.15062-0.48209-0.94814 0.85009 0.27988
  -5   0  10    0.04    0.27   1-0.04549-0.40748-0.98215-0.51646 0.18248 0.75314
   5   0 -10    0.08    0.29   1-0.49907-0.13893 0.78704 0.32331-0.36260-0.93603
   5   0  -9    0.02    0.26   1-0.20184 0.15399-0.55125-0.95494 0.80955 0.25368
  -5   0   9    0.14    0.25   1-0.03831-0.39361-0.98738-0.58402 0.15365 0.70991
  -5   0   9    0.10    0.26   1-0.60113-0.95583-0.66924-0.26808-0.43674 0.12043
   5   0  -9    0.18    0.26   1-0.47720-0.12371 0.80750 0.40606-0.34671-0.90543
   5   0  -8    5.09    0.35   1-0.18956 0.15954-0.62129-0.96264 0.76029 0.21876
  -5   0   8    5.81    0.36   1-0.02888-0.37752-0.99284-0.65182 0.11586 0.65772
  -5   0   8    5.83    0.53   1-0.57446-0.92245-0.70411-0.36522-0.41737 0.12523
   5   0  -8    6.19    0.36   1-0.43265-0.08580 0.84498 0.50583-0.31434-0.85834
   5   0  -7    2.27    0.28   1-0.17477 0.16759-0.69141-0.97041 0.70099 0.17379
  -5   0   7    2.56    0.28   1-0.01692-0.35888-0.99755-0.71886 0.06788 0.59534
  -5   0   7    2.84    0.29   1-0.51186-0.85313-0.77439-0.49776-0.37189 0.15614
   5   0  -7    2.86    0.31   1-0.34130-0.00142 0.90665 0.62908-0.24797-0.77733
   5   0  -6    5.51    0.41   1-0.15715 0.17848-0.76025-0.97690 0.63032 0.11745
  -5   0   6    5.72    0.41   1-0.00221-0.33726-0.99995-0.78344 0.00887 0.52198
   5   0  -6    6.27    0.45   1-0.07705 0.25628 0.99545 0.78016-0.05598-0.57066
   5   0  -5   21.44    0.92   1-0.13643 0.19247-0.82579-0.98009 0.54721 0.04868
  -5   0   5   22.88    0.85   1 0.01558-0.31280-0.99792-0.84372-0.06249 0.43620
   5   0  -4   36.64    1.19   1-0.11239 0.20955-0.88553-0.97722 0.45077-0.03349
  -5   0   4   36.17    1.16   1 0.03640-0.28531-0.98861-0.89674-0.14599 0.33829
   5   0  -3   36.86    1.23   1-0.08545 0.22981-0.93553-0.96489 0.34273-0.12713
  -5   0   3   35.82    1.19   1 0.05993-0.25512-0.96882-0.93927-0.24037 0.22950
   5   0  -2   54.02    2.11   1-0.05610 0.25248-0.97273-0.93975 0.22502-0.23044
   5   0  -1   32.48    1.58   1-0.11210 0.18929 0.88615 0.98188 0.44963 0.00815
   5   0  -1   29.81    1.85   1-0.02540 0.27651-0.99447-0.89916 0.10188-0.33918
   5   0   0   29.32    1.93   1-0.13794 0.15657 0.82149 0.97956 0.55327 0.12623
   5   0   0   33.65    1.71   1 0.00520 0.30026-0.99976-0.84235-0.02086-0.44752
  -5   0   0   36.76    1.28   1-0.37192-0.66581 0.88806 0.72957-0.27021 0.15621
   5   0   1   33.85    1.12   1-0.16192 0.12571 0.74298 0.96338 0.64943 0.23682
   5   0   1   32.21    1.70   1 0.03439 0.32279-0.98983-0.77010-0.13796-0.55021
   5   0   1   33.48    1.16   1-0.57060-0.28307-0.70890-0.48737-0.41456-0.82603
  -5   0  -1   32.55    1.12   1-0.61781-0.90484 0.64562 0.42411-0.44886-0.03730
   5   0   2   15.31    0.49   1-0.18298 0.09776 0.65412 0.93686 0.73391 0.33573
   5   0   2   14.90    0.60   1 0.06091 0.34265-0.96777-0.68572-0.24432-0.64216
   5   0   2   14.33    0.51   1-0.66135-0.38054-0.57595-0.29216-0.48050-0.87739
  -5   0  -2   14.54    0.50   1-0.68155-0.96193 0.53878 0.25498-0.49517-0.09832
   5   0   3   66.15    1.87   1-0.20056 0.07330 0.55916 0.90424 0.80442 0.42068
   5   0   3   61.79    1.81   1-0.70134-0.42689-0.49845-0.15219-0.50955-0.89140
  -5   0  -3   63.16    1.85   1-0.70781-0.98155 0.48428 0.13818-0.51425-0.13212
  -5   0  -4   16.94    0.69   1-0.10368-0.37067 0.90349 0.49608 0.41586 0.78517
   5   0   4   17.81    0.68   1-0.21464 0.05299 0.46126 0.86906 0.86090 0.49185
   5   0   4   16.65    0.67   1-0.72029-0.45253-0.45532-0.04677-0.52332-0.89051
  -5   0  -4   16.79    0.71   1-0.71956-0.98665 0.45706 0.04867-0.52279-0.15538
  -5   0  -5    0.26    0.29   1-0.11955-0.37965 0.86936 0.39962 0.47948 0.83436
   5   0   5    0.24    0.19   1-0.22521 0.03558 0.36516 0.83528 0.90328 0.54865
   5   0   5    0.09    0.26   1-0.72956-0.46851-0.43216 0.03865-0.53006-0.88260
  -5   0  -5    0.32    0.25   1-0.72409-0.98454 0.44599-0.02469-0.52608-0.17339
  -5   0  -6    0.27    0.22   1-0.13221-0.38544 0.83743 0.30535 0.53030 0.87074
   5   0   6    0.38    0.20   1-0.23279 0.02116 0.27212 0.80458 0.93367 0.59346
   5   0   6    0.03    0.31   1-0.73340-0.47905-0.42213 0.11095-0.53284-0.87074
  -5   0  -6    0.46    0.27   1-0.72438-0.97818 0.44527-0.08770-0.52629-0.18831
  -5   0  -7    0.45    0.23   1-0.14213-0.38847 0.80920 0.21479 0.57006 0.89607
   5   0   7    0.64    0.31   1-0.23782 0.00928 0.18332 0.77811 0.95385 0.62805
   5   0   7    0.29    0.33   1-0.73376-0.48611-0.42117 0.17419-0.53310-0.85636
  -5   0  -7    0.53    0.29   1-0.72181-0.96896 0.45161-0.14366-0.52442-0.20116
  -5   0  -8   -0.09    0.24   1-0.14973-0.38919 0.78544 0.12869 0.60055 0.91212
   5   0   8    0.02    0.28   1-0.24072-0.00046 0.09926 0.75638 0.96550 0.65412
  -5   0  -8   -0.13    0.29   1-0.71709-0.95759 0.46296-0.19460-0.52099-0.21244
  -5   0  -9   -0.11    0.37   1-0.15541-0.38798 0.76637 0.04729 0.62331 0.92045
   5   0   9   -0.00    0.24   1-0.24186-0.00790 0.02142 0.74028 0.97007 0.67224
   5   0   9   -0.03    0.26   1-0.72760-0.49336-0.43718 0.28273-0.52863-0.82259
  -5   0  -9    0.41    0.31   1-0.71060-0.94446 0.47800-0.24186-0.51628-0.22245
  -5   0 -10    1.12    0.31   1-0.15948-0.38518 0.75192-0.02949 0.63966 0.92237
   5   0  10    1.18    0.28   1-0.24157-0.01441-0.05321 0.72799 0.96892 0.68543
   5   0  10    1.33    0.30   1-0.72193-0.49438-0.45133 0.33085-0.52451-0.80381
  -5   0 -10    1.45    0.47   1-0.70257-0.92978 0.49581-0.28634-0.51044-0.23132
  -5   0 -11    3.39    0.43   1-0.16222-0.38103 0.74184-0.10190 0.65065 0.91892
   5   0  11    3.39    0.41   1-0.24006-0.01970-0.12357 0.71998 0.96285 0.69371
   5   0  11    3.13    0.40   1-0.71477-0.49393-0.46840 0.37605-0.51931-0.78397
  -5   0 -11    3.38    0.44   1-0.69309-0.91366 0.51578-0.32867-0.50356-0.23916
   5   1 -12    6.53    0.61   1-0.22218 0.09785-0.39562-0.96515 0.89113 0.24267
  -5  -1  12    8.07    0.51   1-0.04635-0.36492-0.98147-0.41211 0.18590 0.83486
   5   1 -11    7.52    0.45   1-0.21457 0.09866-0.46181-0.96899 0.86062 0.22651
  -5  -1  11    7.92    0.52   1-0.04225-0.35415-0.98462-0.47759 0.16947 0.80403
  -5  -1  11    8.03    0.76   1-0.67756-0.98876-0.54641-0.04187-0.49228 0.14349
   5   1 -11    7.11    1.29   1-0.39807-0.08887 0.87056 0.36522-0.28922-0.92666
   5   1 -10   10.97    0.66   1-0.20533 0.10045-0.52878-0.97384 0.82354 0.20382
  -5  -1  10   12.02    0.65   1-0.03647-0.34170-0.98856-0.54387 0.14628 0.76644
  -5  -1  10   12.45    0.69   1-0.68333-0.98781-0.53531-0.09304-0.49647 0.12473
   5   1 -10   12.95    0.72   1-0.37167-0.06903 0.88822 0.44517-0.27003-0.89277
   5   1  -9   31.15    1.49   1-0.19416 0.10489-0.59655-0.97925 0.77873 0.17334
  -5  -1   9   31.79    1.42   1-0.02877-0.32733-0.99290-0.61053 0.11541 0.72117
  -5  -1   9   33.36    1.49   1-0.68432-0.98208-0.53338-0.15338-0.49719 0.10944
   5   1  -9   36.11    1.66   1-0.32545-0.02938 0.91551 0.53476-0.23645-0.84449
   5   1  -8   46.58    1.76   1-0.18082 0.11149-0.66430-0.98466 0.72525 0.13420
  -5  -1   8   47.20    1.74   1-0.01891-0.31079-0.99693-0.67690 0.07586 0.66723
  -5  -1   8   50.11    1.92   1-0.67707-0.96811-0.54734-0.22961-0.49191 0.10014
   5   1  -8   53.52    1.11   1-0.24569 0.04380 0.95276 0.63430-0.17850-0.77183
   5   1  -7   19.38    0.81   1-0.16507 0.12051-0.73102-0.98903 0.66207 0.08535
  -5  -1   7   20.31    0.79   1-0.00664-0.29185-0.99962-0.74192 0.02666 0.60362
  -5  -1   7   21.31    0.84   1-0.65070-0.93503-0.59420-0.33873-0.47276 0.10473
   5   1  -7   22.82    0.93   1-0.10122 0.18170 0.99214 0.73597-0.07354-0.65217
   5   1  -6    7.71    0.39   1-0.14667 0.13218-0.79522-0.99088 0.58829 0.02591
  -5  -1   6    7.82    0.39   1 0.00816-0.27012-0.99943-0.80389-0.03276 0.52989
  -5  -1   6    6.32    0.38   1-0.52918-0.80682-0.75639-0.56318-0.38447 0.17849
   5   1  -5   36.46    1.27   1-0.12540 0.14645-0.85515-0.98818 0.50297-0.04519
  -5  -1   5   35.83    1.22   1 0.02574-0.24588-0.99432-0.86110-0.10323 0.44500
   5   1  -4   14.37    0.55   1-0.10153 0.16365-0.90766-0.97836 0.40722-0.12654
  -5  -1   4   14.40    0.49   1 0.04592-0.21903-0.98181-0.91092-0.18420 0.34963
   5   1  -3   22.31    0.82   1-0.07527 0.18323-0.95035-0.95871 0.30192-0.21744
  -5  -1   3   22.00    0.80   1 0.06836-0.18993-0.95924-0.95067-0.27418 0.24524
   5   1  -2    4.76    0.31   1-0.09266 0.15875 0.92373 0.97821 0.37166-0.13376
   5   1  -2    4.41    0.58   1-0.04731 0.20452-0.98068-0.92672 0.18976-0.31520
   5   1  -1    5.50    0.32   1-0.11719 0.12734 0.87481 0.99163 0.47005-0.02093
   5   1  -1    4.77    0.70   1-0.01861 0.22655-0.99703-0.88073 0.07466-0.41591
  -5  -1   0    0.17    0.18   1-0.72977-0.96644 0.43162 0.25099-0.53021-0.05470
   5   1   1    8.19    0.36   1-0.16342 0.06735 0.73733 0.97881 0.65546 0.19333
   5   1   1    8.13    0.39   1 0.03626 0.26790-0.98870-0.74798-0.14544-0.60724
   5   1   1    8.02    0.39   1-0.42472-0.19414-0.85110-0.60841-0.30858-0.76950
  -5  -1  -1    7.36    0.41   1-0.76106-0.99108 0.33915 0.09623-0.55294-0.09215
   5   1   2    0.06    0.18   1-0.18316 0.04072 0.65325 0.95707 0.73464 0.28694
   5   1   2   -0.12    0.30   1 0.06047 0.28545-0.96825-0.66522-0.24254-0.68992
   5   1   2    0.05    0.15   1-0.54381-0.31994-0.74038-0.43542-0.39510-0.84145
  -5  -1  -2    0.02    0.20   1-0.77016-0.99353 0.30615 0.00093-0.55956-0.11348
   5   1   3   56.19    1.75   1-0.19988 0.01713 0.56334 0.92950 0.80167 0.36841
   5   1   3   51.05    1.62   1-0.60690-0.38976-0.66123-0.29400-0.44094-0.87272
  -5  -1  -3   46.15    1.54   1-0.77235-0.98907 0.29763-0.06987-0.56114-0.12978
  -5  -1  -4    2.67    0.31   1-0.09984-0.30997 0.91085 0.48236 0.40046 0.81928
   5   1   4    2.50    0.25   1-0.21351-0.00268 0.47015 0.89906 0.85636 0.43779
   5   1   4    2.56    0.25   1-0.64255-0.43212-0.60760-0.17810-0.46684-0.88404
  -5  -1  -4    2.49    0.31   1-0.77125-0.98132 0.30196-0.12784-0.56034-0.14370
  -5  -1  -5    8.44    0.38   1-0.11467-0.31792 0.88051 0.38969 0.45993 0.86432
   5   1   5    8.91    0.37   1-0.22398-0.02000 0.37786 0.86911 0.89835 0.49420
   5   1   5    8.62    0.43   1-0.66320-0.45949-0.57269-0.08093-0.48184-0.88448
  -5  -1  -5    8.30    0.44   1-0.76810-0.97153 0.31396-0.17813-0.55806-0.15613
  -5  -1  -6   53.44    1.73   1-0.12666-0.32302 0.85198 0.29882 0.50801 0.89797
   5   1   6   55.69    1.75   1-0.23169-0.03455 0.28766 0.84124 0.92928 0.53954
   5   1   6   52.57    1.69   1-0.67489-0.47790-0.55143 0.00260-0.49033-0.87840
  -5  -1  -6   56.18    1.84   1-0.76343-0.96021 0.33092-0.22347-0.55466-0.16745
  -5  -1  -7    9.00    0.53   1-0.13615-0.32564 0.82657 0.21108 0.54610 0.92162
   5   1   7   10.23    0.56   1-0.23699-0.04670 0.20074 0.81666 0.95054 0.57522
   5   1   7    9.05    0.55   1-0.68078-0.49051-0.54026 0.07603-0.49461-0.86811
  -5  -1  -7    9.92    0.68   1-0.75745-0.94759 0.35128-0.26540-0.55032-0.17783
  -5  -1  -8   20.10    0.92   1-0.14352-0.32612 0.80500 0.12718 0.57564 0.93673
   5   1   8   20.44    0.88   1-0.24023-0.05679 0.11774 0.79598 0.96354 0.60264
   5   1   8   18.78    0.85   1-0.68261-0.49906-0.53671 0.14185-0.49595-0.85487
  -5  -1  -8   21.28    0.96   1-0.75028-0.93377 0.37406-0.30491-0.54511-0.18733
  -5  -1  -9    5.32    0.37   1-0.14908-0.32480 0.78755 0.04739 0.59793 0.94459
   5   1   9    5.18    0.35   1-0.24173-0.06514 0.03886 0.77944 0.96956 0.62307
   5   1   9    5.23    0.38   1-0.68142-0.50459-0.53902 0.20181-0.49508-0.83943
  -5  -1  -9    5.04    0.39   1-0.74195-0.91879 0.39864-0.34263-0.53906-0.19599
  -5  -1 -10   12.32    0.71   1-0.15311-0.32195 0.77422-0.02827 0.61411 0.94633
   5   1  10   13.70    0.75   1-0.24177-0.07141-0.03444 0.76780 0.96972 0.63669
   5   1  10   12.82    0.73   1-0.67782-0.50770-0.54592 0.25718-0.49246-0.82224
  -5  -1 -10   13.36    0.82   1-0.73247-0.90267 0.42458-0.37899-0.53217-0.20382
   5   2 -11   11.96    0.80   1-0.20948 0.04625-0.50016-0.98657 0.84021 0.15663
  -5  -2  11   13.58    0.76   1-0.03235-0.28751-0.99101-0.50497 0.12978 0.81384
   5   2 -10    4.44    0.46   1-0.19941 0.04959-0.56613-0.99019 0.79982 0.13058
  -5  -2  10    3.90    0.35   1-0.02603-0.27451-0.99419-0.57048 0.10441 0.77407
  -5  -2  10    4.90    0.40   1-0.74331-0.99103-0.39475 0.02587-0.54005 0.13106
   5   2 -10    4.67    0.56   1-0.23896 0.00670 0.95537 0.53373-0.17362-0.84562
   5   2  -9    1.38    0.29   1-0.18746 0.05480-0.63206-0.99377 0.75189 0.09699
  -5  -2   9    1.50    0.29   1-0.01783-0.25963-0.99728-0.63590 0.07151 0.72678
  -5  -2   9    1.65    0.31   1-0.75294-0.99396-0.36579-0.00744-0.54704 0.10941
   5   2  -9    1.70    0.33   1-0.17482 0.06428 0.97637 0.61701-0.12701-0.78432
   5   2  -8    1.47    0.28   1-0.17343 0.06211-0.69718-0.99655 0.69559 0.05502
  -5  -2   8    1.46    0.28   1-0.00755-0.24268-0.99951-0.70047 0.03028 0.67115
  -5  -2   8    1.73    0.37   1-0.76071-0.99503-0.34035-0.04427-0.55269 0.08912
   5   2  -8    1.83    0.38   1-0.07716 0.15537 0.99544 0.69837-0.05606-0.69866
   5   2  -7    1.23    0.36   1-0.15711 0.07169-0.76040-0.99741 0.63015 0.00392
  -5  -2   7    1.28    0.26   1 0.00495-0.22324-0.99979-0.76291-0.01987 0.60673
  -5  -2   7    1.18    0.28   1-0.76599-0.99361-0.32174-0.08793-0.55653 0.07064
   5   2  -6    3.04    0.38   1-0.13839 0.08368-0.82020-0.99487 0.55507-0.05682
  -5  -2   6    2.98    0.37   1 0.01987-0.20165-0.99662-0.82206-0.07970 0.53249
  -5  -2   6    3.00    0.30   1-0.76636-0.98728-0.32042-0.14888-0.55679 0.05573
   5   2  -5    1.13    0.25   1-0.11715 0.09795-0.87491-0.98695 0.46989-0.12777
  -5  -2   5    1.54    0.25   1 0.03718-0.17767-0.98811-0.87587-0.14916 0.44863
  -5  -2   5    1.36    0.22   1-0.62905-0.84305-0.62882-0.51903-0.45703 0.14094
   5   2  -4   10.14    0.43   1-0.09376 0.11467-0.92184-0.97154 0.37605-0.20721
  -5  -2   4   10.42    0.42   1 0.05673-0.15146-0.97211-0.92219-0.22755 0.35582
   5   2  -3   12.01    0.92   1-0.06850 0.13325-0.95906-0.94643 0.27477-0.29409
  -5  -2   3   12.23    0.45   1 0.07811-0.12342-0.94644-0.95884-0.31328 0.25568
   5   2  -2   35.71    1.19   1-0.10099 0.09357 0.90869 0.98426 0.40505-0.14989
   5   2  -2   30.56    2.07   1-0.04206 0.15303-0.98477-0.90981 0.16869-0.38577
  -5  -2   2   29.05    1.28   1-0.80520-0.99932 0.09689 0.01933-0.58501-0.03107
  -5  -2   2   33.78    1.29   1-0.57606-0.76901 0.70212 0.62467-0.41853 0.13564
   5   2  -1   31.63    1.63   1-0.12382 0.06386 0.85909 0.99699 0.49661-0.04390
   5   2  -1   27.68    1.70   1-0.01528 0.17312-0.99800-0.86070 0.06132-0.47875
  -5  -2   1   26.08    1.01   1-0.80780-0.99522 0.05461-0.08521-0.58690-0.04763
  -5  -2   1   30.99    1.03   1-0.18102-0.36757 0.97464 0.83565-0.13152 0.40813
   5   2   0   38.15    1.66   1-0.14599 0.03481 0.79739 0.99762 0.58553 0.05945
   5   2   0   36.62    1.73   1 0.01074 0.19229-0.99901-0.79964-0.04310-0.56885
  -5  -2   0   33.44    1.20   1-0.80746-0.98817 0.06190-0.14020-0.58665-0.06203
   5   2   1   30.38    1.49   1-0.16660 0.00731 0.72507 0.98764 0.66821 0.15656
   5   2   1   29.51    1.59   1 0.03532 0.21020-0.98928-0.72759-0.14167-0.65301
   5   2   1   29.83    1.09   1-0.31736-0.14373-0.91984-0.65598-0.23058-0.74096
  -5  -2  -1   27.07    1.09   1-0.80629-0.98030 0.08201-0.18236-0.58580-0.07582
   5   2   2   30.18    1.06   1-0.18496-0.01792 0.64454 0.96944 0.74185 0.24464
   5   2   2   29.03    1.03   1 0.05763 0.22585-0.97120-0.64718-0.23117-0.72810
   5   2   2   27.95    1.01   1-0.43690-0.26998-0.84163-0.51551-0.31742-0.81323
  -5  -2  -2   26.85    1.04   1-0.80432-0.97163 0.10756-0.21908-0.58437-0.08904
   5   2   3   20.41    0.74   1-0.20065-0.04049 0.55863 0.94587 0.80477 0.32199
   5   2   3   19.04    0.71   1 0.07726 0.23881-0.94762-0.56129-0.30989-0.79241
   5   2   3   18.59    0.72   1-0.51143-0.35124-0.77482-0.38643-0.37158-0.85281
  -5  -2  -3   19.12    0.79   1-0.80150-0.96211 0.13594-0.25298-0.58232-0.10164
  -5  -2  -4   11.70    0.43   1-0.09428-0.24755 0.92093 0.47136 0.37813 0.84648
   5   2   4   12.83    0.43   1-0.21361-0.05959 0.46941 0.91945 0.85675 0.38865
   5   2   4   11.77    0.42   1-0.55876-0.40528-0.72316-0.27250-0.40596-0.87263
  -5  -2  -4   12.63    0.62   1-0.79779-0.95170 0.16597-0.28522-0.57963-0.11360
  -5  -2  -5   43.03    1.41   1-0.10829-0.25468 0.89422 0.38231 0.43432 0.88823
   5   2   5   46.32    1.48   1-0.22371-0.07654 0.38057 0.89294 0.89728 0.44360
   5   2   5   41.25    1.37   1-0.58910-0.44234-0.68538-0.17245-0.42801-0.88010
  -5  -2  -5   45.30    1.57   1-0.79315-0.94036 0.19705-0.31642-0.57626-0.12487
  -5  -2  -6   10.08    0.48   1-0.11974-0.25925 0.86890 0.29466 0.48028 0.91975
   5   2   6    9.77    0.39   1-0.23129-0.09097 0.29315 0.86786 0.92766 0.48840
   5   2   6    9.62    0.41   1-0.60839-0.46834-0.65914-0.08394-0.44202-0.87954
  -5  -2  -6   10.18    0.49   1-0.78755-0.92805 0.22882-0.34692-0.57218-0.13545
  -5  -2  -7    0.67    0.25   1-0.12893-0.26156 0.84614 0.20957 0.51711 0.94215
   5   2   7    0.53    0.24   1-0.23661-0.10314 0.20830 0.84534 0.94901 0.52416
   5   2   7    0.26    0.36   1-0.62012-0.48680-0.64222-0.00475-0.45054-0.87349
  -5  -2  -7    0.54    0.43   1-0.78115-0.91428 0.26017-0.37792-0.56754-0.14582
  -5  -2  -8    0.57    0.27   1-0.13613-0.26188 0.82664 0.12774 0.54600 0.95660
   5   2   8    0.85    0.25   1-0.23997-0.11334 0.12670 0.82606 0.96247 0.55205
   5   2   8    0.41    0.34   1-0.62645-0.49984-0.63277 0.06696-0.45514-0.86352
  -5  -2  -8    0.62    0.30   1-0.77351-0.89999 0.29297-0.40741-0.56199-0.15498
  -5  -2  -9    0.71    0.30   1-0.14162-0.26049 0.81072 0.04948 0.56803 0.96420
   5   2   9    0.70    0.27   1-0.24163-0.12185 0.04864 0.81034 0.96914 0.57314
   5   2   9    0.58    0.30   1-0.62870-0.50881-0.62934 0.13266-0.45678-0.85059
  -5  -2  -9    0.72    0.32   1-0.76482-0.88465 0.32599-0.43669-0.55567-0.16338
  -5  -2 -10    0.01    0.30   1-0.14565-0.25763 0.79844-0.02512 0.58417 0.96591
   5   2  10   -0.07    0.27   1-0.24185-0.12829-0.02426 0.79903 0.97000 0.58744
   5   2  10    0.02    0.31   1-0.62775-0.51458-0.63080 0.19347-0.45608-0.83532
  -5  -2 -10   -0.22    0.31   1-0.75502-0.86821 0.35918-0.46580-0.54856-0.17098
   5   3 -11    2.55    0.35   1-0.20506-0.00610-0.53056-0.99597 0.82246 0.08937
  -5  -3  11    2.62    0.44   1-0.02114-0.21954-0.99617-0.53112 0.08479 0.81835
   5   3 -10    7.63    0.43   1-0.19442-0.00219-0.59506-0.99813 0.77980 0.06105
  -5  -3  10    8.53    0.43   1-0.01428-0.20601-0.99825-0.59553 0.05729 0.77646
  -5  -3  10    8.96    0.58   1-0.78514-0.97594-0.24114 0.15815-0.57043 0.15009
   5   3 -10    9.00    0.59   1-0.11401 0.07470 0.99001 0.58977-0.08283-0.80410
   5   3  -9    9.80    0.59   1-0.18197 0.00352-0.65895-0.99967 0.72984 0.02542
  -5  -3   9   10.09    0.56   1-0.00560-0.19066-0.99973-0.65934 0.02249 0.72725
  -5  -3   9   11.76    0.69   1-0.79549-0.97959-0.18203 0.15499-0.57796 0.12791
   5   3  -9   11.72    0.66   1-0.04277 0.13937 0.99860 0.66064-0.03108-0.73764
   5   3  -8   20.66    1.02   1-0.16753 0.01122-0.72140-0.99977 0.67194-0.01814
  -5  -3   8   20.63    0.98   1 0.00503-0.17306-0.99978-0.72156-0.02019 0.67036
  -5  -3   8   22.91    1.10   1-0.80374-0.98114-0.11397 0.16077-0.58395 0.10728
   5   3  -8   24.11    1.19   1 0.05411 0.22969 0.99776 0.72209 0.03931-0.65254
   5   3  -7   30.33    1.24   1-0.15099 0.02103-0.78129-0.99731 0.60562-0.07013
  -5  -3   7   31.34    1.20   1 0.01778-0.15365-0.99729-0.78139-0.07132 0.60482
  -5  -3   7   31.20    1.29   1-0.80863-0.97932-0.03087 0.18160-0.58750 0.08908
   5   3  -6   43.69    1.50   1-0.13230 0.03299-0.83719-0.99086 0.53065-0.13075
  -5  -3   6   43.92    1.45   1 0.03269-0.13208-0.99082-0.83724-0.13111 0.53062
  -5  -3   6   46.20    1.51   1-0.33601-0.49972-0.90967-0.75880-0.24412 0.41771
  -5  -3   6   43.57    1.58   1-0.80651-0.97051 0.07855 0.22876-0.58596 0.07597
   5   3  -5   27.21    0.99   1-0.11144 0.04691-0.88757-0.97863 0.44696-0.20020
  -5  -3   5   26.12    0.93   1 0.04969-0.10841-0.97867-0.88742-0.19930 0.44803
  -5  -3   5   29.04    0.99   1-0.49756-0.65456-0.78851-0.69991-0.36149 0.28576
  -5  -3   5   25.92    1.04   1-0.78501-0.94088 0.24179 0.32982-0.57034 0.07720
   5   3  -4   12.51    0.63   1-0.08879 0.06288-0.93020-0.95891 0.35614-0.27662
  -5  -3   4   11.69    0.52   1 0.06856-0.08287-0.95899-0.93006-0.27499 0.35793
  -5  -3   4   12.97    0.53   1-0.63132-0.78160-0.62533-0.59900-0.45868 0.17401
  -5  -3   4   11.90    0.52   1-0.71956-0.86878 0.45707 0.48280-0.52279 0.11003
   5   3  -3   43.58    1.31   1-0.08925 0.05534 0.92945 0.96376 0.35796-0.26093
   5   3  -3   43.43    1.49   1-0.06471 0.08030-0.96355-0.92994 0.25954-0.35882
  -5  -3   3   44.22    1.31   1-0.71746-0.86135-0.46209-0.49870-0.52126 0.09672
  -5  -3   3   39.72    1.21   1-0.57462-0.71720 0.70392 0.66736-0.41749 0.20062
  -5  -3   2    8.00    0.39   1-0.76207-0.89926-0.33568-0.43457-0.55367 0.04966
  -5  -3   2    7.26    0.33   1-0.35813-0.49429 0.89667 0.79858-0.26020 0.34342
   5   3  -1   23.45    1.03   1-0.13160-0.00077 0.83908 0.99806 0.52784-0.06219
   5   3  -1   21.85    1.04   1-0.01482 0.11684-0.99812-0.83983 0.05946-0.53011
  -5  -3   1   23.98    0.89   1-0.78540-0.91589-0.23985-0.40101-0.57062 0.01806
  -5  -3   1   22.79    0.86   1-0.12097-0.25056 0.98875 0.82836-0.08789 0.50102
   5   3   0    8.04    1.08   1-0.15208-0.02813 0.77770 0.99901 0.60996 0.03436
   5   3   0    7.56    1.13   1 0.00931 0.13409-0.99925-0.77890-0.03734-0.61263
  -5  -3   0    8.99    0.45   1-0.79805-0.92184-0.16408-0.38752-0.57981-0.00577
   5   3   1    2.78    0.67   1-0.17108-0.05401 0.70703 0.99068 0.68616 0.12500
   5   3   1    2.77    0.59   1 0.03207 0.15020-0.99116-0.70849-0.12866-0.68954
  -5  -3  -1    2.95    0.35   1-0.80490-0.92199-0.10065-0.38635-0.58480-0.02540
   5   3   2    1.02    0.23   1-0.18804-0.07785 0.62915 0.97514 0.75418 0.20745
   5   3   2    0.92    0.26   1 0.05281 0.16427-0.97588-0.63089-0.21181-0.75828
   5   3   2    1.06    0.29   1-0.34578-0.23581-0.90405-0.55676-0.25123-0.79649
  -5  -3  -2    0.98    0.28   1-0.80819-0.91858-0.04494-0.39293-0.58719-0.04244
   5   3   3    4.56    0.30   1-0.20260-0.09930 0.54643 0.95475 0.81262 0.28032
   5   3   3    3.99    0.33   1 0.07115 0.17595-0.95576-0.54844-0.28539-0.81746
   5   3   3    4.16    0.29   1-0.42245-0.31920-0.85283-0.44327-0.30693-0.83762
  -5  -3  -3    3.65    0.46   1-0.80900-0.91269 0.00569-0.40455-0.58777-0.05767
  -5  -3  -4    0.26    0.22   1-0.08719-0.18361 0.93278 0.46213 0.34973 0.86759
   5   3   4    0.51    0.22   1-0.21473-0.11753 0.46054 0.93171 0.86126 0.34365
   5   3   4    0.39    0.21   1-0.47573-0.37919-0.80883-0.33700-0.34564-0.86176
  -5  -3  -4    0.34    0.30   1-0.80788-0.90487 0.05289-0.41963-0.58696-0.07151
  -5  -3  -5   24.54    1.15   1-0.10054-0.19008 0.90954 0.37656 0.40325 0.90668
   5   3   5   25.10    1.13   1-0.22429-0.13393 0.37476 0.90826 0.89958 0.39638
   5   3   5   23.68    1.12   1-0.51261-0.42280-0.77363-0.23953-0.37244-0.87399
  -5  -3  -5   25.06    1.27   1-0.80515-0.89543 0.09764-0.43715-0.58497-0.08417
  -5  -3  -6    2.46    0.29   1-0.11157-0.19423 0.88729 0.29197 0.44750 0.93649
   5   3   6    2.56    0.28   1-0.23152-0.14802 0.28997 0.88580 0.92860 0.43982
   5   3   6    2.21    0.28   1-0.53788-0.45478-0.74696-0.15060-0.39079-0.87777
  -5  -3  -6    2.30    0.37   1-0.80097-0.88456 0.14060-0.45647-0.58194-0.09579
  -5  -3  -7    4.74    0.43   1-0.12051-0.19628 0.86708 0.20943 0.48335 0.95791
   5   3   7    5.11    0.33   1-0.23667-0.16001 0.20722 0.86538 0.94923 0.47487
   5   3   7    4.53    0.35   1-0.55472-0.47834-0.72790-0.06927-0.40302-0.87543
  -5  -3  -7    5.28    0.55   1-0.79547-0.87235 0.18221-0.47713-0.57794-0.10644
  -5  -3  -8   23.53    1.01   1-0.12760-0.19649 0.84958 0.12960 0.51177 0.97190
   5   3   8   25.22    0.62   1-0.23995-0.17014 0.12719 0.84768 0.96241 0.50247
   5   3   8   23.04    1.00   1-0.56526-0.49560-0.71540 0.00549-0.41069-0.86852
  -5  -3  -8   24.82    0.71   1-0.78868-0.85887 0.22277-0.49884-0.57301-0.11615
  -5  -3  -9    2.82    0.34   1-0.13305-0.19506 0.83515 0.05283 0.53367 0.97936
   5   3   9    3.25    0.33   1-0.24161-0.17865 0.05023 0.83305 0.96907 0.52354
   5   3   9    2.98    0.46   1-0.57096-0.50802-0.70845 0.07471-0.41483-0.85809
  -5  -3  -9    2.98    0.51   1-0.78075-0.84357 0.26200-0.52209-0.56725-0.12573
   5   4 -11   13.66    0.75   1-0.20148-0.05930-0.55348-0.99791 0.80811 0.02551
  -5  -4  11   14.54    0.69   1-0.00869-0.15034-0.99935-0.55529 0.03488 0.81795
   5   4 -10    5.42    0.39   1-0.19049-0.05504-0.61640-0.99847 0.76404-0.00422
  -5  -4  10    5.77    0.48   1-0.00132-0.13599-0.99998-0.61809 0.00532 0.77424
  -5  -4  10    5.94    0.55   1-0.80574-0.93962-0.08979 0.28817-0.58541 0.18454
   5   4 -10    5.94    0.60   1-0.00359 0.12816 0.99998 0.62114-0.00261-0.77314
   5   4  -9   15.28    0.83   1-0.17777-0.04906-0.67823-0.99795 0.71302-0.04091
  -5  -4   9   15.60    0.81   1 0.00776-0.12023-0.99948-0.67992-0.03115 0.72336
  -5  -4   9   16.46    0.93   1-0.80899-0.93617-0.00665 0.30904-0.58777 0.16753
   5   4  -8    6.28    0.39   1-0.16320-0.04122-0.73815-0.99552 0.65459-0.08500
  -5  -4   8    6.22    0.45   1 0.01872-0.10261-0.99699-0.73975-0.07510 0.66500
  -5  -4   8    6.15    0.53   1-0.80572-0.92619 0.09016 0.34358-0.58539 0.15526
   5   4  -7    2.51    0.31   1-0.14672-0.03147-0.79507-0.99010 0.58849-0.13677
  -5  -4   7    2.73    0.31   1 0.03161-0.08306-0.99142-0.79650-0.12679 0.59890
  -5  -4   7    2.83    0.31   1-0.79176-0.90553 0.20542 0.39657-0.57524 0.15075
   5   4  -6    6.05    0.38   1-0.12833-0.01982-0.84768-0.98036 0.51473-0.19619
  -5  -4   6    6.02    0.36   1 0.04642-0.06158-0.98141-0.84881-0.18619 0.52508
  -5  -4   6    6.74    0.35   1-0.37011-0.47688-0.88921-0.75951-0.26890 0.44239
  -5  -4   6    6.04    0.38   1-0.75821-0.86371 0.34879 0.47770-0.55087 0.16061
   5   4  -5    1.69    0.28   1-0.10807-0.00646-0.89466-0.96472 0.43347-0.26319
  -5  -4   5    1.43    0.35   1 0.06303-0.03831-0.96545-0.89517-0.25282 0.44405
  -5  -4   5    1.75    0.23   1-0.48221-0.58227-0.80294-0.73551-0.35034 0.34637
  -5  -4   5    1.64    0.28   1-0.69650-0.79536 0.50872 0.57534-0.50604 0.19073
   5   4  -4    0.90    0.26   1-0.08635 0.00858-0.93412-0.94184 0.34634-0.33592
  -5  -4   4    1.08    0.24   1-0.58029-0.67363-0.69677-0.69161-0.42161 0.26054
  -5  -4   4    0.88    0.19   1-0.59452-0.68673 0.67819 0.68252-0.43195 0.25010
   5   4  -3    0.68    0.32   1-0.10081-0.01307 0.90902 0.96441 0.40435-0.26405
  -5  -4   3    0.40    0.24   1-0.65656-0.74318-0.58426-0.64137-0.47702 0.19055
  -5  -4   3    0.42    0.18   1-0.45044-0.53601 0.83065 0.77268-0.32727 0.34007
   5   4  -2   10.04    0.69   1-0.12060-0.03974 0.86687 0.98459 0.48372-0.17026
   5   4  -2    9.18    0.74   1-0.04009 0.04149-0.98616-0.86922 0.16081-0.49266
  -5  -4   2   10.09    0.40   1-0.71208-0.79235-0.47462-0.59483-0.51736 0.13539
  -5  -4   2    9.06    0.42   1-0.28192-0.36111 0.93731 0.81782-0.20482 0.44806
  -5  -4   1    3.61    0.28   1-0.74877-0.82234-0.37866-0.56116-0.54401 0.09409
  -5  -4   1    3.26    0.29   1-0.10912-0.18175 0.99086 0.80907-0.07928 0.55890
   5   4   0   26.51    1.33   1-0.15911-0.09201 0.75327 0.99567 0.63816 0.01304
   5   4   0   25.03    1.43   1 0.00568 0.07370-0.99972-0.75839-0.02278-0.64761
  -5  -4   0   25.20    0.90   1-0.77322-0.84009-0.29416-0.53892-0.56177 0.06168
  -5  -4   0   23.29    0.87   1 0.04490-0.02115 0.99845 0.75437 0.03262 0.65610
   5   4   1   22.56    1.09   1-0.17654-0.11633 0.68369 0.98842 0.70809 0.09741
   5   4   1   21.54    1.20   1 0.02688 0.08825-0.99380-0.69015-0.10783-0.71825
  -5  -4  -1   21.59    0.83   1-0.78930-0.84947-0.21941-0.52644-0.57346 0.03535
   5   4   2   21.21    0.80   1-0.19210-0.13877 0.60781 0.97487 0.77049 0.17424
   5   4   2   19.82    0.79   1 0.04626 0.10096-0.98154-0.61556-0.18557-0.78158
  -5  -4  -2   20.58    0.83   1-0.79957-0.85303-0.15237-0.52168-0.58092 0.01324
   5   4   3   19.17    0.79   1-0.20550-0.15905 0.52764 0.95704 0.82423 0.24241
   5   4   3   17.50    0.81   1 0.06353 0.11157-0.96489-0.53660-0.25481-0.83642
   5   4   3   17.18    0.81   1-0.34185-0.29554-0.90634-0.47561-0.24836-0.82851
  -5  -4  -3   16.78    0.82   1-0.80564-0.85240-0.09126-0.52284-0.58533-0.00581
   5   4   4   17.21    0.83   1-0.21670-0.17631 0.44457 0.93686 0.86913 0.30199
   5   4   4   15.30    0.78   1 0.07855 0.11993-0.94580-0.45519-0.31508-0.88227
   5   4   4   15.77    0.82   1-0.39684-0.35725-0.87142-0.37843-0.28832-0.85390
  -5  -4  -4   15.87    0.85   1-0.80852-0.84859-0.03470-0.52856-0.58743-0.02256
  -5  -4  -5    8.39    0.49   1-0.09152-0.12421 0.92566 0.37160 0.36710 0.92004
   5   4   5    8.67    0.49   1-0.22556-0.19202 0.36148 0.91610 0.90468 0.35196
   5   4   5    8.17    0.48   1-0.43725-0.40437-0.84136-0.28610-0.31768-0.86869
  -5  -4  -5    7.89    0.49   1-0.80888-0.84224 0.01834-0.53779-0.58768-0.03746
  -5  -4  -6    7.96    0.55   1-0.10220-0.12800 0.90637 0.28997 0.40992 0.94843
   5   4   6    8.23    0.49   1-0.23230-0.20561 0.27911 0.89606 0.93173 0.39343
   5   4   6    7.44    0.54   1-0.46651-0.44036-0.81699-0.19946-0.33894-0.87538
  -5  -4  -6    6.93    0.48   1-0.80710-0.83377 0.06864-0.54976-0.58639-0.05082
  -5  -4  -7   20.51    0.89   1-0.11094-0.12986 0.88863 0.20990 0.44498 0.96905
   5   4   7   21.11    0.90   1-0.23711-0.21726 0.19841 0.87770 0.95100 0.42712
   5   4   7   18.87    0.84   1-0.48722-0.46779-0.79830-0.11851-0.35399-0.87585
  -5  -4  -7   18.79    0.90   1-0.80348-0.82344 0.11677-0.56390-0.58376-0.06284
  -5  -4  -8    4.80    0.37   1-0.11794-0.12997 0.87310 0.13203 0.47304 0.98268
   5   4   8    4.86    0.35   1-0.24017-0.22717 0.12003 0.86165 0.96328 0.45381
   5   4   8    3.65    0.36   1-0.50126-0.48854-0.78491-0.04285-0.36419-0.87148
  -5  -4  -8    4.93    0.53   1-0.79817-0.81143 0.16316-0.57978-0.57990-0.07363
   5   5 -10    2.41    0.34   1-0.18771-0.10904-0.63083-0.99191 0.75287-0.06491
  -5  -5  10    2.44    0.34   1 0.01270-0.06520-0.99861-0.63771-0.05095 0.76750
  -5  -5  10    1.23    0.32   1-0.80805-0.88485 0.04885 0.40478-0.58708 0.23063
   5   5  -9    2.20    0.33   1-0.17493-0.10300-0.69072-0.98945 0.70163-0.10181
  -5  -5   9    2.39    0.42   1 0.02215-0.04908-0.99579-0.69721-0.08887 0.71518
  -5  -5   9    2.22    0.38   1-0.80063-0.87088 0.14359 0.43796-0.58169 0.22302
   5   5  -8    5.57    0.38   1-0.16046-0.09526-0.74837-0.98475 0.64357-0.14554
  -5  -5   8    5.94    0.38   1 0.03334-0.03123-0.99045-0.75419-0.13373 0.65591
  -5  -5   8    5.72    0.48   1-0.78192-0.84369 0.25664 0.48873-0.56809 0.22204
   5   5  -7   11.04    0.61   1-0.14425-0.08578-0.80276-0.97680 0.57857-0.19620
  -5  -5   7   11.35    0.60   1 0.04627-0.01163-0.98153-0.80759-0.18561 0.58962
  -5  -5   7   12.39    0.63   1-0.31450-0.37105-0.92134-0.75053-0.22850 0.54681
  -5  -5   7   11.04    0.58   1-0.74908-0.80421 0.37772 0.54752-0.54424 0.23119
   5   5  -6   26.17    1.21   1-0.12636-0.07462-0.85273-0.96442 0.50682-0.25362
  -5  -5   6   25.18    1.18   1 0.06089 0.00964-0.96780-0.85618-0.24424 0.51658
  -5  -5   6   28.34    1.28   1-0.40236-0.45219-0.86755-0.75901-0.29233 0.46841
  -5  -5   6   26.10    1.21   1-0.69624-0.74472 0.50927 0.61678-0.50585 0.25486
   5   5  -5   18.48    0.92   1-0.10686-0.06200-0.89714-0.94621 0.42862-0.31755
  -5  -5   5   18.77    0.91   1 0.07703 0.03244-0.94795-0.89865-0.30895 0.43746
  -5  -5   5   20.76    0.97   1-0.48793-0.53104-0.79765-0.75138-0.35450 0.39167
  -5  -5   5   18.70    0.91   1-0.61841-0.66025 0.64474 0.68995-0.44930 0.29669
   5   5  -4   29.06    1.15   1-0.09478-0.05701 0.92004 0.93418 0.38016-0.35220
   5   5  -4   28.09    1.37   1-0.08616-0.04797-0.93442-0.92116 0.34557-0.38620
  -5  -5   4   31.40    1.19   1-0.56521-0.60160-0.71547-0.73147-0.41065 0.32095
  -5  -5   4   27.67    1.08   1-0.51391-0.54910 0.77232 0.75524-0.37337 0.35790
   5   5  -3   26.05    1.25   1-0.11295-0.08207 0.88430 0.96077 0.45303-0.26489
   5   5  -3   26.32    1.97   1-0.06456-0.03305-0.96372-0.88812 0.25897-0.45840
  -5  -5   3   28.12    1.08   1-0.63028-0.65995-0.62693-0.70520-0.45792 0.25910
  -5  -5   3   25.61    1.02   1-0.38930-0.41811 0.87660 0.79800-0.28284 0.43401
   5   5  -2    6.98    1.26   1-0.13140-0.10740 0.83962 0.97842 0.52703-0.17646
  -5  -5   2   12.45    0.59   1-0.68206-0.70502-0.53778-0.67832-0.49555 0.20691
  -5  -5   2   11.41    0.57   1-0.25163-0.27388 0.95039 0.80949-0.18282 0.51932
   5   5  -1   33.91    1.44   1-0.14955-0.13243 0.78602 0.98716 0.59982-0.08923
   5   5  -1   35.18    1.59   1-0.02078-0.00261-0.99630-0.79604 0.08334-0.60523
  -5  -5   1   34.00    1.28   1-0.72259-0.73923-0.44971-0.65353-0.52499 0.16253
  -5  -5   1   32.45    1.25   1-0.11566-0.13133 0.98972 0.78653-0.08403 0.60341
   5   5   0    7.21    1.99   1 0.00016 0.01143-1.00000-0.73769-0.00066-0.67504
  -5  -5   0    2.24    0.28   1-0.75185-0.76179-0.36922-0.63531-0.54625 0.12662
  -5  -5   0    2.07    0.37   1 0.00812-0.00097 0.99994 0.73446 0.00590 0.67864
   5   5   1   18.96    0.80   1-0.18274-0.17939 0.65527 0.98108 0.73295 0.07275
   5   5   1   18.33    0.85   1 0.02000 0.02460-0.99657-0.67194-0.08022-0.74019
  -5  -5  -1   17.79    0.77   1-0.77315-0.77639-0.29444-0.62280-0.56172 0.09650
   5   5   2   11.65    0.67   1-0.19691-0.20044 0.58091 0.96906 0.78978 0.14401
   5   5   2   10.67    0.62   1 0.03820 0.03615-0.98744-0.60049-0.15325-0.79880
  -5  -5  -2   10.51    0.61   1-0.78826-0.78481-0.22502-0.61566-0.57270 0.07087
   5   5   3    0.82    0.34   1-0.20919-0.21877 0.50228 0.95336 0.83901 0.20794
   5   5   3    0.76    0.28   1 0.05453 0.04581-0.97426-0.52498-0.21872-0.84987
  -5  -5  -3    0.69    0.34   1-0.79855-0.78839-0.16031-0.61323-0.58018 0.04875
   5   5   4    1.10    0.35   1-0.21930-0.23573 0.42215 0.93557 0.87959 0.26293
   5   5   4    1.07    0.28   1 0.06885 0.05347-0.95863-0.44704-0.27617-0.89291
   5   5   4    1.11    0.27   1-0.32299-0.34035-0.91684-0.40268-0.23467-0.84970
  -5  -5  -4    1.20    0.39   1-0.80499-0.78813-0.09960-0.61479-0.58486 0.02942
   5   5   5    1.38    0.36   1-0.22738-0.25065 0.34143 0.91718 0.91198 0.30974
   5   5   5    1.30    0.28   1-0.36463-0.38870-0.89266-0.31624-0.26492-0.86538
  -5  -5  -5    1.29    0.36   1-0.80829-0.78473-0.04224-0.61970-0.58726 0.01237
  -5  -5  -6    0.56    0.27   1-0.09167-0.06062 0.92541 0.28793 0.36770 0.95573
   5   5   6    0.26    0.35   1-0.23351-0.26363 0.26128 0.89936 0.93658 0.34876
   5   5   6    0.34    0.33   1-0.39612-0.42691-0.87192-0.23323-0.28780-0.87369
  -5  -5  -6    0.42    0.44   1-0.80895-0.77869 0.01234-0.62739-0.58774-0.00275
  -5  -5  -7    7.85    0.54   1-0.10024-0.06230 0.91011 0.21029 0.40205 0.97565
   5   5   7    8.02    0.51   1-0.23785-0.27482 0.18255 0.88296 0.95398 0.38058
   5   5   7    7.07    0.40   1-0.41941-0.45692-0.85512-0.15415-0.30472-0.87604
  -5  -5  -7    7.06    0.52   1-0.80732-0.77036 0.06461-0.63739-0.58655-0.01621
   5   6  -9   14.03    0.69   1-0.17346-0.15831-0.69704-0.97478 0.69572-0.15724
  -5  -6   9   13.98    0.61   1 0.03743 0.02294-0.98795-0.71035-0.15012 0.70347
  -5  -6   9   14.60    0.72   1-0.77967-0.79108 0.26688 0.53986-0.56646 0.28762
   5   6  -8    7.78    0.44   1-0.15925-0.15083-0.75274-0.96814 0.63875-0.19988
  -5  -6   8    8.24    0.42   1 0.04874 0.04092-0.97948-0.76420-0.19551 0.64367
  -5  -6   8    8.82    0.53   1-0.29375-0.30007-0.93175-0.71984-0.21342 0.62592
  -5  -6   8    7.97    0.41   1-0.74973-0.75449 0.37574 0.58643-0.54471 0.29466
   5   6  -7   12.97    0.71   1-0.14349-0.14181-0.80508-0.95812 0.57553-0.24876
  -5  -6   7   13.40    0.77   1 0.06162 0.06046-0.96701-0.81405-0.24714 0.57763
  -5  -6   7   15.29    0.79   1-0.36285-0.36246-0.89377-0.74413-0.26363 0.56114
  -5  -6   7   13.27    0.74   1-0.70511-0.70323 0.49026 0.63866-0.51229 0.31236
   5   6  -6    6.71    0.40   1-0.12625-0.13129-0.85302-0.94371 0.50637-0.30359
  -5  -6   6    6.58    0.39   1 0.07594 0.08144-0.94945-0.85880-0.30459 0.50577
  -5  -6   6    7.23    0.47   1-0.43355-0.42643-0.84428-0.75691-0.31499 0.49521
  -5  -6   6    6.34    0.36   1-0.64318-0.63465 0.60658 0.69268-0.46730 0.34264
   5   6  -5    3.62    0.33   1-0.09190-0.10411 0.92502 0.89790 0.36862-0.42769
   5   6  -5    3.48    0.34   1-0.10761-0.11951-0.89560-0.92368 0.43163-0.36404
  -5  -6   5    4.19    0.33   1-0.50219-0.48836-0.78400-0.75890-0.36486 0.43076
  -5  -6   5    3.63    0.33   1-0.56277-0.54760 0.71840 0.74220-0.40888 0.38634
   5   6  -4    7.39    0.48   1-0.10842-0.12751 0.89393 0.92915 0.43488-0.34700
   5   6  -4    6.69    0.40   1-0.08797-0.10654-0.93153-0.89727 0.35286-0.42842
  -5  -6   4    7.42    0.50   1-0.56547-0.54492-0.71515-0.75232-0.41084 0.37022
  -5  -6   4    6.66    0.42   1-0.46543-0.44361 0.81793 0.77944-0.33816 0.44235
  -5  -6   3    0.57    0.34   1-0.62105-0.59378-0.64084-0.74028-0.45122 0.31526
  -5  -6   3    0.56    0.25   1-0.35769-0.32955 0.89694 0.79694-0.25988 0.50624
   5   6  -2   -0.12    0.27   1-0.04700-0.07891-0.98094-0.82202 0.18852-0.56396
  -5  -6   2    0.10    0.27   1-0.66792-0.63393-0.56425-0.72596-0.48527 0.26664
  -5  -6   2    0.12    0.25   1-0.24335-0.20864 0.95368 0.79138-0.17681 0.57460
  -5  -6   1    0.25    0.24   1-0.70712-0.66684-0.48583-0.71098-0.51375 0.22319
  -5  -6   1    0.22    0.32   1-0.13155-0.09026 0.98669 0.76209-0.09557 0.64113
   5   6   0    5.11    0.34   1-0.17503-0.22165 0.69032 0.97487 0.70201-0.02213
   5   6   0    4.93    0.38   1-0.00686-0.05212-0.99959-0.71600 0.02754-0.69614
  -5  -6   0    4.60    0.37   1-0.73731-0.69034-0.41158-0.69900-0.53569 0.18660
  -5  -6   0    4.30    0.36   1-0.02836 0.01949 0.99938 0.71250-0.02060 0.70139
   5   6   1    0.43    0.31   1-0.18945-0.24295 0.62185 0.96873 0.75987 0.05015
  -5  -6  -1    0.57    0.36   1-0.76074-0.70706-0.34027-0.68996-0.55271 0.15493
   5   6   2   13.57    0.68   1-0.20225-0.26263 0.54868 0.95790 0.81119 0.11591
   5   6   2   13.03    0.69   1 0.02877-0.03004-0.99290-0.58497-0.11539-0.81049
  -5  -6  -2   12.55    0.69   1-0.77846-0.71808-0.27222-0.68418-0.56558 0.12741
   5   6   3   10.96    0.61   1-0.21330-0.27969 0.47181 0.94402 0.85550 0.17490
   5   6   3   10.62    0.69   1 0.04425-0.02122-0.98312-0.51287-0.17751-0.85820
  -5  -6  -3   10.31    0.62   1-0.79142-0.72434-0.20740-0.68164-0.57500 0.10334
   5   6   4    8.00    0.39   1-0.22238-0.29562 0.39370 0.92824 0.89192 0.22575
   5   6   4    7.08    0.41   1 0.05795-0.01419-0.97088-0.43831-0.23242-0.89871
  -5  -6  -4    7.76    0.46   1-0.80039-0.72661-0.14559-0.68210-0.58152 0.08218
   5   6   5    7.84    0.39   1-0.22959-0.30968 0.31509 0.91196 0.92087 0.26910
   5   6   5    6.43    0.40   1 0.06982-0.00898-0.95744-0.36254-0.28004-0.93192
   5   6   5    6.83    0.40   1-0.29524-0.37626-0.93102-0.33343-0.21450-0.86443
  -5  -6  -5    7.03    0.57   1-0.80598-0.72550-0.08649-0.68528-0.58558 0.06347
   5   6   6    7.43    0.63   1-0.23503-0.32196 0.23696 0.89616 0.94265 0.30531
   5   6   6    6.64    0.59   1-0.32758-0.41531-0.91435-0.25449-0.23800-0.87335
  -5  -6  -6    6.79    0.66   1-0.80865-0.72147-0.02978-0.69084-0.58752 0.04688
   5   7  -8    1.00    0.31   1-0.15954-0.20790-0.75172-0.94611 0.63989-0.24826
  -5  -7   8    0.86    0.42   1 0.06479 0.11373-0.96346-0.76915-0.25988 0.62885
  -5  -7   8    1.17    0.45   1-0.34787-0.29725-0.90283-0.71208-0.25274 0.63606
  -5  -7   8    1.01    0.32   1-0.71821-0.66596 0.46030 0.64957-0.52181 0.36679
   5   7  -7    1.41    0.31   1-0.14435-0.19945-0.80245-0.93450 0.57898-0.29483
  -5  -7   7    1.50    0.31   1 0.07749 0.13309-0.94730-0.81532-0.31082 0.56350
  -5  -7   7    1.49    0.44   1-0.40559-0.34825-0.86524-0.73677-0.29468 0.57955
  -5  -7   7    1.55    0.34   1-0.66778-0.60889 0.56450 0.69148-0.48517 0.38871
   5   7  -6    2.39    0.32   1-0.09180-0.15398 0.92520 0.85683 0.36820-0.49206
   5   7  -6    2.41    0.33   1-0.12786-0.18968-0.84891-0.91861 0.51283-0.34665
  -5  -7   6    2.88    0.43   1-0.46398-0.39992-0.81919-0.75298-0.33710 0.52255
  -5  -7   6    2.55    0.31   1-0.60367-0.53813 0.66574 0.73042-0.43859 0.42057
   5   7  -5   10.53    0.57   1-0.10673-0.17579 0.89742 0.89138 0.42807-0.41776
   5   7  -5    9.51    0.84   1-0.11015-0.17880-0.89031-0.89740 0.44182-0.40336
  -5  -7   5   11.06    0.64   1-0.52074-0.44996-0.76530-0.76136-0.37834 0.46675
  -5  -7   5    9.83    0.56   1-0.52642-0.45423 0.75933 0.76173-0.38246 0.46198
   5   7  -4   19.48    1.24   1-0.12233-0.19828 0.86271 0.91901 0.49067-0.34073
   5   7  -4   19.43    1.11   1-0.09160-0.16692-0.92554-0.87029 0.36739-0.46338
  -5  -7   4   21.85    1.07   1-0.57380-0.49631-0.70494-0.76327-0.41689 0.41362
  -5  -7   4   19.45    0.95   1-0.43831-0.35947 0.84051 0.78061-0.31845 0.51128
   5   7  -3    9.05    1.52   1-0.13824-0.22107 0.82063 0.93926 0.55447-0.26249
   5   7  -3    5.16    1.01   1-0.07246-0.15445-0.95408-0.83650 0.29064-0.52574
  -5  -7   3    7.68    0.57   1-0.62165-0.53744-0.63995-0.76055-0.45166 0.36428
  -5  -7   3    7.12    0.48   1-0.34477-0.25967 0.90464 0.78324-0.25049 0.56489
   5   7  -2   11.31    1.16   1-0.05312-0.14179-0.97558-0.79567 0.21309-0.58889
  -5  -7   2   14.85    0.81   1-0.66344-0.57251-0.57227-0.75514-0.48202 0.31935
  -5  -7   2   13.69    0.74   1-0.24760-0.15593 0.95201 0.76831-0.17989 0.62078
   5   7  -1   21.61    1.49   1-0.16925-0.26584 0.71450 0.95780 0.67885-0.10925
   5   7  -1   17.94    1.23   1-0.03401-0.12935-0.99006-0.74782 0.13641-0.65117
  -5  -7   1   19.69    0.99   1-0.69990-0.60271-0.50154-0.74802-0.50851 0.27785
  -5  -7   1   18.44    0.93   1-0.15301-0.05476 0.98195 0.73596-0.11117 0.67480
   5   7   0    6.20    1.28   1-0.18352-0.28699 0.65155 0.95719 0.73606-0.03760
   5   7   0    6.63    1.07   1-0.01552-0.11753-0.99794-0.69336 0.06225-0.71094
  -5  -7   0    7.28    0.52   1-0.72916-0.62526-0.43320-0.74195-0.52976 0.24194
  -5  -7   0    7.50    0.60   1-0.06487 0.03994 0.99677 0.68849-0.04713 0.72413
   5   7   1   18.72    0.95   1-0.19649-0.30685 0.58335 0.95131 0.78809 0.02885
   5   7   1   18.16    1.05   1 0.00183-0.10708-0.99997-0.63338-0.00734-0.76639
  -5  -7  -1   17.22    0.82   1-0.75284-0.64225-0.36611-0.73714-0.54697 0.21009
  -5  -7  -1   16.02    0.77   1 0.01430 0.12568 0.99984 0.62926 0.01039 0.76695
   5   7   2    0.46    0.32   1-0.20799-0.32436 0.51067 0.94167 0.83423 0.08969
   5   7   2    0.46    0.38   1 0.01804-0.09753-0.99721-0.56830-0.07237-0.81701
  -5  -7  -2    0.62    0.29   1-0.77155-0.65425-0.30078-0.73408-0.56056 0.18185
   5   7   3   11.18    0.51   1-0.21774-0.34095 0.43577 0.92910 0.87331 0.14319
   5   7   3   10.03    0.53   1 0.03276-0.08947-0.99078-0.49955-0.13141-0.86164
  -5  -7  -3   10.27    0.55   1-0.78587-0.66187-0.23745-0.73302-0.57097 0.15679
   5   7   4    7.90    0.46   1-0.22575-0.35581 0.35942 0.91509 0.90545 0.18975
   5   7   4    6.88    0.61   1 0.04587-0.08303-0.98185-0.42830-0.18398-0.89981
  -5  -7  -4    6.79    0.70   1-0.79636-0.66566-0.17618-0.73402-0.57859 0.13453
   5   8  -6    8.72    0.51   1-0.10756-0.22660 0.89571 0.84842 0.43142-0.47836
   5   8  -6    8.84    0.53   1-0.13106-0.24967-0.84052-0.88922 0.52568-0.38332
  -5  -8   6    9.64    0.55   1-0.49379-0.37278-0.79212-0.74708-0.35876 0.55036
  -5  -8   6    8.17    0.56   1-0.57682-0.45426 0.70117 0.74445-0.41908 0.48931
   5   8  -5    8.34    0.63   1-0.12174-0.24766 0.86414 0.87918 0.48830-0.40705
   5   8  -5    8.25    0.55   1-0.11433-0.23973-0.88127-0.86737 0.45856-0.43611
  -5  -8   5    8.65    0.48   1-0.54164-0.41392-0.74280-0.76002-0.39352 0.50102
  -5  -8   5    7.85    0.46   1-0.50482-0.37562 0.78142 0.76241-0.36677 0.52691
   5   8  -4    4.26    0.76   1-0.13637-0.26917 0.82596 0.90334 0.54698-0.33394
   5   8  -4    4.51    0.69   1-0.09687-0.22894-0.91633-0.84009 0.38852-0.49175
  -5  -8   4    5.54    0.40   1-0.58685-0.45241-0.68833-0.76783-0.42637 0.45360
  -5  -8   4    4.67    0.38   1-0.42569-0.28984 0.85036 0.76905-0.30928 0.56968
   5   8  -3    2.83    0.52   1-0.15110-0.29078 0.78094 0.92065 0.60604-0.26044
   5   8  -3    3.11    0.55   1-0.07891-0.21765-0.94529-0.80672 0.31651-0.54937
  -5  -8   3    3.47    0.36   1-0.62834-0.48719-0.62989-0.77165-0.45652 0.40888
  -5  -8   3    3.50    0.47   1-0.34381-0.20175 0.90520 0.76239-0.24979 0.61485
   5   8  -2    3.76    0.48   1-0.16554-0.31211 0.72919 0.93124 0.66397-0.18807
   5   8  -2    6.10    0.83   1-0.06080-0.20622-0.96789-0.76699 0.24387-0.60761
  -5  -8   2    4.83    0.46   1-0.66543-0.51755-0.56873-0.77276-0.48346 0.36737
  -5  -8   2    4.29    0.39   1-0.25980-0.11117 0.94703 0.74193-0.18875 0.66118
   5   8  -1    1.83    0.75   1-0.04290-0.19499-0.98415-0.72091 0.17206-0.66502
  -5  -8   1    0.05    0.41   1-0.69873-0.54462-0.50402-0.77183-0.50766 0.32811
  -5  -8   1    0.22    0.33   1-0.17818-0.02297 0.97544 0.70805-0.12945 0.70578
   5   8   0   -0.16    0.26   1-0.19213-0.35247 0.60763 0.93434 0.77062-0.05255
  -5  -8   0    0.01    0.29   1-0.72619-0.56537-0.44076-0.77083-0.52761 0.29352
  -5  -8   0    0.04    0.33   1-0.10158 0.06018 0.99208 0.66240-0.07380 0.74672
   5   8   1    0.09    0.27   1-0.20368-0.37089 0.53958 0.92863 0.81691 0.00816
   5   8   1    0.19    0.31   1-0.00908-0.17452-0.99929-0.61139 0.03645-0.77184
  -5  -8  -1    0.30    0.30   1-0.74908-0.58156-0.37771-0.77007-0.54424 0.26224
  -5  -8  -1    0.05    0.33   1-0.03183 0.13650 0.99922 0.60724-0.02313 0.78269
   6 -10   0    0.12    0.33   1-0.44775 0.47479 0.83287 0.80984-0.32531-0.34456
   6 -10   1    0.03    0.31   1-0.49451 0.42139 0.79143 0.83070-0.35928-0.36381
   6 -10   2    1.09    0.32   1-0.53923 0.37002 0.74547 0.84703-0.39177-0.38159
   6 -10   3    4.51    0.60   1-0.58116 0.32145 0.69567 0.85953-0.42223-0.39733
   6  -9  -3    9.66    0.62   1-0.29866 0.58633 0.92936 0.74005-0.21699-0.32944
   6  -9  -2    9.05    0.61   1-0.35212 0.52630 0.90030 0.77329-0.25583-0.35357
   6  -9  -1    8.12    0.61   1-0.40619 0.46565 0.86481 0.80010-0.29511-0.37815
   6  -9   0    2.02    0.45   1-0.46040 0.40513 0.82227 0.82065-0.33450-0.40297
   6  -9   1   19.47    1.04   1-0.51126 0.34762 0.77499 0.83567-0.37145-0.42521
   6  -9   2    4.01    0.36   1-0.55882 0.29342 0.72310 0.84606-0.40600-0.44505
   6  -9   3    5.34    0.37   1-0.60230 0.24329 0.66763 0.85289-0.43760-0.46192
   6  -9   4    9.49    0.60   1-0.64128 0.19766 0.60964 0.85720-0.46592-0.47553
   6  -9   5    1.10    0.31   1-0.67562 0.15668 0.55008 0.85993-0.49086-0.48576
   6  -9   6    3.67    0.56   1-0.70536 0.12029 0.48972 0.86186-0.51247-0.49265
  -6   9  -6    4.02    0.40   1 0.04695-0.77890 0.99831 0.62698 0.03411 0.01421
   6  -8  -5    0.63    0.38   1-0.18526 0.65591 0.97342 0.68093-0.13460-0.32572
   6  -8  -4    7.80    0.55   1-0.24156 0.59304 0.95438 0.72418-0.17550-0.35192
   6  -8  -3   11.67    0.73   1-0.30143 0.52660 0.92799 0.76009-0.21900-0.38071
   6  -8  -2    5.85    0.45   1-0.36297 0.45849 0.89370 0.78809-0.26371-0.41071
   6  -8  -1    0.16    0.29   1-0.42528 0.38988 0.85068 0.80817-0.30898-0.44140
   6  -8   0   -0.16    0.27   1-0.48386 0.32466 0.80143 0.82121-0.35154-0.46924
   6  -8   1    0.34    0.26   1-0.53839 0.26348 0.74640 0.82848-0.39116-0.49415
   6  -8   2    0.00    0.25   1-0.58777 0.20745 0.68713 0.83151-0.42704-0.51531
   6  -8   3    0.36    0.26   1-0.63143 0.15714 0.62515 0.83182-0.45876-0.53232
   6  -8   4    1.56    0.29   1-0.66927 0.11265 0.56180 0.83076-0.48625-0.54509
   6  -8   5    5.10    0.46   1-0.70150 0.07378 0.49811 0.82937-0.50967-0.55379
  -6   8  -5    5.01    0.40   1 0.03513-0.74034 0.99905 0.66861 0.02552 0.06959
   6  -8   6   11.71    0.65   1-0.72852 0.04011 0.43483 0.82838-0.52930-0.55871
  -6   8  -6   12.57    0.67   1-0.02591-0.79481 0.99948 0.60675-0.01882 0.01053
   6  -8   7    6.71    0.41   1-0.75081 0.01118 0.37243 0.82828-0.54549-0.56019
  -6   8  -7    7.09    0.84   1-0.07808-0.84041 0.99533 0.54030-0.05673-0.04207
   6  -8   8   12.52    0.63   1-0.76884-0.01349 0.31119 0.82934-0.55859-0.55857
  -6   8  -8   14.31    0.71   1-0.12176-0.87752 0.98860 0.47129-0.08846-0.08851
   6  -7  -6    1.67    0.39   1-0.78645 0.00566-0.23451-0.56611-0.57139-0.82430
   6  -7  -6    2.00    0.43   1-0.11712 0.67366 0.98946 0.65608-0.08509-0.34018
  -6   7   5    3.30    0.40   1 0.06489-0.71981-0.96334-0.69378-0.26028-0.02304
   6  -7  -5    3.23    0.42   1-0.17835 0.60586 0.97539 0.70430-0.12958-0.36996
   6  -7  -4   14.72    0.95   1-0.09506 0.68388 0.91956 0.71234 0.38127 0.15770
   6  -7  -4   15.42    1.07   1-0.23612 0.54294-0.21756-0.42506 0.94705 0.72424
   6  -7  -4   18.11    1.07   1-0.24554 0.53210 0.95282 0.74403-0.17839-0.40408
   6  -7  -3    2.10    0.32   1-0.12903 0.64303 0.84588 0.70100 0.51751 0.30837
   6  -7  -3    2.00    0.35   1-0.23157 0.54069-0.28935-0.43450 0.92878 0.72031
   6  -7  -3    2.31    0.33   1-0.31633 0.45474 0.92038 0.77388-0.22983-0.44080
   6  -7  -2    0.11    0.24   1-0.16470 0.60047 0.73244 0.64989 0.66060 0.46590
   6  -7  -2    0.09    0.28   1-0.22426 0.54120-0.37501-0.45780 0.89948 0.70534
   6  -7  -2    0.06    0.28   1-0.38773 0.37677 0.87766 0.79346-0.28170-0.47797
   6  -7  -1   19.93    1.36   1-0.19730 0.56099 0.57867 0.55846 0.79133 0.61106
   6  -7  -1   20.26    1.37   1-0.21203 0.54646-0.48146-0.50183 0.85042 0.67047
   6  -7  -1   22.07    1.36   1-0.45789 0.30025 0.82441 0.80331-0.33268-0.51433
   6  -7   0   10.11    0.89   1-0.22187 0.52987 0.39854 0.44083 0.88990 0.72449
   6  -7   0   10.12    0.79   1-0.19179 0.55997-0.60949-0.56750 0.76924 0.60362
   6  -7   0   10.94    0.79   1-0.52149 0.23001 0.76451 0.80571-0.37888-0.54582
   6  -7   1   15.43    1.16   1-0.23556 0.50934 0.22767 0.33229 0.94481 0.79382
   6  -7   1   16.10    1.07   1-0.15987 0.58516-0.75050-0.64617 0.64123 0.48994
   6  -7   1   16.54    0.96   1-0.57820 0.16666 0.69943 0.80292-0.42008-0.57230
   6  -7   2    5.40    0.61   1-0.24103 0.49702 0.08564 0.25259 0.96673 0.83015
   6  -7   2    5.69    0.56   1-0.11606 0.62215-0.87740-0.71050 0.46549 0.32879
   6  -7   2    5.79    0.36   1-0.62724 0.11096 0.63156 0.79735-0.45572-0.59322
   6  -7   3   28.00    1.45   1-0.24185 0.48959-0.02421 0.20476 0.97001 0.84756
   6  -7   3   27.79    1.58   1-0.06613 0.66540-0.96190-0.73266 0.26526 0.14296
   6  -7   3   26.99    1.30   1-0.66867 0.06289 0.56289 0.79097-0.48582-0.60860
   6  -7   4    9.10    0.58   1-0.24042 0.48421-0.11109 0.18023 0.96428 0.85618
   6  -7   4    8.86    0.60   1-0.01748 0.70738-0.99738-0.70581 0.07011-0.03779
   6  -7   4    8.63    0.56   1-0.70302 0.02189 0.49482 0.78520-0.51077-0.61884
  -6   7  -4    8.83    0.54   1 0.03297-0.69210 0.99916 0.70962 0.02396 0.13199
   6  -7   5   10.22    0.67   1-0.23788 0.47995-0.18197 0.17171 0.95409 0.86032
   6  -7   5   10.16    0.63   1 0.02482 0.74289-0.99472-0.64107-0.09955-0.19270
   6  -7   5    9.39    0.61   1-0.73108-0.01280 0.42823 0.78090-0.53116-0.62451
  -6   7  -5   10.10    0.60   1-0.04148-0.75999 0.99868 0.64684-0.03013 0.06319
   6  -7   6   14.00    0.80   1-0.23471 0.47632-0.24233 0.17370 0.94137 0.86194
   6  -7   6   13.97    0.80   1 0.05909 0.77050-0.96970-0.55373-0.23702-0.31575
   6  -7   6   12.81    0.71   1-0.75365-0.04202 0.36356 0.77852-0.54756-0.62620
  -6   7  -6   14.13    0.77   1-0.10444-0.81638 0.99163 0.57749-0.07587 0.00274
   6  -7   7    2.21    0.37   1-0.23110 0.47312-0.29562 0.18276 0.92692 0.86183
   6  -7   7    1.91    0.32   1-0.77150-0.06652 0.30096 0.77822-0.56053-0.62445
  -6   7  -8    6.77    0.41   1-0.10647-0.80282 0.89793 0.35714 0.42704 0.47740
   6  -7   8    6.65    0.70   1-0.22715 0.47027-0.34401 0.19673 0.91107 0.86031
   6  -7   8    5.74    0.71   1-0.78529-0.08695 0.24041 0.77996-0.57054-0.61975
  -6   7  -8    6.74    0.67   1-0.19868-0.89748 0.96937 0.43065-0.14435-0.09513
  -6   7  -9    0.68    0.47   1-0.12152-0.81099 0.86467 0.26154 0.48741 0.52333
   6  -7   9    0.59    0.37   1-0.22288 0.46774-0.38886 0.21423 0.89392 0.85750
  -6   7  -9    0.67    0.35   1-0.23221-0.92444 0.95792 0.35690-0.16871-0.13420
   6  -6  -7   12.17    0.77   1-0.23640 0.50627-0.21235-0.58587 0.94816 0.63280
  -6   6   7   13.61    0.62   1 0.01062-0.73065-0.99903-0.62580-0.04262 0.27297
   6  -6  -7   10.97    0.79   1-0.80801-0.06611-0.04976-0.42230-0.58705-0.90403
   6  -6  -7   12.16    0.72   1-0.04181 0.69859 0.99866 0.62438-0.03038-0.34944
   6  -6  -6   10.56    0.74   1-0.23229 0.50358-0.27932-0.59049 0.93167 0.63064
  -6   6   6   11.68    0.62   1 0.02817-0.70644-0.99319-0.68228-0.11298 0.18819
   6  -6  -6   10.11    0.78   1-0.79928-0.06408-0.15461-0.46488-0.58071-0.88305
   6  -6  -6   11.49    0.70   1-0.10730 0.62653 0.99116 0.67918-0.07795-0.38231
   6  -6  -5   15.54    1.06   1-0.22642 0.50264-0.35213-0.60094 0.90814 0.62146
  -6   6   5   16.95    0.82   1 0.04990-0.67804-0.97848-0.72990-0.20017 0.08660
   6  -6  -5   14.11    1.00   1-0.77883-0.05033-0.27059-0.51858-0.56585-0.85354
   6  -6  -5   16.87    0.97   1-0.18251 0.54475 0.97422 0.72453-0.13260-0.42225
   6  -6  -4    7.62    0.68   1-0.21816 0.50410-0.43214-0.61860 0.87501 0.60266
  -6   6   4    8.13    0.41   1 0.07593-0.64535-0.94946-0.76320-0.30453-0.03216
   6  -6  -4    7.35    0.55   1-0.74261-0.02081-0.39675-0.58248-0.53954-0.81257
   6  -6  -4    7.20    0.52   1-0.26488 0.45580 0.94487 0.75748-0.19245-0.46739
   6  -6  -3    1.83    0.30   1-0.10587 0.60933 0.89914 0.77534 0.42464 0.16598
   6  -6  -3    1.88    0.31   1-0.20646 0.50871-0.52119-0.64526 0.82808 0.56994
   6  -6  -3    1.60    0.34   1-0.35026 0.36386 0.90142 0.77631-0.25447-0.51471
   6  -6  -2   19.32    1.16   1-0.13744 0.57087 0.82292 0.76145 0.55127 0.30705
   6  -6  -2   17.74    1.07   1-0.19019 0.51825-0.61800-0.67973 0.76281 0.51901
   6  -6  -2   17.41    1.05   1-0.43506 0.27272 0.84309 0.78110-0.31609-0.56168
   6  -6  -1   28.32    1.56   1-0.16822 0.53321 0.71866 0.71953 0.67470 0.44491
   6  -6  -1   27.43    1.45   1-0.16773 0.53398-0.72060-0.71997 0.67275 0.44328
   6  -6  -1   24.63    1.43   1-0.51123 0.18990 0.77503 0.77534-0.37143-0.60231
   6  -6   0   10.83    0.61   1-0.19496 0.49959 0.59205 0.65525 0.78196 0.56660
   6  -6   0    9.62    1.56   1-0.13794 0.55704-0.82151-0.75853 0.55324 0.33811
   6  -6   0    9.82    0.72   1-0.57742 0.11707 0.70041 0.76302-0.41952-0.63568
   6  -6   1    0.11    0.21   1-0.21561 0.47247 0.45348 0.57922 0.86479 0.66427
   6  -6   1   -0.01    0.22   1-0.63255 0.05529 0.62342 0.74832-0.45958-0.66102
   6  -6   2    0.61    0.22   1-0.22920 0.45203 0.31994 0.50801 0.91929 0.73319
   6  -6   2    0.68    0.29   1-0.05956 0.62189-0.96921-0.78132 0.23889 0.05269
   6  -6   2    0.57    0.23   1-0.67714 0.00405 0.54720 0.73440-0.49197-0.67870
   6  -6   3    0.15    0.22   1-0.23711 0.43728 0.19840 0.44881 0.95100 0.77932
   6  -6   3    0.30    0.29   1-0.01772 0.65705-0.99731-0.74708 0.07110-0.10069
   6  -6   3    0.31    0.23   1-0.71252-0.03797 0.47361 0.72310-0.51768-0.68969
  -6   6  -3    0.18    0.25   1 0.04558-0.62911 0.99841 0.74975 0.03311 0.20512
   6  -6   4    0.20    0.30   1-0.24090 0.42664 0.09171 0.40445 0.96620 0.80894
   6  -6   4    0.23    0.35   1 0.02076 0.68873-0.99631-0.68400-0.08327-0.24037
   6  -6   4    0.09    0.24   1-0.74024-0.07233 0.40346 0.71524-0.53782-0.69511
  -6   6  -4    0.01    0.26   1-0.04782-0.71595 0.99825 0.68730-0.03474 0.12255
   6  -6   5    0.22    0.34   1-0.24192 0.41911 0.00002 0.37475 0.97029 0.82698
   6  -6   5    0.40    0.28   1 0.05371 0.71502-0.97504-0.60041-0.21542-0.35811
   6  -6   6    1.52    0.40   1-0.24112 0.41310-0.08090 0.35617 0.96711 0.83814
   6  -6   6    1.42    0.29   1-0.77812-0.12350 0.27370 0.71007-0.56533-0.69320
  -6   6  -6    1.50    0.31   1-0.18859-0.84358 0.97244 0.53691-0.13702-0.00913
  -6   6  -7    3.51    0.41   1-0.10203-0.74841 0.90670 0.40716 0.40922 0.52354
   6  -6   7    3.74    0.36   1-0.23909 0.40833-0.15246 0.34697 0.95895 0.84431
   6  -6   7    3.54    0.36   1-0.79022-0.14213 0.21426 0.71354-0.57413-0.68603
  -6   6  -7    3.70    0.36   1-0.23866-0.88708 0.95549 0.45767-0.17339-0.06021
  -6   6  -8    9.21    0.56   1-0.11819-0.75769 0.87252 0.31064 0.47405 0.57393
   6  -6   8    9.66    0.57   1-0.23617 0.40444-0.21667 0.34511 0.94724 0.84694
   6  -6   8    9.35    0.59   1-0.79903-0.15764 0.15660 0.71816-0.58053-0.67778
  -6   6  -8    9.68    0.65   1-0.27771-0.91956 0.93923 0.37911-0.20177-0.10329
  -6   6  -9    8.92    0.50   1-0.13040-0.76302 0.84227 0.21806 0.52303 0.60847
   6  -6   9    9.20    0.52   1-0.23258 0.40123-0.27514 0.34899 0.93284 0.84688
   6  -6   9    8.75    0.76   1-0.80486-0.17017 0.10119 0.72501-0.58476-0.66737
  -6   6  -9    9.82    0.56   1-0.30757-0.94285 0.92490 0.30249-0.22347-0.13969
   6  -5  -8    4.79    0.47   1-0.23223 0.46045-0.28020-0.69503 0.93142 0.55218
  -6   5   8    4.94    0.41   1-0.00777-0.69922-0.99948-0.58503 0.03119 0.41088
   6  -5  -7    3.56    0.50   1-0.22664 0.45922-0.34967-0.70215 0.90904 0.54413
  -6   5   7    3.71    0.36   1 0.00503-0.67948-0.99978-0.64753-0.02018 0.34495
   6  -5  -7    2.58    0.47   1-0.80688-0.12190 0.07259-0.27861-0.58623-0.95263
   6  -5  -7    3.45    0.42   1-0.02634 0.65710 0.99947 0.64659-0.01914-0.38746
   6  -5  -6    1.43    0.43   1-0.21915 0.45991-0.42348-0.71360 0.87899 0.52842
  -6   5   6    1.42    0.40   1 0.02133-0.65651-0.99610-0.70617-0.08558 0.26514
   6  -5  -6    1.04    0.34   1-0.80869-0.13041-0.02840-0.31734-0.58754-0.93930
   6  -5  -6    1.47    0.35   1-0.10931 0.56756 0.99082 0.70024-0.07942-0.43304
   6  -5  -5    1.97    0.41   1-0.20915 0.46270-0.50252-0.73029 0.83888 0.50256
  -6   5   5    2.12    0.39   1 0.04130-0.62988-0.98531-0.75770-0.16566 0.17065
   6  -5  -5    1.74    0.31   1-0.80019-0.12861-0.14731-0.37398-0.58137-0.91847
   6  -5  -5    2.08    0.41   1-0.20606 0.46424 0.96701 0.73872-0.14971-0.48863
   6  -5  -4    1.62    0.29   1-0.19607 0.46906-0.58577-0.75120 0.78639 0.46441
  -6   5   4    2.05    0.35   1 0.06496-0.59955-0.96326-0.79797-0.26057 0.06133
   6  -5  -4    1.60    0.27   1-0.77498-0.11010-0.28697-0.45137-0.56306-0.88551
   6  -5  -4    1.89    0.29   1-0.31158 0.35215 0.92285 0.75686-0.22638-0.55058
   6  -5  -3    7.90    0.51   1-0.09210 0.56623 0.92468 0.82196 0.36943 0.06125
   6  -5  -3    7.58    0.49   1-0.17899 0.47940-0.67271-0.77579 0.71792 0.41026
   6  -5  -3    6.83    0.47   1-0.72421-0.06603-0.44571-0.54783-0.52617-0.83397
   6  -5  -3    7.23    0.51   1-0.41720 0.23996 0.85677 0.75306-0.30311-0.61262
   6  -5  -2   36.27    1.75   1-0.12089 0.53057 0.86619 0.82580 0.48486 0.19112
   6  -5  -2   35.01    1.63   1-0.15707 0.49458-0.76053-0.80126 0.63001 0.33669
   6  -5  -2   32.91    1.62   1-0.51476 0.13600 0.77144 0.73087-0.37400-0.66882
   6  -5  -1    1.70    0.31   1-0.14972 0.49486 0.78548 0.80743 0.60050 0.32119
   6  -5  -1    1.75    0.27   1-0.12975 0.51517-0.84399-0.82237 0.52041 0.24143
   6  -5  -1    1.52    0.24   1-0.59385 0.05027 0.67909 0.70081-0.43146-0.71156
   6  -5   0    0.07    0.24   1-0.65498-0.01750 0.58696 0.67098-0.47587-0.74126
   6  -5   1   40.16    1.75   1-0.19861 0.43220 0.57095 0.71756 0.79659 0.54616
   6  -5   1   39.46    1.64   1-0.06087 0.57050-0.96782-0.82127 0.24415-0.00594
   6  -5   1   39.98    1.45   1-0.70046-0.06962 0.50035 0.64666-0.50891-0.75959
   6  -5   2    9.81    0.47   1-0.21594 0.40848 0.45082 0.66002 0.86609 0.63047
   6  -5   2    9.59    0.75   1-0.02345 0.60125-0.99528-0.78640 0.09406-0.14163
   6  -5   2    9.40    0.45   1-0.73380-0.10961 0.42105 0.62965-0.53314-0.76910
   6  -5   3   27.14    1.17   1-0.22794 0.38963 0.33501 0.60654 0.91422 0.69302
   6  -5   3   28.48    1.07   1 0.01235 0.63023-0.99869-0.72773-0.04953-0.27058
   6  -5   3   26.95    1.08   1-0.75819-0.14065 0.34883 0.61973-0.55086-0.77210
  -6   5  -3   27.88    1.01   1-0.03935-0.65710 0.99881 0.72876-0.02859 0.19267
   6  -5   4   11.10    0.60   1-0.23562 0.37511 0.22675 0.56062 0.94502 0.73823
   6  -5   4   11.04    0.62   1 0.04440 0.65561-0.98301-0.64972-0.17809-0.38473
   6  -5   4   10.80    0.45   1-0.77601-0.16512 0.28269 0.61588-0.56380-0.77033
  -6   5  -4   10.91    0.51   1-0.13897-0.75014 0.98513 0.65278-0.10097 0.10559
   6  -5   5   24.13    1.16   1-0.23993 0.36394 0.12792 0.52412 0.96232 0.76995
   6  -5   5   25.31    1.18   1 0.07155 0.67611-0.95525-0.55964-0.28700-0.47924
   6  -5   5   24.38    1.15   1-0.78868-0.18411 0.22278 0.61884-0.57301-0.76362
  -6   5  -5   24.83    1.18   1-0.21730-0.82190 0.96325 0.56861-0.15787 0.03398
  -6   5  -6   12.32    0.65   1-0.09412-0.69052 0.92121 0.46292 0.37750 0.55576
   6  -5   6   13.68    0.75   1-0.24174 0.35529 0.03855 0.49708 0.96957 0.79162
   6  -5   6   14.00    0.82   1-0.79788-0.20001 0.16533 0.62367-0.57969-0.75566
  -6   5  -6   13.15    0.75   1-0.27760-0.87563 0.93928 0.48235-0.20168-0.02453
  -6   5  -7   10.82    0.57   1-0.11163-0.70116 0.88716 0.36654 0.44774 0.61157
   6  -5   7   11.35    0.60   1-0.24171 0.34890-0.04114 0.47932 0.96947 0.80530
   6  -5   7   10.71    0.62   1-0.80401-0.21284 0.11102 0.63164-0.58415-0.74546
  -6   5  -7   11.56    0.62   1-0.32329-0.91475 0.91668 0.39745-0.23488-0.07243
  -6   5  -8   11.55    0.64   1-0.12521-0.70785 0.85563 0.27267 0.50221 0.65160
   6  -5   8   12.12    0.68   1-0.24033 0.34349-0.11453 0.46829 0.96390 0.81407
   6  -5   8   11.48    0.71   1-0.80759-0.22313 0.05922 0.64210-0.58675-0.73342
  -6   5  -8   13.13    0.74   1-0.35737-0.94226 0.89714 0.31562-0.25964-0.11190
  -6   5  -9    2.91    0.34   1-0.13555-0.71131 0.82827 0.18298 0.54367 0.67863
   6  -5   9    2.70    0.44   1-0.23789 0.33912-0.18170 0.46348 0.95414 0.81864
   6  -5   9    2.65    0.52   1-0.80898-0.23121 0.00940 0.65456-0.58775-0.71978
  -6   5  -9    3.48    0.40   1-0.38222-0.96054 0.88135 0.23754-0.27770-0.14466
  -6   5 -10    5.83    0.56   1-0.14326-0.71214 0.80578 0.09816 0.57461 0.69513
   6  -5  10    6.08    0.57   1-0.23463 0.33558-0.24367 0.46386 0.94104 0.81988
   6  -5  10    5.79    0.61   1-0.80840-0.23734-0.03881 0.66861-0.58734-0.70471
  -6   5 -10    6.13    0.72   1-0.39970-0.97145 0.86942 0.16332-0.29040-0.17206
   6  -4  -9    0.59    0.34   1-0.22920 0.41347-0.31992-0.77607 0.91929 0.47618
  -6   4   9    0.96    0.46   1-0.01918-0.66054-0.99685-0.54106 0.07692 0.52051
   6  -4  -8    1.17    0.33   1-0.22284 0.41303-0.38927-0.78306 0.89376 0.46498
  -6   4   8    1.16    0.31   1-0.00943-0.64412-0.99923-0.60578 0.03785 0.46704
   6  -4  -7    6.28    0.47   1-0.21459 0.41448-0.46170-0.79313 0.86068 0.44624
  -6   4   7    6.95    0.45   1 0.00290-0.62486-0.99992-0.66865-0.01163 0.40304
   6  -4  -6    9.75    0.68   1-0.20400 0.41781-0.53751-0.80664 0.81820 0.41803
  -6   4   6   10.95    0.64   1 0.01840-0.60268-0.99710-0.72815-0.07383 0.32644
   6  -4  -6    8.10    0.95   1-0.79671-0.17535 0.17372-0.09388-0.57884-0.98001
   6  -4  -6   10.19    0.78   1-0.13484 0.48507 0.98601 0.71682-0.09797-0.50085
   6  -4  -5   20.50    1.10   1-0.19064 0.42444-0.61563-0.82241 0.76462 0.37878
  -6   4   5   23.01    1.07   1 0.03717-0.57725-0.98812-0.78149-0.14911 0.23674
   6  -4  -5   20.84    1.34   1-0.27149 0.34185 0.94200 0.73511-0.19725-0.58543
   6  -4  -4   18.32    0.92   1-0.17389 0.43445-0.69521-0.83964 0.69745 0.32594
  -6   4   4   19.97    0.85   1 0.05919-0.54857-0.96959-0.82529-0.23743 0.13402
   6  -4  -4   18.18    1.19   1-0.41921 0.18756 0.85527 0.71067-0.30457-0.67805
   6  -4  -3   31.12    1.34   1-0.15321 0.44840-0.77390-0.85598 0.61449 0.25731
   6  -4  -3   24.17    1.62   1-0.78380-0.18254-0.24772-0.32851-0.56946-0.92668
   6  -4  -3   29.34    1.34   1-0.55536 0.04504 0.72715 0.64569-0.40349-0.76226
   6  -4  -2   10.59    0.51   1-0.11095 0.48365 0.88862 0.86932 0.44500 0.10175
   6  -4  -2    9.96    0.49   1-0.12824 0.46663-0.84791-0.86765 0.51437 0.17154
   6  -4  -2    8.69    0.76   1-0.70757-0.11301-0.48483-0.50335-0.51407-0.85665
   6  -4  -2    9.74    0.65   1-0.65246-0.05870 0.59124 0.57207-0.47404-0.81809
   6  -4  -1    4.37    0.29   1-0.71273-0.12562 0.47312 0.51625-0.51783-0.84717
   6  -4   0   32.66    1.23   1-0.16358 0.41726 0.73673 0.84209 0.65609 0.34171
   6  -4   0   29.60    1.76   1-0.06663 0.51467-0.96132-0.85611 0.26724-0.04675
   6  -4   0   30.41    1.08   1-0.74871-0.16824 0.37884 0.48426-0.54397-0.85859
   6  -4   1   35.79    2.04   1-0.18618 0.38778 0.63853 0.80623 0.74673 0.44678
   6  -4   1   39.24    1.34   1-0.03265 0.54197-0.99084-0.82330 0.13098-0.16862
   6  -4   1   38.68    1.33   1-0.77105-0.19723 0.30271 0.47043-0.56020-0.86010
   6  -4   2   16.35    0.86   1-0.20473 0.36234 0.53273 0.76276 0.82114 0.53562
   6  -4   2   15.77    0.96   1 0.00084 0.56863-0.99999-0.77037-0.00340-0.28841
   6  -4   2   15.61    0.69   1-0.78566-0.21849 0.23850 0.46851-0.57082-0.85600
  -6   4  -2   15.94    0.69   1-0.00354-0.57089 0.99998 0.77082-0.00257 0.28266
   6  -4   3    0.32    0.28   1-0.21910 0.34165 0.42395 0.71661 0.87878 0.60805
   6  -4   3    0.36    0.23   1 0.03202 0.59314-0.99120-0.69925-0.12842-0.39902
   6  -4   3    0.26    0.35   1-0.79515-0.23410 0.18434 0.47719-0.57771-0.84704
  -6   4  -3    0.34    0.31   1-0.13943-0.70021 0.98503 0.69358-0.10130 0.16923
   6  -4   4    2.51    0.26   1-0.22925 0.32466 0.31940 0.67439 0.91947 0.66316
   6  -4   4    2.53    0.34   1 0.05948 0.61394-0.96929-0.61503-0.23859-0.49478
   6  -4   4    2.47    0.32   1-0.80189-0.24754 0.13238 0.48750-0.58261-0.83729
  -6   4  -4    2.50    0.28   1-0.24109-0.79530 0.95456 0.60081-0.17516 0.08066
   6  -4   5    0.02    0.21   1-0.23596 0.31110 0.22054 0.63786 0.94640 0.70451
   6  -4   5   -0.08    0.40   1-0.80616-0.25851 0.08391 0.50131-0.58571-0.82574
  -6   4  -5    0.02    0.23   1-0.31552-0.86317 0.92080 0.50476-0.22924 0.01187
  -6   4  -6    0.12    0.31   1-0.10202-0.64157 0.90671 0.42735 0.40920 0.63698
   6  -4   6    0.32    0.23   1-0.23991 0.30030 0.12856 0.60821 0.96224 0.73477
   6  -4   6    0.17    0.30   1-0.80843-0.26748 0.03791 0.51758-0.58736-0.81274
  -6   4  -6    0.19    0.25   1-0.36945-0.91053 0.88963 0.41130-0.26842-0.04200
  -6   4  -7    0.10    0.24   1-0.11713-0.64980 0.87496 0.33326 0.46980 0.68314
   6  -4   7   -0.03    0.24   1-0.24169 0.29168 0.04359 0.58557 0.96937 0.75632
  -6   4  -8    0.66    0.27   1-0.12893-0.65472 0.84613 0.24209 0.51713 0.71605
   6  -4   8    0.78    0.27   1-0.24178 0.28523-0.03363 0.57023 0.96974 0.77037
  -6   4  -9    1.94    0.42   1-0.13797-0.65688 0.82140 0.15503 0.55340 0.73788
   6  -4   9    2.40    0.33   1-0.24055 0.27965-0.10610 0.56011 0.96481 0.77978
  -6   4  -9    2.22    0.86   1-0.45512-0.97577 0.82675 0.16067-0.33066-0.14849
  -6   4 -10    4.31    0.48   1-0.14474-0.65676 0.80125 0.07254 0.58055 0.75059
   6  -4  10    4.07    0.54   1-0.23825 0.27515-0.17339 0.55518 0.95559 0.78489
   6  -4  10    3.84    0.94   1-0.80189-0.28774-0.13243 0.59632-0.58260-0.74939
  -6   4 -10    4.06    1.20   1-0.46715-0.98116 0.81643 0.08806-0.33941-0.17195
   6  -3  -9    2.24    0.35   1-0.22076 0.36511-0.40893-0.84403 0.88545 0.39280
  -6   3   9    2.70    0.41   1-0.01818-0.60279-0.99717-0.56237 0.07292 0.56601
   6  -3  -8   20.83    1.16   1-0.21230 0.36677-0.47942-0.85217 0.85151 0.37319
  -6   3   8   24.72    1.16   1-0.00852-0.58646-0.99937-0.62691 0.03418 0.51287
   6  -3  -7    5.45    0.40   1-0.20171 0.37005-0.55208-0.86257 0.80901 0.34499
  -6   3   7    5.36    0.37   1 0.00355-0.56744-0.99989-0.68959-0.01427 0.44995
   6  -3  -6    8.92    0.60   1-0.18865 0.37637-0.62599-0.87413 0.75666 0.30697
  -6   3   6    9.38    0.60   1 0.01853-0.54579-0.99705-0.74908-0.07435 0.37546
   6  -3  -6    9.40    0.56   1-0.68837-0.12502 0.52535 0.27841-0.50013-0.95228
   6  -3  -6    9.48    0.66   1-0.22934 0.33363 0.95897 0.71119-0.16662-0.61878
   6  -3  -5    9.51    0.59   1-0.17270 0.38559-0.70026-0.88605 0.69267 0.25731
  -6   3   5   10.51    0.43   1 0.03645-0.52121-0.98858-0.80293-0.14621 0.28919
   6  -3  -4    2.61    0.34   1-0.15346 0.39810-0.77304-0.89648 0.61550 0.19448
  -6   3   4    2.65    0.28   1 0.05724-0.49376-0.97160-0.84827-0.22960 0.19139
   6  -3  -3    5.66    0.36   1-0.13069 0.41413-0.84150-0.90259 0.52420 0.11751
   6  -3  -1    9.96    1.15   1-0.13104 0.39982 0.84057 0.90468 0.52560 0.14726
   6  -3  -1    7.46    1.37   1-0.71730-0.18630-0.46246-0.39737-0.52115-0.89854
   6  -3  -1    7.06    1.61   1-0.80255-0.27155-0.12610-0.06101-0.58309-0.96048
   6  -3   0   37.93    1.46   1-0.15546 0.36852 0.76618 0.89262 0.62353 0.25963
   6  -3   0   35.94    1.44   1-0.04415 0.48040-0.98320-0.85700 0.17707-0.18642
   6  -3   0   32.41    1.40   1-0.80901-0.28477-0.00290 0.12444-0.58778-0.95048
   6  -3   1    0.91    0.24   1-0.01279 0.50508-0.99860-0.81006 0.05131-0.29779
   6  -3   1    0.84    0.30   1-0.80898-0.29145 0.00864 0.19827-0.58776-0.93581
   6  -3   2   -0.03    0.24   1-0.19649 0.31372 0.58333 0.83444 0.78810 0.45307
   6  -3   2    0.00    0.22   1 0.01728 0.52831-0.99744-0.74684-0.06932-0.40386
  -6   3  -2    0.05    0.20   1-0.11397-0.62437 0.99002 0.73946-0.08280 0.25169
   6  -3   3   44.02    1.40   1-0.21188 0.29206 0.48261 0.79640 0.84981 0.52957
   6  -3   3   43.47    1.43   1 0.04479 0.54916-0.98270-0.66978-0.17967-0.49981
   6  -3   3   39.26    1.34   1-0.80882-0.30469-0.02159 0.29257-0.58764-0.90639
  -6   3  -3   42.65    1.38   1-0.25670-0.76053 0.94832 0.63546-0.18651 0.13328
   6  -3   4    5.49    0.32   1-0.22345 0.27364 0.38318 0.75930 0.89623 0.59040
   6  -3   4    5.41    0.35   1 0.06887 0.56656-0.95862-0.58337-0.27622-0.58195
   6  -3   4    5.10    0.38   1-0.80815-0.31072-0.04614 0.33030-0.58715-0.89126
  -6   3  -4    5.38    0.37   1-0.35245-0.84971 0.90011 0.52496-0.25607 0.04902
  -6   3  -5   26.54    1.03   1-0.08955-0.57912 0.92896 0.49084 0.35917 0.65090
   6  -3   5   27.90    1.09   1-0.23175 0.25849 0.28679 0.72524 0.92953 0.63812
   6  -3   5   26.52    1.09   1-0.80682-0.31609-0.07357 0.36514-0.58619-0.87564
  -6   3  -5   27.54    1.07   1-0.41698-0.90767 0.85693 0.41949-0.30295-0.01256
  -6   3  -6   12.43    0.65   1-0.10624-0.58893 0.89841 0.39796 0.42611 0.70340
   6  -3   6   13.47    0.69   1-0.23727 0.24613 0.19510 0.69588 0.95164 0.67465
   6  -3   6   12.88    0.91   1-0.80472-0.32069-0.10291 0.39808-0.58466-0.85946
  -6   3  -6   13.40    0.99   1-0.46177-0.94535 0.82109 0.32049-0.33550-0.05994
  -6   3  -7   14.92    0.76   1-0.11963-0.59544 0.86917 0.30639 0.47981 0.74267
   6  -3   7   15.39    0.72   1-0.24048 0.23607 0.10884 0.67195 0.96453 0.70195
   6  -3   7   15.64    0.77   1-0.80176-0.32444-0.13357 0.42969-0.58251-0.84267
  -6   3  -7   15.94    0.78   1-0.49109-0.96802 0.79468 0.23178-0.35680-0.09596
  -6   3  -8   12.72    0.66   1-0.13016-0.59909 0.84291 0.21780 0.52205 0.77048
   6  -3   8   13.50    0.68   1-0.24182 0.22788 0.02811 0.65355 0.96991 0.72175
   6  -3   8   13.26    0.75   1-0.79790-0.32727-0.16520 0.46033-0.57970-0.82521
  -6   3  -8   13.96    0.76   1-0.51040-0.98068 0.77586 0.15067-0.37083-0.12471
  -6   3  -9    9.65    0.61   1-0.13828-0.60032 0.82054 0.13308 0.55460 0.78860
   6  -3   9    9.74    0.54   1-0.24166 0.22174-0.04612 0.64114 0.96926 0.73468
   6  -3   9    9.89    0.60   1-0.79306-0.32914-0.19758 0.49023-0.57619-0.80705
  -6   3  -9    9.36    0.77   1-0.52240-0.98603 0.76357 0.07608-0.37954-0.14814
  -6   3 -10    8.55    0.49   1-0.14437-0.59953 0.80240 0.05261 0.57905 0.79861
   6  -3  10    8.52    0.48   1-0.24026 0.21634-0.11675 0.63286 0.96366 0.74342
   6  -3  10    8.57    0.63   1-0.78722-0.32999-0.23056 0.51952-0.57194-0.78815
  -6   3 -10    7.17    0.86   1-0.52885-0.98584 0.75675 0.00697-0.38423-0.16754
   6  -2 -10   -0.00    0.44   1-0.22016 0.31572-0.41449-0.89091 0.88301 0.32648
  -6   2  10    0.00    0.43   1-0.02265-0.55718-0.99560-0.51946 0.09085 0.64784
   6  -2  -9    0.32    0.30   1-0.21180 0.31664-0.48319-0.89738 0.84950 0.30729
  -6   2   9    0.58    0.29   1-0.01511-0.54297-0.99804-0.58423 0.06060 0.60319
   6  -2  -8    0.09    0.27   1-0.20156 0.32015-0.55302-0.90487 0.80841 0.28053
  -6   2   8    0.39    0.27   1-0.00542-0.52660-0.99974-0.64827 0.02174 0.54993
   6  -2  -7    2.36    0.31   1-0.18911 0.32587-0.62363-0.91312 0.75849 0.24495
  -6   2   7    2.67    0.31   1 0.00654-0.50770-0.99963-0.71032-0.02624 0.48752
   6  -2  -6    0.84    0.26   1-0.17415 0.33409-0.69407-0.92122 0.69851 0.19930
  -6   2   6    0.78    0.49   1 0.02116-0.48641-0.99616-0.76917-0.08489 0.41446
   6  -2  -5    7.65    0.47   1-0.15640 0.34511-0.76289-0.92768 0.62732 0.14245
  -6   2   5    8.17    0.39   1 0.03844-0.46247-0.98729-0.82262-0.15418 0.33076
   6  -2  -4   17.11    0.73   1-0.13567 0.35911-0.82793-0.93038 0.54416 0.07362
  -6   2   4   17.65    0.71   1 0.05826-0.43599-0.97056-0.86821-0.23367 0.23687
   6  -2  -3   26.01    0.98   1-0.11181 0.37600-0.88677-0.92658 0.44846-0.00773
   6  -2  -2   23.68    1.64   1-0.10392 0.37696 0.90302 0.92587 0.41683-0.02545
   6  -2  -2   24.64    1.60   1-0.08544 0.39569-0.93554-0.91302 0.34271-0.09908
   6  -2  -1   41.98    1.57   1-0.12777 0.34623 0.84913 0.93432 0.51249 0.08463
   6  -2  -1   41.12    1.66   1-0.05713 0.41734-0.97171-0.88685 0.22914-0.19826
   6  -2   1    8.76    1.29   1-0.17223 0.28801 0.70222 0.91207 0.69081 0.29182
   6  -2   1    8.19    1.23   1 0.00084 0.46177-0.99999-0.79073-0.00337-0.40187
   6  -2   1   10.02    0.38   1-0.75136-0.29074-0.37075-0.15979-0.54589-0.94336
  -6   2  -1   10.23    0.42   1-0.01442-0.47443 0.99984 0.79016-0.01047 0.38800
   6  -2   2   37.34    1.17   1-0.19089 0.26247 0.61431 0.88650 0.76562 0.38107
   6  -2   2   36.96    1.16   1 0.02803 0.48230-0.99326-0.72168-0.11245-0.49654
   6  -2   2   34.51    1.07   1-0.77604-0.32213-0.28257-0.00934-0.56383-0.94664
  -6   2  -2   36.68    1.13   1-0.25551-0.70895 0.94881 0.67685-0.18564 0.19812
   6  -2   3   38.38    1.25   1-0.20641 0.24006 0.52151 0.85604 0.82789 0.45778
   6  -2   3   37.36    1.24   1 0.05265 0.50026-0.97602-0.64212-0.21119-0.58087
   6  -2   3   35.17    1.19   1-0.78374-0.33654-0.24798 0.08752-0.56942-0.93759
  -6   2  -3   37.02    1.21   1-0.38835-0.83522 0.87724 0.54299-0.28215 0.08690
   6  -2   4   16.77    0.69   1-0.21884 0.22143 0.42620 0.82344 0.87775 0.52240
   6  -2   4   15.37    0.66   1 0.07414 0.51508-0.95187-0.55565-0.29736-0.65263
   6  -2   4   15.59    0.66   1-0.78596-0.34546-0.23700 0.16077-0.57103-0.92455
  -6   2  -4   15.64    0.68   1-0.46860-0.90846 0.81516 0.41774-0.34046 0.01374
  -6   2  -5    1.44    0.25   1-0.09265-0.52537 0.92375 0.46455 0.37161 0.71285
   6  -2   5    1.26    0.31   1-0.22810 0.20533 0.33317 0.79274 0.91485 0.57392
  -6   2  -6    3.95    0.31   1-0.10766-0.53350 0.89551 0.37398 0.43180 0.75862
   6  -2   6    4.04    0.30   1-0.23465 0.19193 0.24319 0.76509 0.94116 0.61465
   6  -2   6    3.05    1.15   1-0.78351-0.35641-0.24908 0.27324-0.56926-0.89348
  -6   2  -6    3.91    0.56   1-0.54749-0.97405 0.73622 0.21420-0.39777-0.07299
  -6   2  -7    0.02    0.34   1-0.11978-0.53874 0.86880 0.28494 0.48043 0.79281
   6  -2   7   -0.03    0.23   1-0.23891 0.18083 0.15726 0.74150 0.95822 0.64612
  -6   2  -8    0.12    0.26   1-0.12938-0.54146 0.84495 0.19875 0.51894 0.81689
   6  -2   8    0.16    0.30   1-0.24122 0.17166 0.07583 0.72240 0.96750 0.66982
  -6   2  -9   -0.19    0.34   1-0.13682-0.54201 0.82468 0.11615 0.54878 0.83230
  -6   2 -10   -0.06    0.29   1-0.14243-0.54074 0.80830 0.03743 0.57127 0.84035
   6  -2  10   -0.03    0.28   1-0.24128 0.15851-0.07230 0.69835 0.96775 0.69797
   6  -1 -10    6.88    0.44   1-0.21271 0.26636-0.47628-0.93166 0.85317 0.24709
  -6   1  10    7.67    0.52   1-0.01795-0.49574-0.99724-0.54209 0.07202 0.67851
   6  -1  -9   13.15    0.72   1-0.20299 0.26867-0.54399-0.93719 0.81416 0.22243
  -6   1   9   15.08    0.72   1-0.01020-0.48131-0.99910-0.60629 0.04094 0.63304
   6  -1  -8   21.60    1.07   1-0.19131 0.27362-0.61204-0.94289 0.76733 0.18994
  -6   1   8   23.96    1.10   1-0.00049-0.46464-0.99999-0.66934 0.00200 0.57972
   6  -1  -7    5.80    0.38   1-0.17744 0.28075-0.67969-0.94819 0.71170 0.14864
  -6   1   7    6.03    0.37   1 0.01151-0.44597-0.99886-0.73053-0.04617 0.51713
   6  -1  -6   41.98    1.88   1-0.16116 0.29030-0.74578-0.95193 0.64640 0.09767
  -6   1   6   44.97    1.93   1 0.02588-0.42493-0.99425-0.78824-0.10382 0.44508
   6  -1  -5    6.30    0.37   1-0.14231 0.30242-0.80867-0.95247 0.57078 0.03639
  -6   1   5    7.12    0.44   1 0.04264-0.40151-0.98434-0.84064-0.17104 0.36345
   6  -1  -4   12.88    0.57   1-0.12072 0.31701-0.86658-0.94774 0.48420-0.03590
  -6   1   4   13.63    0.63   1 0.06165-0.37584-0.96698-0.88561-0.24726 0.27281
   6  -1  -3   22.13    0.86   1-0.09685 0.33421-0.91635-0.93517 0.38846-0.11723
   6  -1  -1   10.14    0.49   1-0.12735 0.28980 0.85023 0.95650 0.51077 0.03340
   6  -1  -1    9.99    0.64   1-0.04397 0.37374-0.98334-0.87749 0.17637-0.30053
   6  -1   1    8.26    0.89   1-0.16953 0.23386 0.71337 0.94431 0.67996 0.23145
   6  -1   1    8.05    0.76   1 0.00976 0.41393-0.99918-0.76894-0.03917-0.48721
   6  -1   1    8.93    0.38   1-0.57563-0.17230-0.70266-0.47045-0.41822-0.86543
  -6   1  -1    8.25    0.38   1-0.20124-0.60430 0.96856 0.73749-0.14621 0.30152
   6  -1   2   21.75    0.76   1-0.18760 0.20891 0.63138 0.92466 0.75243 0.31836
   6  -1   2   21.52    0.78   1 0.03451 0.43202-0.98977-0.69721-0.13842-0.57205
   6  -1   2   21.22    0.75   1-0.67976-0.28316-0.54222-0.24774-0.49387-0.92652
  -6   1  -2   21.11    0.74   1-0.42577-0.82190 0.85031 0.55606-0.30934 0.12353
   6  -1   3    0.45    0.21   1-0.20296 0.18666 0.54416 0.89977 0.81405 0.39442
   6  -1   3    0.33    0.24   1 0.05681 0.44765-0.97203-0.61715-0.22786-0.64708
   6  -1   3    0.38    0.18   1-0.71774-0.32746-0.46141-0.10458-0.52147-0.93905
  -6   1  -3    0.36    0.26   1-0.52380-0.91329 0.76209 0.40556-0.38056 0.03758
   6  -1   4    0.27    0.20   1-0.21559 0.16787 0.45362 0.87198 0.86472 0.45985
   6  -1   4    0.26    0.23   1 0.07628 0.46046-0.94898-0.53178-0.30594-0.71075
   6  -1   4    0.04    0.28   1-0.73434-0.35075-0.41962-0.00052-0.53353-0.93646
  -6   1  -5   24.18    0.95   1-0.09312-0.46898 0.92294 0.44266 0.37349 0.76426
   6  -1   5   26.65    1.03   1-0.22531 0.15130 0.36410 0.84480 0.90369 0.51323
   6  -1   5   24.09    0.98   1-0.74191-0.36503-0.39875 0.08262-0.53903-0.92732
  -6   1  -5   26.29    1.07   1-0.60583-0.98202 0.66274 0.18161-0.44016-0.05143
  -6   1  -6    2.94    0.29   1-0.10685-0.47583 0.89716 0.35455 0.42857 0.80490
   6  -1   6    3.21    0.29   1-0.23249 0.13728 0.27643 0.81946 0.93248 0.55645
   6  -1   6    2.97    0.30   1-0.74459-0.37441-0.39104 0.15260-0.54097-0.91461
  -6   1  -6    2.78    0.84   1-0.62285-0.99239 0.63817 0.09475-0.45252-0.07851
  -6   1  -7   17.45    0.79   1-0.11802-0.48012 0.87292 0.26797 0.47336 0.83526
   6  -1   7   19.19    0.85   1-0.23743 0.12549 0.19173 0.79709 0.95229 0.59067
   6  -1   7   17.40    0.80   1-0.74418-0.38070-0.39224 0.21368-0.54067-0.89967
  -6   1  -7   17.50    0.85   1-0.63192-0.99482 0.62439 0.01868-0.45912-0.09983
  -6   1  -8    9.37    0.56   1-0.12692-0.48214 0.85130 0.18402 0.50908 0.85654
   6  -1   8   10.16    0.58   1-0.24043 0.11564 0.11062 0.77830 0.96434 0.61714
   6  -1   8    9.77    0.58   1-0.74155-0.38477-0.39976 0.26842-0.53877-0.88311
  -6   1  -8    9.90    0.64   1-0.63562-0.99187 0.61864-0.04936-0.46180-0.11723
  -6   1  -9    7.43    0.41   1-0.13386-0.48220 0.83294 0.10333 0.53691 0.86994
   6  -1   9    7.50    0.39   1-0.24178 0.10744 0.03334 0.76336 0.96975 0.63697
   6  -1   9    7.33    0.45   1-0.73717-0.38709-0.41196 0.31850-0.53558-0.86528
  -6   1  -9    6.88    0.47   1-0.63540-0.98500 0.61898-0.11131-0.46164-0.13178
  -6   1 -10    8.38    0.59   1-0.13911-0.48056 0.81811 0.02616 0.55797 0.87656
   6  -1  10    8.88    0.50   1-0.24174 0.10126-0.03875 0.75294 0.96956 0.65024
   6  -1  10    8.79    0.59   1-0.73127-0.38789-0.42773 0.36501-0.53130-0.84634
  -6   1 -10    9.23    0.59   1-0.63214-0.97510 0.62406-0.16853-0.45927-0.14413
   6   0 -10    2.89    0.35   1-0.20558 0.21603-0.52709-0.96165 0.82456 0.16898
  -6   0  10    3.48    0.36   1-0.01166-0.43269-0.99883-0.56467 0.04679 0.70278
   6   0  -9    6.17    0.40   1-0.19476 0.22012-0.59317-0.96538 0.78115 0.13991
  -6   0   9    7.11    0.41   1-0.00373-0.41779-0.99988-0.62788 0.01499 0.65666
   6   0  -8    0.59    0.28   1-0.18200 0.22614-0.65876-0.96862 0.73000 0.10309
  -6   0   8    0.55    0.27   1 0.00618-0.40120-0.99967-0.68999-0.02481 0.60244
   6   0  -7    0.07    0.25   1-0.16714 0.23427-0.72293-0.97044 0.67038 0.05781
  -6   0   7    0.02    0.31   1 0.01819-0.38252-0.99716-0.74981-0.07298 0.53986
   6   0  -6    0.09    0.24   1-0.15004 0.24465-0.78444-0.96960 0.60177 0.00353
  -6   0   6    0.00    0.24   1 0.03237-0.36168-0.99100-0.80597-0.12984 0.46860
   6   0  -5    3.93    0.32   1-0.13064 0.25731-0.84165-0.96446 0.52397-0.05993
  -6   0   5    4.22    0.32   1 0.04869-0.33870-0.97953-0.85682-0.19528 0.38875
   6   0  -4    0.22    0.23   1-0.10891 0.27207-0.89291-0.95307 0.43685-0.13275
  -6   0   4    0.19    0.22   1 0.06697-0.31376-0.96091-0.90052-0.26861 0.30101
   6   0  -3    7.05    0.38   1-0.08716 0.28690 0.93283 0.93551 0.34960-0.20615
   6   0  -3    6.71    0.97   1-0.08540 0.28891-0.93561-0.93343 0.34254-0.21265
   6   0  -2   19.80    1.24   1-0.10803 0.25915 0.89475 0.95977 0.43328-0.10803
   6   0  -2   18.31    1.62   1-0.06048 0.30715-0.96823-0.90373 0.24260-0.29820
   6   0  -1   19.67    1.21   1-0.12916 0.23113 0.84553 0.97288 0.51806-0.00882
   6   0  -1   19.04    1.26   1-0.03488 0.32609-0.98955-0.86271 0.13989-0.38651
   6   0   0   20.05    1.45   1-0.14975 0.20366 0.78537 0.97506 0.60063 0.08817
   6   0   0   19.42    1.53   1-0.00942 0.34486-0.99923-0.81006 0.03782-0.47419
   6   0   1   36.94    1.68   1-0.16900 0.17753 0.71552 0.96754 0.67783 0.17981
   6   0   1   35.91    1.57   1 0.01495 0.36236-0.99808-0.74687-0.05997-0.55756
  -6   0  -1   35.31    1.19   1-0.46058-0.80634 0.82212 0.56876-0.33463 0.16218
   6   0   2    8.99    0.67   1-0.18628 0.15337 0.63801 0.95237 0.74714 0.26356
   6   0   2    9.46    0.65   1 0.03764 0.37839-0.98781-0.67428-0.15098-0.63416
   6   0   2    9.55    0.38   1-0.55515-0.21550-0.72739-0.41175-0.40334-0.88544
  -6   0  -2    8.96    0.37   1-0.58756-0.92668 0.68740 0.37175-0.42689 0.05520
   6   0   3   15.83    0.63   1-0.20119 0.13157 0.55528 0.93197 0.80695 0.33780
   6   0   3   14.56    0.63   1 0.05806 0.39214-0.97077-0.59491-0.23287-0.70164
   6   0   3   14.08    0.65   1-0.62434-0.29140-0.63595-0.25803-0.45361-0.92114
  -6   0  -3   14.75    0.62   1-0.63970-0.97217 0.61218 0.23423-0.46477 0.00261
   6   0   4   26.08    0.92   1-0.21368 0.11297 0.46887 0.90836 0.85702 0.40263
   6   0   4   24.95    0.92   1 0.07592 0.40334-0.94947-0.51129-0.30451-0.75887
   6   0   4   24.93    0.92   1-0.65999-0.33377-0.57833-0.13814-0.47951-0.93247
  -6   0  -4   25.82    0.99   1-0.66539-0.99122 0.56879 0.12855-0.48344-0.03077
  -6   0  -5   22.15    1.03   1-0.09145-0.41046 0.92579 0.42443 0.36679 0.80707
   6   0   5   24.67    1.12   1-0.22350 0.09630 0.38270 0.88451 0.89642 0.45645
   6   0   5   23.00    1.07   1-0.67950-0.36001-0.54271-0.04025-0.49369-0.93207
  -6   0  -5   22.99    1.12   1-0.67841-0.99759 0.54479 0.04226-0.49289-0.05494
  -6   0  -6   10.44    0.63   1-0.10419-0.41631 0.90250 0.33881 0.41788 0.84373
   6   0   6   11.49    0.61   1-0.23096 0.08199 0.29752 0.86167 0.92635 0.50079
   6   0   6   11.01    0.61   1-0.69001-0.37722-0.52207 0.04264-0.50132-0.92513
  -6   0  -6   10.37    0.63   1-0.68424-0.99677 0.53354-0.03128-0.49713-0.07389
  -6   0  -7    3.25    0.32   1-0.11462-0.41986 0.88063 0.25460 0.45972 0.87114
   6   0   7    3.39    0.30   1-0.23629 0.06982 0.21447 0.84095 0.94771 0.53657
   6   0   7    3.03    0.37   1-0.69561-0.38905-0.51059 0.11666-0.50539-0.91380
  -6   0  -7    2.87    0.37   1-0.68546-0.99135 0.53114-0.09598-0.49801-0.08949
  -6   0  -8    2.84    0.42   1-0.12299-0.42135 0.86111 0.17275 0.49330 0.89028
   6   0   8    3.33    0.31   1-0.23973 0.05953 0.13427 0.82308 0.96150 0.56478
   6   0   8    2.97    0.39   1-0.69662-0.39676-0.50847 0.18105-0.50612-0.89988
  -6   0  -8    3.35    0.39   1-0.68343-0.98267 0.53513-0.15428-0.49654-0.10273
  -6   0  -9   -0.10    0.28   1-0.12955-0.42103 0.84451 0.09381 0.51963 0.90217
   6   0   9   -0.01    0.26   1-0.24152 0.05089 0.05727 0.80842 0.96870 0.58639
   6   0   9    0.18    0.29   1-0.69480-0.40164-0.51227 0.23953-0.50480-0.88391
  -6   0  -9   -0.21    0.34   1-0.67888-0.97148 0.54389-0.20782-0.49324-0.11415
   6   1 -10    2.52    0.46   1-0.19908 0.16576-0.56817-0.98173 0.79846 0.09337
  -6  -1  10    2.89    0.35   1-0.00396-0.36792-0.99986-0.58652 0.01591 0.72153
   6   1  -9   14.95    0.80   1-0.18743 0.17067-0.63222-0.98343 0.75177 0.06101
  -6  -1   9   16.73    0.81   1 0.00426-0.35302-0.99984-0.64882-0.01712 0.67409
   6   1  -8    9.84    0.60   1-0.17393 0.17744-0.69503-0.98390 0.69761 0.02119
  -6  -1   8   10.73    0.60   1 0.01435-0.33627-0.99823-0.70954-0.05756 0.61924
   6   1  -7   14.17    0.75   1-0.15845 0.18618-0.75563-0.98215 0.63553-0.02655
  -6  -1   7   14.33    0.74   1 0.02637-0.31759-0.99404-0.76766-0.10577 0.55662
   6   1  -6   29.68    1.40   1-0.14094 0.19696-0.81276-0.97693 0.56528-0.08247
  -6  -1   6   28.25    1.30   1 0.04036-0.29693-0.98597-0.82192-0.16191 0.48607
   6   1  -5   11.80    0.66   1-0.12131 0.20959-0.86518-0.96668 0.48656-0.14693
  -6  -1   5   11.24    0.57   1 0.05627-0.27436-0.97257-0.87083-0.22570 0.40788
   6   1  -4   56.57    1.94   1-0.09996 0.22427-0.91062-0.94979 0.40095-0.21815
  -6  -1   4   55.83    1.78   1 0.07388-0.25009-0.95222-0.91281-0.29632 0.32284
   6   1  -3    6.73    0.37   1-0.09315 0.22405 0.92288 0.94664 0.37363-0.23163
   6   1  -3    6.62    0.66   1-0.07713 0.24043-0.94780-0.92464 0.30937-0.29533
   6   1  -2   10.53    1.24   1-0.11289 0.19743 0.88444 0.97054 0.45277-0.13806
   6   1  -2   10.30    1.35   1-0.05332 0.25757-0.97540-0.88991 0.21386-0.37645
   6   1  -1   33.15    1.29   1-0.13277 0.17066 0.83591 0.98435 0.53254-0.04385
   6   1  -1   32.42    1.34   1-0.02918 0.27503-0.99269-0.84486 0.11704-0.45886
  -6  -1   0    2.96    0.42   1-0.49571-0.79112 0.79028 0.57780-0.36015 0.20063
  -6  -1   0    3.17    0.37   1-0.13135-0.42708 0.98673 0.77513-0.09543 0.46557
   6   1   1   10.59    0.61   1-0.17024 0.11943 0.71048 0.98358 0.68281 0.13527
   6   1   1    9.99    0.55   1 0.01712 0.30777-0.99749-0.72529-0.06868-0.61580
  -6  -1  -1    9.85    0.44   1-0.66437-0.95313 0.57061 0.29585-0.48269 0.06334
   6   1   2    0.02    0.30   1-0.18661 0.09618 0.63634 0.97178 0.74848 0.21538
   6   1   2   -0.02    0.19   1-0.43770-0.15499-0.84100-0.50418-0.31801-0.84957
  -6  -1  -2    0.09    0.25   1-0.70633-0.98843 0.48758 0.15052-0.51318 0.01814
   6   1   3    4.02    0.30   1-0.20088 0.07503 0.55720 0.95497 0.80570 0.28703
   6   1   3    3.74    0.33   1 0.05694 0.33427-0.97190-0.57506-0.22839-0.74670
   6   1   3    4.00    0.34   1-0.52496-0.24897-0.76088-0.36180-0.38140-0.89839
  -6  -1  -3    3.52    0.33   1-0.72332-0.99878 0.44791 0.04856-0.52552-0.00890
   6   1   4    5.45    0.33   1-0.21297 0.05686 0.47430 0.93491 0.85421 0.35029
   6   1   4    4.85    0.35   1 0.07350 0.34416-0.95272-0.49356-0.29481-0.79871
   6   1   4    4.82    0.37   1-0.57588-0.30661-0.70235-0.24100-0.41840-0.92082
  -6  -1  -4    4.83    0.46   1-0.73028-0.99909 0.43030-0.03134-0.53058-0.02868
  -6  -1  -5    0.16    0.23   1-0.08797-0.35012 0.93153 0.40910 0.35284 0.84264
   6   1   5    0.14    0.22   1-0.22264 0.04034 0.39115 0.91409 0.89298 0.40349
   6   1   5    0.49    0.23   1-0.60680-0.34425-0.66137-0.13775-0.44087-0.92871
  -6  -1  -5    0.14    0.41   1-0.73200-0.99417 0.42581-0.09812-0.53183-0.04465
  -6  -1  -6    0.51    0.31   1-0.09992-0.35519 0.91071 0.32594 0.40075 0.87612
   6   1   6    0.61    0.24   1-0.23012 0.02601 0.30842 0.89369 0.92299 0.44791
   6   1   6    0.54    0.30   1-0.62567-0.36983-0.63394-0.04805-0.45457-0.92785
  -6  -1  -6    0.56    0.44   1-0.73045-0.98597 0.42985-0.15638-0.53070-0.05824
  -6  -1  -7    9.17    0.56   1-0.10977-0.35816 0.89112 0.24402 0.44027 0.90120
   6   1   7    9.74    0.56   1-0.23559 0.01370 0.22721 0.87481 0.94491 0.48425
   6   1   7    8.52    0.53   1-0.63671-0.38759-0.61692 0.03123-0.46259-0.92130
  -6  -1  -7    9.56    0.62   1-0.72657-0.97545 0.43978-0.20874-0.52789-0.07014
  -6  -1  -8    1.83    0.31   1-0.11773-0.35923 0.87359 0.16415 0.47219 0.91869
   6   1   8    1.74    0.28   1-0.23924 0.00320 0.14824 0.85818 0.95957 0.51332
   6   1   8    1.76    0.31   1-0.64232-0.39992-0.60797 0.10244-0.46667-0.91080
  -6  -1  -8    2.02    0.37   1-0.72084-0.96307 0.45396-0.25685-0.52372-0.08069
  -6  -1  -9    8.96    0.52   1-0.12400-0.35863 0.85863 0.08685 0.49736 0.92943
   6   1   9    8.44    0.48   1-0.24129-0.00569 0.07195 0.84422 0.96777 0.53595
   6   1   9    8.19    0.50   1-0.64393-0.40825-0.60536 0.16732-0.46784-0.89740
  -6  -1  -9    9.36    0.57   1-0.71352-0.94910 0.47131-0.30180-0.51840-0.09008
   6   2 -10   11.69    0.63   1-0.19342 0.11463-0.60061-0.99318 0.77579 0.02118
  -6  -2  10   12.85    0.59   1 0.00510-0.30209-0.99977-0.60741-0.02046 0.73469
   6   2  -9    9.14    0.55   1-0.18122 0.12010-0.66244-0.99267 0.72685-0.01342
  -6  -2   9    8.86    0.52   1 0.01359-0.28694-0.99842-0.66838-0.05451 0.68624
   6   2  -8    5.28    0.38   1-0.16726 0.12732-0.72245-0.99033 0.67087-0.05506
  -6  -2   8    5.59    0.42   1 0.02381-0.27005-0.99514-0.72742-0.09553 0.63081
   6   2  -7    8.09    0.42   1-0.15149 0.13636-0.77965-0.98518 0.60760-0.10400
  -6  -2   7    8.36    0.50   1 0.03584-0.25136-0.98896-0.78356-0.14375 0.56818
   6   2  -6    2.68    0.32   1-0.13389 0.14723-0.83286-0.97603 0.53703-0.16023
  -6  -2   6    2.55    0.30   1 0.04965-0.23089-0.97871-0.83563-0.19913 0.49839
   6   2  -5    0.52    0.26   1-0.11448 0.15967-0.88094-0.96145 0.45916-0.22384
  -6  -2   5    0.58    0.31   1 0.06514-0.20873-0.96306-0.88230-0.26127 0.42185
   6   2  -4    0.08    0.25   1-0.09366 0.17382-0.92201-0.94019 0.37565-0.29295
   6   2  -3    3.10    0.38   1-0.10048 0.15986 0.90965 0.95449 0.40303-0.25175
   6   2  -3    3.25    0.32   1-0.07169 0.18912-0.95508-0.91092 0.28754-0.36666
   6   2  -2    1.30    0.67   1-0.11913 0.13433 0.87033 0.97751 0.47782-0.16253
   6   2   0   15.39    1.36   1-0.15593 0.08377 0.76454 0.99638 0.62542 0.01393
   6   2   0   16.34    1.12   1-0.00426 0.23629-0.99984-0.76899 0.01709-0.59398
  -6  -2   0   15.73    0.70   1-0.74897-0.98736 0.37805 0.14417-0.54416 0.06583
  -6  -2   0   16.75    0.69   1-0.04505-0.28381 0.99844 0.76546-0.03273 0.57750
   6   2   1   17.07    1.26   1-0.17292 0.05990 0.69934 0.99352 0.69354 0.09649
   6   2   1   15.17    1.04   1 0.01679 0.25069-0.99758-0.70441-0.06737-0.66404
  -6  -2  -1   14.80    0.67   1-0.76733-0.99907 0.31684 0.02067-0.55750 0.03777
   6   2   2   15.75    0.70   1-0.18831 0.03762 0.62774 0.98426 0.75529 0.17267
   6   2   2   14.61    0.72   1 0.03627 0.26350-0.98869-0.63319-0.14549-0.72775
   6   2   2   15.61    0.82   1-0.33929-0.11352-0.90780-0.54983-0.24651-0.82752
  -6  -2  -2   13.71    0.69   1-0.77277-0.99786 0.29596-0.06249-0.56145 0.01910
   6   2   3   22.39    1.04   1-0.20181 0.01725 0.55146 0.97031 0.80941 0.24123
   6   2   3   20.15    0.97   1 0.05384 0.27440-0.97491-0.55710-0.21594-0.78379
   6   2   3   20.62    0.99   1-0.43090-0.21186-0.84634-0.42609-0.31307-0.87951
  -6  -2  -3   18.75    0.95   1-0.77340-0.99185 0.29342-0.12734-0.56191 0.00392
   6   2   4    7.71    0.48   1-0.21334-0.00031 0.47149 0.95323 0.85567 0.30223
   6   2   4    6.71    0.39   1 0.06932 0.28322-0.95806-0.47792-0.27804-0.83148
   6   2   4    6.95    0.36   1-0.49043-0.27810-0.79530-0.31278-0.35632-0.90819
  -6  -2  -4    7.05    0.45   1-0.77146-0.98326 0.30112-0.18193-0.56050-0.00937
   6   2   5   14.61    0.69   1-0.22266-0.01648 0.39102 0.93509 0.89304 0.35402
   6   2   5   12.71    0.62   1-0.52973-0.32412-0.75581-0.21102-0.38487-0.92217
  -6  -2  -5   13.70    0.72   1-0.76777-0.97292 0.31522-0.23013-0.55781-0.02140
  -6  -2  -6   11.02    0.62   1-0.09422-0.29263 0.92103 0.31518 0.37790 0.90278
   6   2   6   11.66    0.63   1-0.22995-0.03062 0.31060 0.91700 0.92230 0.39770
   6   2   6   10.52    0.60   1-0.55570-0.35681-0.72676-0.11970-0.40374-0.92647
  -6  -2  -6   11.80    0.77   1-0.76266-0.96117 0.33361-0.27403-0.55411-0.03241
  -6  -2  -7   10.55    0.63   1-0.10360-0.29513 0.90365 0.23547 0.41553 0.92598
   6   2   7   11.84    0.59   1-0.23536-0.04288 0.23125 0.89998 0.94399 0.43381
   6   2   7   10.83    0.63   1-0.57249-0.38032-0.70656-0.03724-0.41594-0.92410
  -6  -2  -7   11.02    0.63   1-0.75631-0.94817 0.35503-0.31490-0.54949-0.04251
  -6  -2  -8    5.87    0.51   1-0.11123-0.29588 0.88802 0.15750 0.44613 0.94214
   6   2   8    6.43    0.37   1-0.23904-0.05341 0.15368 0.88474 0.95876 0.46300
   6   2   8    5.63    0.39   1-0.58268-0.39723-0.69372 0.03786-0.42334-0.91693
  -6  -2  -8    5.73    0.43   1-0.74876-0.93397 0.37867-0.35355-0.54401-0.05174
   6   3 -10    1.43    0.33   1-0.18877 0.06249-0.62536-0.99693 0.75715-0.04697
  -6  -3  10    1.35    0.32   1 0.01537-0.23506-0.99797-0.62659-0.06166 0.74304
   6   3  -9   -0.13    0.30   1-0.17625 0.06829-0.68498-0.99421 0.70691-0.08287
  -6  -3   9    0.10    0.35   1 0.02409-0.21968-0.99502-0.68596-0.09662 0.69367
   6   3  -8    3.26    0.35   1-0.16209 0.07571-0.74234-0.98922 0.65012-0.12533
  -6  -3   8    3.40    0.34   1 0.03443-0.20267-0.98981-0.74307-0.13811 0.63777
   6   3  -7   19.45    0.95   1-0.14628 0.08479-0.79648-0.98101 0.58670-0.17442
  -6  -3   7   19.90    0.92   1 0.04642-0.18402-0.98141-0.79699-0.18621 0.57527
   6   3  -6   10.02    0.57   1-0.12886 0.09548-0.84632-0.96850 0.51684-0.22994
  -6  -3   6   10.47    0.63   1 0.06002-0.16376-0.96873-0.84663-0.24073 0.50634
   6   3  -5   10.72    0.62   1-0.10988 0.10752-0.89089-0.95041 0.44071-0.29179
  -6  -3   5   11.21    0.62   1 0.07508-0.14203-0.95062-0.89084-0.30113 0.43153
   6   3  -4   26.07    1.23   1-0.09173 0.11864 0.92531 0.92890 0.36794-0.35080
   6   3  -4   27.30    1.35   1-0.08975 0.12097-0.92862-0.92581 0.36000-0.35810
   6   3  -2   46.75    1.82   1-0.12648 0.07013 0.85243 0.98068 0.50730-0.18256
   6   3  -2   44.61    1.81   1-0.04732 0.15006-0.98068-0.85320 0.18979-0.49952
  -6  -3   2   39.97    1.66   1-0.79705-0.99316 0.17130 0.04052-0.57909 0.10942
  -6  -3   2   44.17    1.64   1-0.55952-0.75446 0.72226 0.59246-0.40652 0.28241
  -6  -3   1    4.64    0.47   1-0.80355-0.99295 0.11603-0.07701-0.58381 0.09004
  -6  -3   1    5.72    0.36   1-0.27460-0.46296 0.94063 0.74854-0.19950 0.47470
   6   3   0    8.64    1.37   1-0.00521 0.17882-0.99976-0.74762 0.02092-0.63959
  -6  -3   0    8.51    0.50   1-0.80400-0.98670 0.11117-0.14415-0.58414 0.07506
  -6  -3   0   10.63    0.44   1-0.04137-0.22317 0.99869 0.74431-0.03006 0.62944
   6   3   1   32.40    1.49   1-0.17675-0.00078 0.68279 0.99805 0.70890 0.06233
   6   3   1   31.02    1.50   1 0.01436 0.19149-0.99823-0.68408-0.05760-0.70381
  -6  -3  -1   27.46    1.33   1-0.80290-0.97890 0.12267-0.19492-0.58334 0.06120
   6   3   2    2.52    0.34   1-0.19112-0.02203 0.61308 0.99068 0.76655 0.13441
   6   3   2    2.24    0.40   1 0.03256 0.20303-0.99089-0.61442-0.13060-0.76240
  -6  -3  -2    2.35    0.38   1-0.80081-0.97011 0.14203-0.23783-0.58182 0.04808
   6   3   3    6.99    0.37   1-0.20376-0.04155 0.53908 0.97900 0.81723 0.19953
   6   3   3    6.85    0.40   1 0.04902 0.21282-0.97925-0.54045-0.19661-0.81400
   6   3   3    6.67    0.45   1-0.34606-0.18396-0.90389-0.46248-0.25143-0.86733
  -6  -3  -3    6.88    0.58   1-0.79781-0.96041 0.16584-0.27629-0.57964 0.03561
   6   3   4    0.34    0.24   1-0.21460-0.05839 0.46157 0.96443 0.86075 0.25779
   6   3   4    0.29    0.38   1 0.06359 0.22073-0.96483-0.46371-0.25506-0.85804
   6   3   4    0.35    0.34   1-0.40856-0.25318-0.86311-0.35943-0.29683-0.89816
  -6  -3  -4    0.31    0.34   1-0.79389-0.94979 0.19244-0.31197-0.57679 0.02381
   6   3   5    1.37    0.27   1-0.22343-0.07406 0.38344 0.94863 0.89613 0.30759
   6   3   5    1.50    0.30   1 0.07624 0.22672-0.94903-0.38559-0.30579-0.89437
   6   3   5    1.36    0.27   1-0.45272-0.30406-0.82876-0.26281-0.32892-0.91568
  -6  -3  -5    1.53    0.37   1-0.78903-0.93822 0.22090-0.34578-0.57326 0.01269
  -6  -3  -6    0.29    0.27   1-0.08721-0.22877 0.93275 0.30582 0.34979 0.92419
   6   3   6    0.27    0.25   1-0.23038-0.08786 0.30513 0.93265 0.92402 0.34989
   6   3   6    0.32    0.26   1-0.48374-0.34180-0.80153-0.17331-0.35146-0.92365
  -6  -3  -6    0.56    0.49   1-0.78351-0.92500 0.24910-0.37995-0.56925 0.00166
  -6  -3  -7    0.28    0.28   1-0.09620-0.23088 0.91752 0.22825 0.38586 0.94582
   6   3   7    0.10    0.27   1-0.23557-0.09990 0.22758 0.91744 0.94483 0.38512
   6   3   7    0.33    0.28   1-0.50515-0.36992-0.78110-0.09061-0.36701-0.92463
   6   4  -9   17.24    0.93   1-0.17258 0.01518-0.70076-0.98900 0.69219-0.14711
  -6  -4   9   17.53    0.77   1 0.03564-0.15137-0.98908-0.70100-0.14294 0.69690
   6   4  -8   14.07    0.81   1-0.15843 0.02260-0.75572-0.98161 0.63543-0.18954
  -6  -4   8   13.78    0.76   1 0.04605-0.13429-0.98170-0.75594-0.18473 0.64070
   6   4  -7   10.24    0.62   1-0.14279 0.03150-0.80723-0.97076 0.57270-0.23793
  -6  -4   7    9.61    0.54   1 0.05797-0.11571-0.97086-0.80742-0.23251 0.57851
   6   4  -6    7.15    0.49   1-0.12573 0.04182-0.85431-0.95550 0.50431-0.29199
  -6  -4   6    6.88    0.39   1 0.07130-0.09571-0.95557-0.85445-0.28599 0.51062
   6   4  -5    6.45    0.38   1-0.08628 0.07412 0.93423 0.89657 0.34605-0.43664
   6   4  -5    6.52    0.40   1-0.10735 0.05330-0.89615-0.93468 0.43055-0.35145
   6   4  -4    6.39    0.46   1-0.10188 0.05164 0.90699 0.93166 0.40863-0.35962
   6   4  -4    6.03    0.40   1-0.08803 0.06595-0.93144-0.90764 0.35307-0.41453
   6   4  -3    1.80    0.35   1-0.11816 0.02848 0.87260 0.95960 0.47392-0.27990
   6   4  -3    1.67    0.56   1-0.06803 0.07927-0.95963-0.87350 0.27288-0.48032
  -6  -4   3    1.87    0.30   1-0.79057-0.93645-0.21232-0.30215-0.57438 0.17819
  -6  -4   3    1.78    0.26   1-0.58552-0.72981 0.69006 0.60025-0.42540 0.32719
  -6  -4   2    0.06    0.31   1-0.79913-0.93832-0.15579-0.30790-0.58060 0.15731
  -6  -4   2    0.27    0.28   1-0.40911-0.54708 0.86271 0.71152-0.29723 0.44094
   6   4  -1    0.66    0.25   1-0.15107-0.01819 0.78104 0.99272 0.60592-0.11904
   6   4  -1    0.77    0.29   1-0.02769 0.10627-0.99342-0.78262 0.11106-0.61335
  -6  -4   1    0.76    0.31   1-0.80441-0.93690-0.10646-0.32085-0.58444 0.13882
  -6  -4   1    0.77    0.29   1-0.22299-0.35440 0.96126 0.74777-0.16201 0.56145
  -6  -4   0    0.14    0.33   1-0.80750-0.93328-0.06115-0.33780-0.58668 0.12193
  -6  -4   0    0.06    0.30   1-0.05607-0.18091 0.99759 0.72181-0.04074 0.66802
   6   4   1    2.47    0.33   1-0.18149-0.06237 0.66120 0.99754 0.72792 0.03183
   6   4   1    2.58    0.35   1 0.01010 0.13047-0.99912-0.66399-0.04050-0.73626
  -6  -4  -1    2.43    0.40   1-0.80888-0.92796-0.01827-0.35719-0.58768 0.10628
   6   4   2    9.71    0.54   1-0.19481-0.08258 0.59290 0.99158 0.78135 0.09969
   6   4   2    8.74    0.54   1 0.02718 0.14089-0.99366-0.59621-0.10901-0.79036
  -6  -4  -2    8.13    0.52   1-0.80880-0.92118 0.02302-0.37817-0.58762 0.09169
   6   4   3    8.97    0.52   1-0.20653-0.10118 0.52071 0.98172 0.82836 0.16114
   6   4   3    8.55    0.61   1 0.04267 0.14972-0.98431-0.52454-0.17117-0.83811
  -6  -4  -3    7.77    0.60   1-0.80739-0.91307 0.06322-0.40024-0.58660 0.07806
   6   4   4    6.16    0.37   1-0.21661-0.11722 0.44527 0.96926 0.86879 0.21631
   6   4   4    5.53    0.39   1 0.05646 0.15685-0.97237-0.45028-0.22647-0.87900
   6   4   4    5.37    0.40   1-0.33197-0.23353-0.91193-0.38709-0.24119-0.89197
  -6  -4  -4    5.60    0.48   1-0.80474-0.90372 0.10264-0.42310-0.58468 0.06534
   6   4   5    8.76    0.55   1-0.22483-0.13228 0.36917 0.95549 0.90175 0.26368
   6   4   5    7.21    0.41   1 0.06850 0.16222-0.95907-0.37465-0.27474-0.91286
   6   4   5    7.34    0.39   1-0.37811-0.28639-0.88405-0.29694-0.27471-0.91093
  -6  -4  -5    7.80    0.52   1-0.80088-0.89315 0.14146-0.44655-0.58187 0.05350
   6   4   6    5.45    0.36   1-0.23131-0.14562 0.29278 0.94143 0.92777 0.30412
   6   4   6    4.98    0.37   1 0.07881 0.16587-0.94544-0.29870-0.31610-0.93982
   6   4   6    5.11    0.46   1-0.41214-0.32714-0.86050-0.21112-0.29944-0.92108
  -6  -4  -6    5.10    0.62   1-0.79582-0.88140 0.17984-0.47045-0.57820 0.04252
   6   5  -8    0.82    0.44   1-0.15626-0.03201-0.76340-0.96829 0.62673-0.24775
  -6  -5   8    0.60    0.29   1 0.05854-0.06504-0.97027-0.76549-0.23483 0.64015
   6   5  -7    0.16    0.37   1-0.14095-0.02343-0.81272-0.95526 0.56534-0.29481
  -6  -5   7    0.27    0.28   1 0.07032-0.04660-0.95681-0.81435-0.28207 0.57849
   6   5  -6    4.34    0.38   1-0.12433-0.01375-0.85781-0.93768 0.49869-0.34721
   6   5  -5   15.88    0.82   1-0.09781 0.00573 0.91461 0.89803 0.39231-0.43989
   6   5  -5   15.46    0.82   1-0.10671-0.00281-0.89744-0.91498 0.42802-0.40348
   6   5  -4    6.85    0.52   1-0.11271-0.01604 0.88483 0.93058 0.45206-0.36571
   6   5  -4    6.87    0.69   1-0.08826 0.00896-0.93106-0.88626 0.35402-0.46308
   6   5  -3    5.14    0.96   1-0.12809-0.03831 0.84830 0.95639 0.51377-0.28956
   6   5  -3    4.61    0.99   1-0.06929 0.02126-0.95809-0.85097 0.27793-0.52478
  -6  -5   3    6.29    0.39   1-0.75371-0.84267-0.36337-0.47453-0.54760 0.25438
  -6  -5   3    6.26    0.36   1-0.49069-0.57797 0.79506 0.68383-0.35650 0.44531
   6   5  -2   18.04    1.02   1-0.14360-0.06069 0.80475 0.97517 0.57597-0.21294
   6   5  -2   15.86    1.11   1-0.05016 0.03372-0.97826-0.80880 0.20120-0.58711
  -6  -5   2   17.92    0.88   1-0.77380-0.85606-0.29182-0.46526-0.56220 0.22513
  -6  -5   2   17.51    0.84   1-0.35185-0.43287 0.90047 0.72787-0.25563 0.53180
   6   5  -1   10.36    1.19   1-0.15883-0.08280 0.75428 0.98704 0.63704-0.13743
   6   5  -1    8.60    1.24   1-0.03126 0.04594-0.99161-0.75981 0.12541-0.64850
  -6  -5   1   12.83    0.74   1-0.78782-0.86338-0.22736-0.46307-0.57239 0.20029
  -6  -5   1   11.80    0.69   1-0.20955-0.28400 0.96587 0.73098-0.15224 0.62048
   6   5   0   22.47    1.33   1-0.17339-0.10424 0.69736 0.99245 0.69542-0.06461
   6   5   0   22.88    1.32   1-0.01298 0.05755-0.99855-0.70443 0.05208-0.70743
  -6  -5   0   22.90    1.11   1-0.79745-0.86631-0.16847-0.46646-0.57938 0.17865
  -6  -5   0   23.53    1.09   1-0.07868-0.14656 0.99525 0.69807-0.05716 0.70086
   6   5   1    5.10    0.93   1-0.18693-0.12467 0.63476 0.99218 0.74975 0.00414
   6   5   1    4.48    0.86   1 0.00422 0.06784-0.99984-0.64373-0.01693-0.76223
  -6  -5  -1    4.42    0.42   1-0.80375-0.86591-0.11384-0.47410-0.58396 0.15942
  -6  -5  -1    4.51    0.39   1 0.03424-0.02706 0.99910 0.63963 0.02488 0.76820
   6   5   2    7.57    0.56   1-0.19918-0.14381 0.56752 0.98728 0.79889 0.06772
   6   5   2    7.30    0.60   1 0.02030 0.07726-0.99646-0.57803-0.08145-0.81234
  -6  -5  -2    7.23    0.50   1-0.80743-0.86289-0.06246-0.48499-0.58663 0.14210
   6   5   3   19.31    0.88   1-0.21004-0.16061 0.49616 0.97893 0.84243 0.12602
   6   5   3   17.41    0.81   1 0.03495 0.08524-0.98950-0.50875-0.14020-0.85668
  -6  -5  -3   16.13    0.86   1-0.80894-0.85769-0.01357-0.49838-0.58773 0.12636
   6   5   4    2.14    0.40   1-0.21920-0.17662 0.42309 0.96820 0.87917 0.17716
   6   5   4    1.77    0.33   1 0.04804 0.09167-0.98008-0.43700-0.19270-0.89477
  -6  -5  -4    1.72    0.45   1-0.80856-0.85062 0.03336-0.51371-0.58745 0.11198
   6   5   5    2.81    0.46   1-0.22673-0.19099 0.34876 0.95620 0.90937 0.22178
   6   5   5    2.88    0.40   1 0.05953 0.09649-0.96924-0.36384-0.23878-0.92644
   6   5   5    2.51    0.38   1-0.30679-0.27201-0.92530-0.31703-0.22289-0.90856
  -6  -5  -5    2.88    0.64   1-0.80650-0.84185 0.07877-0.53057-0.58595 0.09883
   6   6  -7   18.88    0.98   1-0.14069-0.07995-0.81349-0.93505 0.56429-0.34538
   6   6  -6   11.40    0.56   1-0.09638-0.04280 0.91719 0.85936 0.38659-0.50957
   6   6  -6   11.62    0.59   1-0.12469-0.07086-0.85693-0.91581 0.50011-0.39529
   6   6  -5    8.88    0.57   1-0.10991-0.06321 0.89083 0.89533 0.44083-0.44089
   6   6  -5    7.96    0.51   1-0.10783-0.06067-0.89516-0.89171 0.43249-0.44851
   6   6  -4    6.50    0.49   1-0.12406-0.08424 0.85849 0.92532 0.49759-0.36970
   6   6  -4    6.05    0.70   1-0.09028-0.04980-0.92775-0.86196 0.36210-0.50450
   6   6  -3    5.98    0.84   1-0.13854-0.10560 0.81978 0.94895 0.55565-0.29720
   6   6  -3    3.01    0.63   1-0.07232-0.03851-0.95426-0.82614 0.29008-0.56213
   6   6  -2    6.76    0.72   1-0.15300-0.12695 0.77460 0.96610 0.61365-0.22477
   6   6  -2    6.45    0.55   1-0.05428-0.02714-0.97450-0.78405 0.21771-0.62010
  -6  -6   2    6.82    0.42   1-0.75456-0.77990-0.36065-0.55542-0.54822 0.28852
  -6  -6   2    6.73    0.41   1-0.32864-0.35270 0.91377 0.71977-0.23877 0.59792
   6   6  -1    1.33    0.56   1-0.16709-0.14793 0.72313 0.97696 0.67019-0.15380
  -6  -6   1    2.09    0.35   1-0.77279-0.79143-0.29586-0.55290-0.56147 0.26063
  -6  -6   1    1.96    0.44   1-0.21322-0.23071 0.96464 0.70835-0.15491 0.66708
  -6  -6   0    0.00    0.33   1-0.78642-0.79836-0.23465-0.55396-0.57137 0.23608
  -6  -6   0    0.13    0.33   1-0.10565-0.11657 0.99143 0.67285-0.07676 0.73053
   6   6   1   -0.04    0.26   1-0.19289-0.18749 0.60352 0.98203 0.77365-0.02146
   6   6   1    0.00    0.31   1-0.00311 0.00374-0.99991-0.62282 0.01249-0.78235
  -6  -6  -1   -0.06    0.46   1-0.79629-0.80152-0.17666-0.55824-0.57854 0.21426
  -6  -6  -1   -0.03    0.40   1-0.01014-0.01449 0.99992 0.61904-0.00736 0.78521
   6   6   2   -0.13    0.27   1-0.20406-0.20554 0.53707 0.97791 0.81847 0.03778
   6   6   2   -0.04    0.31   1 0.01207 0.01226-0.99875-0.55934-0.04841-0.82884
  -6  -6  -2   -0.08    0.37   1-0.80302-0.80156-0.12145-0.56531-0.58343 0.19472
   6   6   3    1.28    0.29   1-0.21392-0.22131 0.46694 0.97084 0.85801 0.09207
   6   6   3    1.10    0.33   1 0.02594 0.01947-0.99423-0.49249-0.10407-0.87009
  -6  -6  -3    1.30    0.43   1-0.80711-0.79894-0.06860-0.57473-0.58640 0.17711
   6   7  -4    3.25    0.65   1-0.13579-0.15284 0.82758 0.91550 0.54466-0.37215
   6   7  -4    3.65    0.69   1-0.09391-0.11018-0.92156-0.83478 0.37669-0.53942
   6   7  -3    6.43    0.66   1-0.14933-0.17326 0.78672 0.93697 0.59896-0.30341
   6   7  -3    6.36    0.70   1-0.07695-0.09990-0.94805-0.79894 0.30866-0.59305
   6   7  -2    2.67    0.61   1-0.16274-0.19355 0.73989 0.95247 0.65273-0.23520
   6   7  -2    7.29    1.06   1-0.05996-0.08957-0.96879-0.75735 0.24049-0.64683
  -6  -7   2    3.69    0.46   1-0.74312-0.71153-0.39531-0.61140-0.53990 0.34626
  -6  -7   2    3.45    0.46   1-0.32333-0.29043 0.91666 0.70126-0.23491 0.65105
   6   7  -1    2.61    0.70   1-0.17571-0.21340 0.68736 0.96227 0.70474-0.16877
  -6  -7   1    3.60    0.55   1-0.76266-0.72438-0.33360-0.61197-0.55411 0.31741
  -6  -7   1    3.90    0.49   1-0.22647-0.18700 0.96001 0.68233-0.16454 0.70671
   7  -8  -1   12.22    0.73   1-0.55585 0.31805 0.72658 0.71592-0.40385-0.62152
   7  -8   0    1.66    0.35   1-0.60095 0.26630 0.66949 0.72112-0.43661-0.63957
   7  -8   1    4.02    0.39   1-0.64106 0.21955 0.61000 0.72393-0.46575-0.65400
   7  -8   2    0.33    0.31   1-0.67596 0.17799 0.54942 0.72564-0.49112-0.66464
   7  -8   3    0.06    0.37   1-0.70580 0.14151 0.48875 0.72726-0.51279-0.67160
   7  -8   4   -0.08    0.45   1-0.73091 0.10975 0.42867 0.72948-0.53104-0.67513
   7  -8   5    0.00    0.33   1-0.75172 0.08229 0.36960 0.73271-0.54616-0.67554
   7  -7  -1    0.12    0.30   1-0.60432 0.21257 0.66484 0.67558-0.43906-0.70596
   7  -7   0    9.02    0.59   1-0.64818 0.16206 0.59840 0.67144-0.47093-0.72311
   7  -7   1    3.31    0.35   1-0.68496 0.11863 0.53213 0.66746-0.49765-0.73512
   7  -7   2    6.10    0.41   1-0.71524 0.08170 0.46731 0.66494-0.51965-0.74241
   7  -7   3   10.35    0.58   1-0.73984 0.05046 0.40459 0.66451-0.53752-0.74556
   7  -7   4    4.05    0.49   1-0.75958 0.02407 0.34419 0.66641-0.55187-0.74519
   7  -7   5   10.44    0.66   1-0.77520 0.00180 0.28607 0.67058-0.56322-0.74182
  -7   7  -5   10.38    0.67   1 0.01251-0.76477 0.99988 0.61634 0.00909 0.18771
   7  -7   6    7.59    0.52   1-0.78709-0.01647 0.23121 0.67879-0.57185-0.73414
  -7   7  -6    8.06    0.52   1-0.05374-0.82446 0.99779 0.55196-0.03904 0.12486
   7  -6  -5    4.14    0.44   1-0.08824 0.69963 0.93110 0.71424 0.35391-0.01901
   7  -6  -5    3.79    0.47   1-0.21811 0.56999-0.43260-0.64988 0.87480 0.50274
   7  -6  -4   22.41    1.30   1-0.10972 0.67126 0.89123 0.73671 0.44007 0.08157
   7  -6  -4   20.71    1.33   1-0.20773 0.57322-0.51250-0.66743 0.83318 0.47533
   7  -6  -3    7.22    0.54   1-0.13277 0.64133 0.83594 0.74375 0.53251 0.18845
   7  -6  -3    6.68    0.50   1-0.19431 0.57991-0.59570-0.68829 0.77934 0.43583
   7  -6  -2    5.89    0.57   1-0.15617 0.61105 0.76371 0.73386 0.62637 0.29674
   7  -6  -2    5.82    0.51   1-0.17710 0.59039-0.68121-0.71144 0.71034 0.38116
   7  -6  -1    5.22    0.98   1-0.17841 0.58193 0.67536 0.70784 0.71557 0.40037
   7  -6  -1    4.18    0.35   1-0.67337 0.08651 0.55427 0.58643-0.48923-0.80536
   7  -6   0   10.34    1.62   1-0.19801 0.55545 0.57452 0.66933 0.79417 0.49341
   7  -6   0   13.67    0.87   1-0.12971 0.62431-0.84408-0.74962 0.52027 0.21976
   7  -6   0   12.88    0.71   1-0.70937 0.04385 0.48079 0.57524-0.51539-0.81680
   7  -6   1   17.15    1.03   1-0.21416 0.53293 0.46507 0.62251 0.85897 0.57311
   7  -6   1   15.41    1.61   1-0.09994 0.64723-0.91066-0.75357 0.40087 0.11493
   7  -6   1   16.83    0.86   1-0.73701 0.00957 0.41241 0.56916-0.53547-0.82217
   7  -6   2    4.80    0.60   1-0.22601 0.51423 0.35666 0.57643 0.90648 0.63503
   7  -6   2    4.99    0.66   1-0.06808 0.67242-0.95958-0.74016 0.27306 0.00152
   7  -6   2    5.34    0.47   1-0.75815-0.01821 0.34897 0.56801-0.55083-0.82281
   7  -6   3    8.60    0.75   1-0.23408 0.49931 0.25248 0.53458 0.93886 0.68183
   7  -6   3    9.37    0.61   1-0.03590 0.69793-0.98892-0.70717 0.14400-0.11313
   7  -6   3    8.52    0.57   1-0.77429-0.04100 0.28980 0.57113-0.56256-0.81983
   7  -6   4    1.00    0.30   1-0.23898 0.48756 0.15530 0.49974 0.95852 0.71591
   7  -6   4    1.04    0.34   1-0.00531 0.72167-0.99975-0.65596 0.02131-0.22111
   7  -6   4    0.94    0.34   1-0.78615-0.05904 0.23605 0.58041-0.57117-0.81217
  -7   6  -4    1.05    0.34   1 0.01772-0.70917 0.99975 0.65711 0.01288 0.25546
   7  -6   5    0.26    0.30   1-0.24139 0.47831 0.06613 0.47290 0.96817 0.73998
   7  -6   5    0.40    0.45   1 0.02231 0.74264-0.99573-0.58962-0.08950-0.31752
   7  -6   5    0.16    0.48   1-0.79536-0.07495 0.18295 0.58958-0.57786-0.80422
  -7   6  -5    0.33    0.43   1-0.06528-0.78562 0.99673 0.59180-0.04743 0.18044
   7  -6   6    0.09    0.31   1-0.24189 0.47137-0.01420 0.45441 0.97019 0.75585
   7  -6   6   -0.09    0.32   1 0.04623 0.75989-0.98156-0.51313-0.18544-0.39905
   7  -6   6   -0.05    0.37   1-0.80192-0.08822 0.13213 0.60103-0.58263-0.79433
  -7   6  -6   -0.04    0.44   1-0.13290-0.84666 0.98641 0.51918-0.09655 0.11661
   7  -6   7    0.58    0.46   1-0.24097 0.46549-0.08845 0.44251 0.96649 0.76648
   7  -6   7    0.47    0.41   1 0.06628 0.77328-0.96172-0.43097-0.26586-0.46507
  -7   6  -7    0.49    0.35   1-0.18692-0.89412 0.97294 0.44341-0.13580 0.06266
   7  -5  -6   13.91    0.80   1-0.21155 0.52609-0.48506-0.74370 0.84850 0.41247
  -7   5   6   14.39    0.70   1 0.06019-0.67667-0.96854-0.71009-0.24144 0.19461
   7  -5  -5    2.57    0.37   1-0.20035 0.53055-0.56046-0.75675 0.80357 0.38188
  -7   5   5    2.67    0.35   1 0.07809-0.65210-0.94645-0.75033-0.31323 0.10842
   7  -5  -4    3.29    0.37   1-0.09846 0.62566 0.91342 0.77998 0.39492-0.01308
   7  -5  -4    3.32    0.46   1-0.18640 0.53777-0.63743-0.77137 0.74761 0.34025
   7  -5  -3    0.27    0.41   1-0.11998 0.59726 0.86834 0.79723 0.48122 0.08764
   7  -5  -3    0.53    0.40   1-0.16928 0.54816-0.71438-0.78597 0.67896 0.28593
   7  -5  -2    5.37    0.43   1-0.14214 0.56822 0.80918 0.80040 0.57010 0.19096
   7  -5  -2    4.94    0.42   1-0.14872 0.56199-0.78871-0.79795 0.59650 0.21781
   7  -5   0    0.86    0.36   1-0.18372 0.51288 0.65058 0.76648 0.73687 0.38659
   7  -5   0    0.95    0.30   1-0.09758 0.59951-0.91502-0.79928 0.39140 0.04157
   7  -5   0    1.00    0.34   1-0.77679-0.08057 0.27942 0.39528-0.56437-0.91501
   7  -5   1    0.07    0.28   1-0.78665-0.09636 0.23350 0.41236-0.57153-0.90590
   7  -5   2    8.55    0.55   1-0.21520 0.46823 0.45682 0.69771 0.86313 0.54217
   7  -5   2    8.15    0.49   1-0.03902 0.64473-0.98690-0.74649 0.15651-0.16452
   7  -5   2    7.79    0.51   1-0.79487-0.11128 0.18617 0.42730-0.57750-0.89722
   7  -5   3    4.12    0.33   1-0.22585 0.45072 0.35833 0.66156 0.90586 0.59931
   7  -5   3    4.32    0.38   1-0.01027 0.66681-0.99909-0.69635 0.04120-0.26543
   7  -5   3    3.90    0.41   1-0.80087-0.12399 0.14151 0.44492-0.58187-0.88694
  -7   5  -3    4.00    0.37   1 0.04419-0.63232 0.99850 0.69675 0.03210 0.33866
   7  -5   4    6.24    0.45   1-0.23342 0.43631 0.26277 0.62833 0.93619 0.64407
   7  -5   4    6.36    0.42   1 0.01638 0.68661-0.99770-0.63293-0.06572-0.35769
   7  -5   4    6.21    0.58   1-0.80507-0.13489 0.09862 0.46430-0.58491-0.87534
  -7   5  -4    6.47    0.50   1-0.06466-0.73461 0.99680 0.63275-0.04698 0.24487
   7  -5   5   13.97    0.88   1-0.23831 0.42457 0.17201 0.59990 0.95583 0.67812
   7  -5   5   14.15    0.82   1 0.04012 0.70368-0.98615-0.55906-0.16092-0.43848
   7  -5   5   12.18    0.75   1-0.80770-0.14422 0.05692 0.48488-0.58683-0.86260
  -7   5  -5   13.79    0.78   1-0.15056-0.81394 0.98252 0.55619-0.10939 0.16775
   7  -5   6    3.32    0.43   1-0.24100 0.41503 0.08689 0.57712 0.96662 0.70333
   7  -5   6    3.34    0.45   1 0.06055 0.71745-0.96816-0.47876-0.24286-0.50601
   7  -5   6    3.08    0.47   1-0.80891-0.15213 0.01606 0.50629-0.58770-0.84883
  -7   5  -6    3.35    0.47   1-0.21708-0.87389 0.96332 0.47469-0.15772 0.10471
   7  -5   7   10.40    0.61   1-0.24191 0.40775 0.00862 0.56063 0.97026 0.72071
   7  -5   7    9.76    0.53   1 0.07766 0.72790-0.94706-0.39533-0.31149-0.56023
   7  -5   7   10.10    0.60   1-0.80878-0.15870-0.02419 0.52830-0.58761-0.83408
  -7   5  -7   10.10    0.66   1-0.26791-0.91815 0.94357 0.39265-0.19465 0.05308
  -7   5  -8    6.37    0.58   1-0.09220-0.73374 0.92452 0.30995 0.36980 0.60460
   7  -5   8    7.72    0.68   1-0.24140 0.40145-0.06525 0.54910 0.96822 0.73301
   7  -5   8    7.58    0.71   1-0.80735-0.16397-0.06403 0.55074-0.58657-0.81840
  -7   5  -8    7.84    0.71   1-0.30623-0.94989 0.92559 0.31237-0.22249 0.01054
   7  -4  -7    0.13    0.40   1-0.20789 0.47970-0.51140-0.81140 0.83381 0.33392
  -7   4   7    0.17    0.43   1 0.04097-0.64579-0.98555-0.68576-0.16434 0.33566
   7  -4  -6    0.00    0.38   1-0.19651 0.48434-0.58321-0.82086 0.78818 0.30263
   7  -4  -5    2.18    0.33   1-0.18271 0.49141-0.65540-0.83069 0.73284 0.26163
  -7   4   5    2.22    0.31   1 0.07257-0.60086-0.95393-0.77879-0.29109 0.18010
   7  -4  -4    8.51    0.58   1-0.09177 0.57550 0.92525 0.81289 0.36808-0.08944
   7  -4  -4    8.18    0.56   1-0.16621 0.50117-0.72658-0.83952 0.66667 0.20979
   7  -4  -3    8.13    0.50   1-0.11205 0.54833 0.88625 0.83623 0.44943 0.00633
   7  -4  -3    7.45    0.44   1-0.14684 0.51382-0.79471-0.84530 0.58895 0.14641
   7  -4  -2   24.29    1.27   1-0.13308 0.52043 0.83510 0.84741 0.53375 0.10509
   7  -4  -2   22.98    1.18   1-0.12444 0.52925-0.85755-0.84548 0.49910 0.07097
   7  -4  -1    4.57    1.52   1-0.15391 0.49271 0.77151 0.84615 0.61731 0.20308
   7  -4  -1    5.84    1.44   1-0.09967 0.54735-0.91118-0.83678 0.39975-0.01398
   7  -4   0   12.36    0.93   1-0.17356 0.46617 0.69660 0.83357 0.69614 0.29635
   7  -4   0   11.47    0.91   1-0.07303 0.56731-0.95333-0.81659 0.29294-0.10639
   7  -4   0   10.26    0.84   1-0.80643-0.16635-0.07983 0.05808-0.58590-0.98435
   7  -4   1    6.53    0.98   1-0.19118 0.44167 0.61273 0.81204 0.76681 0.38145
   7  -4   1    6.98    1.09   1-0.04553 0.58814-0.98212-0.78305 0.18265-0.20228
   7  -4   1    8.07    0.62   1-0.80842-0.17505-0.03822 0.16196-0.58735-0.97114
   7  -4   2   17.36    0.92   1-0.20618 0.41979 0.52308 0.78472 0.82696 0.45603
   7  -4   2   17.09    1.10   1-0.01832 0.60867-0.99712-0.73572 0.07351-0.29702
   7  -4   2   15.95    0.87   1-0.80853-0.18186-0.03465 0.22780-0.58743-0.95657
   7  -4   3   14.40    0.78   1-0.21846 0.40130 0.42957 0.75392 0.87620 0.52014
   7  -4   3   13.58    0.69   1 0.00749 0.62762-0.99952-0.67609-0.03005-0.38597
   7  -4   3   13.37    0.72   1-0.80817-0.18820-0.04571 0.27902-0.58717-0.94166
  -7   4  -3   14.28    0.71   1-0.04227-0.66183 0.99863 0.67548-0.03071 0.32510
   7  -4   4   11.13    0.66   1-0.22770 0.38522 0.33779 0.72447 0.91326 0.57161
   7  -4   4   10.54    0.59   1 0.03109 0.64455-0.99170-0.60596-0.12469-0.46621
   7  -4   4   11.53    0.67   1-0.80734-0.19407-0.06436 0.32264-0.58656-0.92640
  -7   4  -4   10.86    0.60   1-0.15796-0.77095 0.98075 0.59530-0.11476 0.22634
   7  -4   5   11.61    0.67   1-0.23433 0.37174 0.24847 0.69748 0.93986 0.61263
   7  -4   5   11.56    0.64   1 0.05192 0.65873-0.97669-0.52862-0.20826-0.53537
   7  -4   5   12.07    0.76   1-0.80590-0.19935-0.08755 0.36172-0.58552-0.91071
  -7   4  -5   11.37    0.64   1-0.24290-0.84933 0.95386 0.50612-0.17648 0.14992
   7  -4   6    1.02    0.34   1-0.23869 0.36053 0.16289 0.67424 0.95733 0.64452
   7  -4   6    1.13    0.31   1 0.06981 0.66995-0.95745-0.44706-0.28000-0.59269
   7  -4   6    1.00    0.35   1-0.80376-0.20390-0.11373 0.39782-0.58397-0.89451
  -7   4  -6    0.97    0.32   1-0.30493-0.90478 0.92624 0.41621-0.22154 0.09015
   7  -4   7    0.52    0.39   1-0.24111 0.35126 0.08169 0.65537 0.96705 0.66865
   7  -4   7    0.37    0.35   1-0.80081-0.20766-0.14200 0.43182-0.58182-0.87772
  -7   4  -8    0.00    0.28   1-0.09756-0.68225 0.91508 0.27942 0.39129 0.67561
   7  -4   8   -0.03    0.41   1-0.24191 0.34414 0.00616 0.64157 0.97027 0.68552
  -7   4  -8    0.08    0.36   1-0.38238-0.96909 0.88124 0.24663-0.27782 0.00447
   7  -3  -8    2.73    0.41   1-0.20643 0.43111-0.52138-0.86273 0.82797 0.26423
  -7   3   8    3.45    0.43   1 0.02796-0.60871-0.99329-0.65216-0.11214 0.45181
   7  -3  -7   19.22    1.11   1-0.19528 0.43553-0.59026-0.86927 0.78322 0.23383
  -7   3   7   21.76    1.13   1 0.03999-0.59001-0.98623-0.70742-0.16042 0.38913
   7  -3  -6   10.62    0.63   1-0.18198 0.44210-0.65890-0.87555 0.72988 0.19482
  -7   3   6   11.42    0.60   1 0.05412-0.56922-0.97465-0.75816-0.21708 0.31806
   7  -3  -5    3.69    0.35   1-0.16633 0.45101-0.72612-0.88042 0.66714 0.14641
  -7   3   5    3.59    0.33   1 0.07027-0.54641-0.95688-0.80271-0.28184 0.23890
   7  -3  -4   23.24    1.09   1-0.08852 0.52189 0.93063 0.83936 0.35506-0.15198
   7  -3  -4   22.95    1.09   1-0.14822 0.46239-0.79033-0.88228 0.59447 0.08808
   7  -3  -3    4.93    0.35   1-0.10776 0.49577 0.89529 0.86635 0.43223-0.06037
   7  -3  -3    4.90    0.36   1-0.12764 0.47624-0.84948-0.87908 0.51194 0.01987
   7  -3  -2    5.99    0.41   1-0.12775 0.46890 0.84919 0.88258 0.51239 0.03420
   7  -3  -2    5.83    0.50   1-0.10466 0.49228-0.90157-0.86850 0.41977-0.05785
   7  -3  -1    2.58    0.54   1-0.14770 0.44207 0.79198 0.88770 0.59241 0.12866
   7  -3  -1    2.69    0.76   1-0.08007 0.51020-0.94363-0.84823 0.32115-0.14207
   7  -3   0    2.24    0.42   1-0.16679 0.41609 0.72433 0.88239 0.66897 0.21966
   7  -3   0    1.90    0.49   1-0.05444 0.52915-0.97434-0.81662 0.21835-0.23048
   7  -3   1    1.00    0.47   1-0.18426 0.39174 0.64794 0.86833 0.73906 0.30418
   7  -3   1    1.01    0.37   1-0.02866 0.54825-0.99295-0.77289 0.11498-0.31945
   7  -3   1    1.19    0.25   1-0.73617-0.15972-0.41468-0.19315-0.53486-0.96807
   7  -3   2    0.42    0.33   1-0.19956 0.36955 0.56523 0.84796 0.80042 0.37998
   7  -3   2    0.52    0.27   1-0.00370 0.56633-0.99988-0.71780 0.01486-0.40500
   7  -3   2    0.66    0.22   1-0.77173-0.20198-0.30009-0.01629-0.56069-0.97925
  -7   3  -2    0.43    0.28   1 0.02975-0.53942 0.99932 0.71706 0.02161 0.44141
   7  -3   3    0.34    0.23   1-0.21254 0.35041 0.47763 0.82311 0.85245 0.44687
   7  -3   3    0.21    0.38   1 0.01966 0.58304-0.99669-0.65228-0.07887-0.48434
  -7   3  -3    0.10    0.34   1-0.14616-0.70876 0.98354 0.63899-0.10619 0.29889
   7  -3   4    2.89    0.30   1-0.22275 0.33335 0.39007 0.79787 0.89343 0.50226
   7  -3   4    2.83    0.43   1 0.04082 0.59753-0.98566-0.57893-0.16372-0.55478
   7  -3   4    2.92    0.36   1-0.78476-0.22842-0.24302 0.16531-0.57016-0.95942
  -7   3  -4    3.10    0.34   1-0.26200-0.81803 0.94610 0.53926-0.19035 0.20002
   7  -3   5    4.52    0.33   1-0.23052 0.31873 0.30336 0.77349 0.92457 0.54781
   7  -3   5    4.01    0.35   1 0.05942 0.60947-0.96935-0.50031-0.23835-0.61500
   7  -3   5    4.10    0.49   1-0.78484-0.23520-0.24263 0.22797-0.57022-0.94483
  -7   3  -5    3.95    0.62   1-0.34020-0.88967 0.90728 0.43814-0.24717 0.12850
   7  -3   6    4.58    0.34   1-0.23605 0.30635 0.21892 0.75139 0.94675 0.58442
   7  -3   6    4.27    0.36   1 0.07538 0.61877-0.95020-0.41883-0.30236-0.66460
  -7   3  -7    9.27    0.57   1-0.08918-0.62390 0.92956 0.33516 0.35770 0.70598
   7  -3   7   10.43    0.62   1-0.23961 0.29594 0.13764 0.73244 0.96106 0.61314
   7  -3   7    9.67    1.38   1-0.78001-0.24378-0.26534 0.32981-0.56671-0.91202
  -7   3  -7   10.01    1.07   1-0.43180-0.96746 0.84564 0.25090-0.31372 0.03236
  -7   3  -8    2.50    0.47   1-0.10020-0.62804 0.91017 0.25344 0.40191 0.73575
   7  -3   8    2.35    0.36   1-0.24148 0.28723 0.05995 0.71708 0.96855 0.63505
   7  -3   8    2.49    0.40   1-0.77575-0.24622-0.28376 0.37366-0.56362-0.89428
  -7   3  -8    2.51    0.49   1-0.45670-0.98572 0.82542 0.16838-0.33181-0.00043
   7  -2  -8    4.16    0.38   1-0.19597 0.38479-0.58633-0.90669 0.78600 0.17275
  -7   2   8    4.89    0.39   1 0.02954-0.55037-0.99251-0.67236-0.11851 0.49499
   7  -2  -7    0.19    0.36   1-0.18335 0.39067-0.65234-0.91035 0.73540 0.13649
  -7   2   7    0.24    0.40   1 0.04131-0.53193-0.98530-0.72747-0.16571 0.43338
   7  -2  -6    0.68    0.36   1-0.16867 0.39862-0.71683-0.91249 0.67653 0.09195
  -7   2   6    0.75    0.28   1 0.05500-0.51158-0.97380-0.77829-0.22063 0.36406
   7  -2  -5   -0.02    0.26   1-0.15183 0.40873-0.77852-0.91183 0.60897 0.03872
  -7   2   5   -0.02    0.25   1 0.07053-0.48938-0.95654-0.82335-0.28291 0.28736
   7  -2  -4   -0.05    0.25   1-0.08800 0.46555 0.93148 0.86128 0.35298-0.20358
   7  -2  -4   -0.00    0.26   1-0.13282 0.42101-0.83579-0.90675 0.53272-0.02318
   7  -2  -3    2.50    0.30   1-0.10633 0.44034 0.89821 0.89035 0.42649-0.11563
   7  -2  -3    2.46    0.42   1-0.11164 0.43522-0.88714-0.89542 0.44778-0.09375
   7  -2  -2   10.53    0.88   1-0.12536 0.41444 0.85526 0.90973 0.50279-0.02490
   7  -2  -2   10.06    0.93   1-0.08892 0.45127-0.92999-0.87594 0.35664-0.17049
   7  -2  -1    8.23    0.90   1-0.14441 0.38850 0.80228 0.91908 0.57921 0.06595
   7  -2  -1    7.89    1.18   1-0.06503 0.46848-0.96318-0.84680 0.26084-0.25189
   7  -2   0   13.82    0.94   1-0.16279 0.36324 0.73972 0.91886 0.65292 0.15409
   7  -2   0   12.55    1.25   1-0.04068 0.48616-0.98575-0.80703 0.16317-0.33516
   7  -2   1    7.48    0.99   1-0.17983 0.33931 0.66888 0.91035 0.72128 0.23689
   7  -2   1    8.41    1.17   1-0.01664 0.50353-0.99763-0.75657 0.06675-0.41718
   7  -2   2   21.77    1.08   1-0.19503 0.31723 0.59164 0.89545 0.78224 0.31228
   7  -2   2   21.64    1.14   1 0.00631 0.51959-0.99965-0.69659-0.02532-0.49474
   7  -2   2   21.07    1.01   1-0.66685-0.15446-0.56617-0.26100-0.48450-0.95289
  -7   2  -2   21.47    1.02   1-0.08552-0.59774 0.99439 0.69073-0.06213 0.40692
   7  -2   3    9.71    0.60   1-0.20822 0.29791 0.50908 0.87568 0.83515 0.38004
   7  -2   3    8.94    0.56   1 0.02761 0.53423-0.99346-0.62807-0.11077-0.56578
   7  -2   3    9.19    0.52   1-0.71494-0.20882-0.46802-0.10062-0.51943-0.97276
  -7   2  -3    9.43    0.59   1-0.26867-0.77432 0.94324 0.57729-0.19520 0.25914
   7  -2   4   15.97    0.78   1-0.21892 0.28036 0.42552 0.85445 0.87806 0.43737
   7  -2   4   15.20    0.74   1 0.04680 0.54675-0.98110-0.55339-0.18773-0.62833
   7  -2   4   15.01    0.74   1-0.73409-0.23467-0.42028 0.00938-0.53335-0.97202
  -7   2  -4   15.89    0.75   1-0.37326-0.87234 0.88720 0.45895-0.27119 0.16845
   7  -2   5    6.75    0.44   1-0.22735 0.26508 0.34175 0.83301 0.91187 0.48559
   7  -2   5    6.19    0.47   1 0.06365 0.55694-0.96476-0.47473-0.25530-0.68149
   7  -2   5    6.17    0.37   1-0.74262-0.24990-0.39673 0.09521-0.53954-0.96357
  -7   2  -5    6.29    0.58   1-0.43966-0.93160 0.83943 0.34788-0.31943 0.10531
   7  -2   6   14.79    0.80   1-0.23365 0.25194 0.25918 0.81277 0.93713 0.52528
   7  -2   6   13.60    0.73   1 0.07811 0.56474-0.94643-0.39408-0.31331-0.72509
   7  -2   6   14.62    0.77   1-0.74575-0.25974-0.38764 0.16656-0.54182-0.95120
  -7   2  -6   15.64    0.83   1-0.48100-0.96629 0.80405 0.25020-0.34946 0.06056
  -7   2  -7   10.19    0.61   1-0.09064-0.56850 0.92714 0.31166 0.36356 0.76135
   7  -2   7   10.86    0.68   1-0.23802 0.24072 0.17877 0.79470 0.95466 0.55722
   7  -2   7   10.09    1.11   1-0.74560-0.26629-0.38809 0.22838-0.54171-0.93644
  -7   2  -7   10.76    1.15   1-0.50771-0.98637 0.77855 0.16240-0.36888 0.02644
  -7   2  -8    0.30    0.41   1-0.10068-0.57165 0.90928 0.23147 0.40380 0.78716
   7  -2   8    0.46    0.34   1-0.24068 0.23122 0.10114 0.77940 0.96531 0.58229
   7  -1  -8    3.90    0.48   1-0.18626 0.33771-0.63809-0.93746 0.74708 0.08431
  -7   1   8    4.06    0.37   1 0.03300-0.49015-0.99064-0.69147-0.13238 0.53066
   7  -1  -7    8.96    0.61   1-0.17260 0.34465-0.70069-0.93770 0.69227 0.04383
  -7   1   7    9.86    0.62   1 0.04458-0.47191-0.98287-0.74602-0.17880 0.46983
   7  -1  -6    7.67    0.59   1-0.15701 0.35350-0.76075-0.93542 0.62975-0.00433
  -7   1   6    8.53    0.54   1 0.05792-0.45191-0.97091-0.79638-0.23230 0.40192
   7  -1  -5   23.16    1.15   1-0.13949 0.36429-0.81701-0.92933 0.55948-0.06027
  -7   1   5   23.50    1.05   1 0.07292-0.43024-0.95348-0.84127-0.29249 0.32733
   7  -1  -4   15.28    0.76   1-0.08970 0.40700 0.92871 0.87959 0.35978-0.24629
   7  -1  -4   15.66    0.86   1-0.11999 0.37679-0.86831-0.91793 0.48127-0.12415
   7  -1  -3    5.86    0.38   1-0.10721 0.38261 0.89644 0.90965 0.43000-0.16164
   7  -1  -3    5.38    0.88   1-0.09901 0.39109-0.91240-0.89969 0.39713-0.19389
   7  -1  -2   28.87    1.40   1-0.12533 0.35761 0.85534 0.93089 0.50267-0.07453
   7  -1  -2   27.71    1.40   1-0.07680 0.40663-0.94826-0.87321 0.30805-0.26858
   7  -1   0    6.30    0.62   1-0.16107 0.30810 0.74610 0.94632 0.64605 0.09770
   7  -1   0    6.26    0.72   1-0.03090 0.43919-0.99180-0.79209 0.12394-0.42389
   7  -1   1    6.57    0.65   1-0.17752 0.28477 0.67935 0.94190 0.71201 0.17810
   7  -1   1    6.52    0.71   1-0.00849 0.45492-0.99938-0.73733 0.03407-0.49936
   7  -1   2    1.06    0.29   1-0.52050-0.06505-0.76554-0.43920-0.37817-0.89602
  -7   1  -2    1.01    0.25   1-0.24366-0.69893 0.95356 0.62849-0.17703 0.34128
   7  -1   3    3.34    0.30   1-0.20529 0.24323 0.52901 0.91623 0.82340 0.31836
   7  -1   3    3.21    0.34   1 0.03226 0.48211-0.99106-0.60470-0.12939-0.63395
   7  -1   3    3.49    0.35   1-0.61653-0.16780-0.64747-0.25887-0.44794-0.95122
  -7   1  -3    3.58    0.37   1-0.40302-0.85172 0.86707 0.47972-0.29281 0.21079
   7  -1   4    0.23    0.23   1-0.21628 0.22619 0.44800 0.89806 0.86747 0.37726
   7  -1   4    0.16    0.27   1 0.04984 0.49303-0.97854-0.52986-0.19990-0.69004
  -7   1  -4    0.03    0.26   1-0.48557-0.92715 0.79984 0.34917-0.35279 0.13590
   7  -1   5    0.23    0.24   1-0.22502 0.21060 0.36712 0.87950 0.90254 0.42674
   7  -1   5    0.27    0.33   1 0.06527 0.50180-0.96290-0.45190-0.26181-0.73754
   7  -1   5    0.28    0.26   1-0.68106-0.24577-0.53971-0.02657-0.49482-0.96896
   7  -1   6    0.44    0.25   1-0.23176 0.19701 0.28666 0.86138 0.92957 0.46819
   7  -1   6    0.28    0.27   1 0.07855 0.50841-0.94581-0.37249-0.31505-0.77637
  -7   1  -7    3.15    0.33   1-0.09007-0.51107 0.92809 0.29153 0.36127 0.80858
   7  -1   7    3.51    0.33   1-0.23665 0.18528 0.20762 0.84467 0.94915 0.50218
  -7   1  -8    2.20    0.33   1-0.09933-0.51345 0.91181 0.21291 0.39840 0.83128
   7  -1   8    2.11    0.31   1-0.23984 0.17524 0.13067 0.83005 0.96197 0.52943
   7  -1   8    2.00    0.47   1-0.69988-0.28419-0.50159 0.19849-0.50849-0.93799
  -7   1  -8    2.37    0.45   1-0.58495-0.99994 0.69079-0.00905-0.42499 0.00483
   7   0  -8    1.89    0.33   1-0.17765 0.28955-0.67879-0.95716 0.71251 0.00023
  -7   0   8    2.13    0.33   1 0.03809-0.42831-0.98752-0.70933-0.15277 0.55981
   7   0  -7    6.42    0.41   1-0.16329 0.29717-0.73783-0.95385 0.65493-0.04301
  -7   0   7    7.12    0.41   1 0.04951-0.41022-0.97883-0.76296-0.19858 0.49960
   7   0  -6    7.73    0.52   1-0.14719 0.30654-0.79360-0.94727 0.59035-0.09325
  -7   0   6    8.06    0.58   1 0.06254-0.39052-0.96600-0.81244-0.25086 0.43291
   7   0  -5    0.38    0.27   1-0.12940 0.31760-0.84491-0.93624 0.51900-0.15027
  -7   0   5    0.39    0.26   1 0.07708-0.36932-0.94788-0.85664-0.30916 0.36020
   7   0  -4    0.13    0.25   1-0.09323 0.34661 0.92275 0.89471 0.37393-0.28166
   7   0  -4    0.07    0.26   1-0.10995 0.33008-0.89075-0.91938 0.44099-0.21394
   7   0  -3    0.08    0.25   1-0.10997 0.32299 0.89070 0.92500 0.44107-0.20009
   7   0   0    9.57    0.82   1-0.16125 0.25106 0.74543 0.96673 0.64677 0.04891
   7   0   0    9.31    0.90   1-0.02442 0.38891-0.99488-0.77418 0.09797-0.49937
   7   0   1    8.82    0.84   1-0.17700 0.22843 0.68167 0.96530 0.70992 0.12649
   7   0   1    9.08    0.91   1-0.00356 0.40286-0.99989-0.71719 0.01428-0.56862
   7   0   2    4.93    0.49   1-0.19132 0.20723 0.61199 0.95796 0.76736 0.19836
   7   0   2    4.81    0.54   1 0.01613 0.41589-0.99777-0.65275-0.06469-0.63320
   7   0   2    5.51    0.34   1-0.38362 0.01488-0.88042-0.53292-0.27871-0.84603
  -7   0  -2    5.39    0.33   1-0.42645-0.82475 0.84978 0.50332-0.30983 0.25775
   7   0   3    8.72    0.50   1-0.20393 0.18774 0.53794 0.94624 0.81794 0.26337
   7   0   3    8.53    0.52   1 0.03422 0.42732-0.98994-0.58260-0.13725-0.69135
   7   0   3    8.76    0.50   1-0.50912-0.11733-0.77715-0.36738-0.36989-0.92263
  -7   0  -3    8.37    0.49   1-0.53434-0.92555 0.75083 0.34104-0.38822 0.16441
   7   0   4   23.25    1.02   1-0.21479 0.17086 0.46009 0.93127 0.86149 0.32175
   7   0   4   21.26    0.98   1 0.05046 0.43689-0.97799-0.50833-0.20241-0.74210
   7   0   4   21.87    1.00   1-0.57210-0.18704-0.70705-0.23501-0.41565-0.95382
  -7   0  -4   22.36    1.02   1-0.58449-0.96905 0.69139 0.21931-0.42466 0.11326
   7   0   5    6.80    0.37   1-0.22358 0.15522 0.38187 0.91538 0.89675 0.37144
   7   0   5    6.10    0.47   1 0.06474 0.44451-0.96351-0.43153-0.25969-0.78497
   7   0   5    6.02    0.37   1-0.60778-0.22943-0.66000-0.12570-0.44157-0.96517
  -7   0  -5    6.42    0.43   1-0.61172-0.98963 0.65441 0.12004-0.44444 0.07876
   7   0   6   11.80    0.66   1-0.23050 0.14146 0.30355 0.89939 0.92451 0.41361
   7   0   6    9.64    0.59   1 0.07706 0.45016-0.94791-0.35360-0.30907-0.81994
   7   0   6   10.74    0.64   1-0.62873-0.25710-0.62930-0.03272-0.45680-0.96582
  -7   0  -6   10.96    0.73   1-0.62667-0.99794 0.63243 0.03576-0.45530 0.05318
  -7   0  -7    2.16    0.31   1-0.08777-0.45192 0.93186 0.27421 0.35203 0.84886
   7   0   7    2.15    0.30   1-0.23565 0.12946 0.22608 0.88426 0.94517 0.44868
   7   0   7    2.40    0.34   1-0.64075-0.27584-0.61050 0.04834-0.46553-0.95998
  -7   0  -7    2.20    0.41   1-0.63410-0.99873 0.62100-0.03795-0.46070 0.03306
   7   1  -8    3.39    0.48   1-0.17031 0.24010-0.71017-0.96755 0.68311-0.07868
  -7  -1   8    3.39    0.41   1 0.04460-0.36504-0.98285-0.72564-0.17888 0.58325
   7   1  -7    6.72    0.50   1-0.15557 0.24811-0.76579-0.96082 0.62397-0.12348
  -7  -1   7    7.20    0.41   1 0.05588-0.34709-0.97295-0.77806-0.22414 0.52359
   7   1  -6    4.53    0.46   1-0.13927 0.25768-0.81765-0.95033 0.55860-0.17452
  -7  -1   6    4.45    0.35   1 0.06863-0.32767-0.95890-0.82633-0.27528 0.45803
   7   1  -5    8.79    0.61   1-0.12140 0.26855-0.86495-0.93493 0.48693-0.23190
   7   1  -4   13.70    0.68   1-0.09828 0.28471 0.91374 0.90679 0.39420-0.31091
   7   1  -4   14.38    0.90   1-0.10238 0.28090-0.90602-0.91366 0.41065-0.29378
   7   1  -3   17.93    1.19   1-0.11429 0.26182 0.88136 0.93674 0.45839-0.23228
   7   1  -3   17.69    1.35   1-0.08239 0.29421-0.94021-0.88551 0.33047-0.35956
   7   1  -2   15.57    1.18   1-0.13071 0.23851 0.84145 0.95917 0.52426-0.15198
   7   1  -2   20.60    1.44   1-0.06181 0.30812-0.96680-0.84977 0.24793-0.42771
   7   1  -1    4.45    0.99   1-0.14710 0.21524 0.79387 0.97391 0.59002-0.07179
   7   1   0   20.50    1.13   1-0.16301 0.19245 0.73890 0.98128 0.65379 0.00641
   7   1   0   24.42    1.66   1-0.02073 0.33585-0.99632-0.75462 0.08316-0.56367
   7   1   1    8.97    1.07   1-0.17798 0.17060 0.67729 0.98201 0.71385 0.08090
   7   1   1    9.79    1.61   1-0.00123 0.34842-0.99998-0.69630 0.00496-0.62749
   7   1   2    6.86    0.53   1-0.19167 0.15003 0.61014 0.97719 0.76875 0.15023
   7   1   2    6.57    0.54   1 0.01711 0.36011-0.99749-0.63149-0.06863-0.68668
  -7  -1  -2    6.44    0.36   1-0.58840-0.92924 0.68631 0.31740-0.42749 0.18909
   7   1   3    7.31    0.46   1-0.20380 0.13101 0.53876 0.96815 0.81743 0.21335
   7   1   3    6.66    0.41   1 0.03394 0.37028-0.99010-0.56178-0.13614-0.73978
   7   1   3    7.35    0.52   1-0.40798-0.07314-0.86352-0.43259-0.29642-0.89861
  -7  -1  -3    7.35    0.49   1-0.63967-0.97387 0.61222 0.18102-0.46475 0.13711
   7   1   4    0.68    0.26   1-0.21435 0.11449 0.46359 0.95589 0.85972 0.27047
   7   1   4    0.81    0.29   1 0.04906 0.37874-0.97921-0.48857-0.19680-0.78603
   7   1   4    0.78    0.27   1-0.48268-0.15456-0.80251-0.30931-0.35069-0.93831
  -7  -1  -4    0.76    0.44   1-0.66387-0.99142 0.57150 0.07801-0.48233 0.10481
   7   1   5    3.84    0.33   1-0.22299 0.09900 0.38775 0.94238 0.89438 0.31954
   7   1   5    3.19    0.44   1 0.06239 0.38540-0.96617-0.41320-0.25023-0.82506
   7   1   5    3.48    0.37   1-0.52889-0.20748-0.75671-0.20124-0.38426-0.95731
  -7  -1  -5    3.35    0.41   1-0.67575-0.99665 0.54982-0.00596-0.49096 0.08147
   7   1   6   -0.00    0.26   1-0.22988 0.08526 0.31145 0.92842 0.92203 0.36161
   7   1   6   -0.00    0.27   1 0.07391 0.39025-0.95218-0.33690-0.29643-0.85685
   7   1   6   -0.01    0.29   1-0.55824-0.24356-0.72377-0.10603-0.40559-0.96407
  -7  -1  -6    0.02    0.37   1-0.68072-0.99497 0.54038-0.07769-0.49457 0.06315
   7   2  -8   13.00    0.68   1-0.16437 0.18926-0.73370-0.97008 0.65928-0.15202
  -7  -2   8   13.64    0.65   1 0.05236-0.30052-0.97629-0.74005-0.21001 0.60166
   7   2  -7    9.99    0.63   1-0.14949 0.19741-0.78621-0.96024 0.59960-0.19737
  -7  -2   7    9.58    0.66   1 0.06350-0.28271-0.96492-0.79101-0.25471 0.54255
   7   2  -6    2.62    0.35   1-0.13324 0.20693-0.83465-0.94634 0.53441-0.24823
  -7  -2   6    2.69    0.33   1 0.07597-0.26357-0.94940-0.83780-0.30473 0.47812
   7   2  -5    9.13    0.56   1-0.09000 0.24302 0.92821 0.88000 0.36098-0.40808
   7   2  -5    9.35    0.59   1-0.11564 0.21756-0.87834-0.92732 0.46382-0.30451
   7   2  -4    7.98    0.54   1-0.10461 0.22152 0.90166 0.91578 0.41959-0.33504
   7   2  -4    8.04    0.53   1-0.09711 0.22941-0.91588-0.90253 0.38952-0.36442
   7   2  -3    1.25    0.38   1-0.11990 0.19935 0.86853 0.94499 0.48089-0.25930
   7   2  -2    0.25    0.26   1-0.13550 0.17687 0.82841 0.96720 0.54347-0.18228
   7   2  -2    0.31    0.28   1-0.05820 0.25498-0.97062-0.83260 0.23346-0.49168
   7   2  -1    0.38    0.26   1-0.15102 0.15447 0.78121 0.98233 0.60572-0.10560
   7   2  -1    0.41    0.29   1-0.03859 0.26792-0.98719-0.78684 0.15478-0.55596
   7   2   0   -0.20    0.25   1-0.16605 0.13255 0.72723 0.99069 0.66600-0.03089
   7   2   0    0.21    0.40   1-0.01942 0.28042-0.99677-0.73408 0.07790-0.61844
   7   2   2    7.46    0.48   1-0.19318 0.09165 0.60191 0.99004 0.77483 0.10680
   7   2   2    7.02    0.42   1 0.01600 0.30225-0.99780-0.61083-0.06420-0.73179
   7   2   3    5.35    0.35   1-0.20474 0.07322 0.53267 0.98313 0.82118 0.16758
   7   2   3    5.50    0.39   1 0.03175 0.31133-0.99134-0.54204-0.12736-0.78054
   7   2   3    5.32    0.39   1-0.31888-0.04099-0.91903-0.46694-0.23168-0.88333
  -7  -2  -3    5.26    0.42   1-0.71384-0.99102 0.47057 0.01796-0.51863 0.13246
   7   2   4    0.81    0.27   1-0.21483 0.05719 0.45973 0.97316 0.86167 0.22289
   7   2   4    0.76    0.30   1 0.04592 0.31883-0.98181-0.47019-0.18418-0.82295
   7   2   4    0.91    0.34   1-0.39715-0.12597-0.87120-0.35684-0.28854-0.92563
  -7  -2  -4    0.76    0.37   1-0.72120-0.99173 0.45310-0.06180-0.52398 0.11239
   7   2   5    6.34    0.37   1-0.22317 0.04201 0.38597 0.96173 0.89510 0.27074
   7   2   5    5.52    0.39   1 0.05843 0.32468-0.97039-0.39645-0.23435-0.85872
   7   2   5    6.29    0.39   1-0.44954-0.18508-0.83140-0.25476-0.32661-0.94912
  -7  -2  -5    5.91    0.48   1-0.72310-0.98699 0.44845-0.12874-0.52536 0.09630
   7   2   6   15.11    0.68   1-0.22988 0.02845 0.31154 0.94963 0.92200 0.31206
   7   2   6   12.59    0.62   1 0.06928 0.32887-0.95811-0.32185-0.27788-0.88783
   7   2   6   13.79    0.65   1-0.48505-0.22731-0.80033-0.16142-0.35241-0.96034
  -7  -2  -6   14.13    0.73   1-0.72157-0.97881 0.45219-0.18729-0.52425 0.08269
   7   3  -7    0.64    0.31   1-0.14505 0.14507-0.80030-0.95335 0.58177-0.26471
  -7  -3   7    0.93    0.30   1 0.07221-0.21724-0.95440-0.80147-0.28964 0.55717
   7   3  -6    2.05    0.34   1-0.12903 0.15436-0.84588-0.93657 0.51752-0.31463
   7   3  -5    4.30    0.36   1-0.09797 0.17818 0.91431 0.88718 0.39297-0.42561
   7   3  -5    4.34    0.38   1-0.11186 0.16459-0.88667-0.91466 0.44866-0.36918
   7   3  -4    4.33    0.43   1-0.11200 0.15728 0.88636 0.92157 0.44923-0.35492
   7   3  -4    3.58    0.48   1-0.09395 0.17583-0.92151-0.88717 0.37681-0.42662
   7   3  -3    6.37    0.52   1-0.12657 0.13582 0.85219 0.94973 0.50767-0.28204
   7   3  -3    5.38    0.99   1-0.07548 0.18763-0.95007-0.85340 0.30274-0.48630
   7   3  -2   15.70    1.10   1-0.14136 0.11415 0.81150 0.97138 0.56698-0.20830
   7   3  -2   14.08    0.92   1-0.05678 0.19965-0.97205-0.81305 0.22776-0.54688
   7   3   0   15.53    1.41   1-0.17015 0.07159 0.71083 0.99538 0.68246-0.06395
   7   3   0   15.10    1.55   1-0.02017 0.22292-0.99651-0.71284 0.08090-0.66495
   7   3   1    8.35    0.95   1-0.18347 0.05140 0.65179 0.99867 0.73586 0.00388
   7   3   1    9.43    1.03   1-0.00302 0.23312-0.99992-0.65428 0.01212-0.71941
   7   3   2   10.95    0.61   1-0.19568 0.03231 0.58800 0.99721 0.78483 0.06728
   7   3   2   10.68    0.64   1 0.01309 0.24258-0.99853-0.59057-0.05252-0.76965
   7   3   3    8.13    0.41   1-0.20657 0.01453 0.52045 0.99199 0.82852 0.12541
   7   3   3    8.10    0.45   1 0.02789 0.25071-0.99333-0.52305-0.11186-0.81459
  -7  -3  -3    7.70    0.62   1-0.76003-0.98020 0.34265-0.13135-0.55220 0.14812
   7   3   4    5.00    0.36   1-0.21611-0.00089 0.44938 0.98394 0.86680 0.17849
   7   3   4    4.45    0.48   1 0.04122 0.25738-0.98537-0.45277-0.16535-0.85366
   7   3   4    3.93    0.38   1-0.31786-0.10362-0.91958-0.38405-0.23094-0.91747
  -7  -3  -4    4.27    0.58   1-0.75901-0.97253 0.34610-0.19020-0.55145 0.13415
   7   3   5    4.55    0.49   1-0.37268-0.16516-0.88757-0.28977-0.27076-0.94273
  -7  -3  -5    4.28    0.54   1-0.75577-0.96264 0.35678-0.24182-0.54910 0.12179
   7   4  -6   15.20    0.72   1-0.09409 0.13209 0.92125 0.85287 0.37740-0.50513
   7   4  -6   15.40    0.74   1-0.12655 0.10006-0.85226-0.92196 0.50756-0.37411
   7   4  -5    7.61    0.46   1-0.10684 0.11246 0.89718 0.89113 0.42853-0.43957
   7   4  -5    7.55    0.48   1-0.10992 0.10978-0.89081-0.89781 0.44087-0.42647
   7   4  -4    4.53    0.69   1-0.12027 0.09215 0.86765 0.92394 0.48239-0.37127
   7   4  -4    3.72    0.56   1-0.09270 0.12033-0.92367-0.86834 0.37180-0.48114
   7   4  -3    7.67    0.58   1-0.13412 0.07142 0.83223 0.95085 0.53795-0.30128
   7   4  -3    7.00    0.63   1-0.07506 0.13130-0.95064-0.83298 0.30105-0.53749
   7   4  -2    3.67    0.68   1-0.14809 0.05056 0.79072 0.97168 0.59398-0.23082
   7   4  -2    3.80    0.70   1-0.05730 0.14238-0.97153-0.79153 0.22985-0.59429
   7   4  -1    2.10    0.52   1-0.16186 0.02991 0.74318 0.98647 0.64920-0.16116
   7   4  -1    5.78    0.99   1-0.03975 0.15325-0.98640-0.74407 0.15946-0.65028
   7   4   0    1.44    0.38   1-0.17511 0.00978 0.68994 0.99556 0.70236-0.09357
   7   4   0    1.68    0.83   1-0.02273 0.16361-0.99557-0.69091 0.09117-0.70418
   7   4   1    0.44    0.28   1-0.18756-0.00954 0.63157 0.99952 0.75228-0.02921
   7   4   1    0.40    0.32   1-0.00651 0.17315-0.99963-0.63264 0.02611-0.75484
   7   4   2   -0.14    0.39   1-0.19896-0.02783 0.56884 0.99913 0.79801 0.03095
   7   4   2    0.01    0.31   1 0.00857 0.18130-0.99937-0.57043-0.03440-0.80108
   7   4   3    0.03    0.39   1-0.20924-0.04399 0.50189 0.99523 0.83923 0.08699
   7   4   3   -0.02    0.44   1 0.02252 0.18859-0.99565-0.50439-0.09035-0.84262
  -7  -4  -3    0.09    0.43   1-0.78608-0.94924 0.23638-0.25904-0.57112 0.17843
   7   5  -4    0.79    0.31   1-0.12926 0.02631 0.84528 0.92264 0.51844-0.38474
   7   5  -4    0.69    0.34   1-0.09319 0.06308-0.92281-0.84649 0.37380-0.52864
   7   5  -3    2.34    0.58   1-0.14238 0.00631 0.80847 0.94817 0.57105-0.31770
   7   5  -3    1.76    0.35   1-0.07640 0.07320-0.94881-0.81016 0.30643-0.58161
   7   5  -2    5.42    1.09   1-0.15552-0.01371 0.76597 0.96800 0.62377-0.25054
   7   5  -2    5.16    1.03   1-0.05956 0.08336-0.96921-0.76822 0.23892-0.63473
   7   5  -1    4.70    0.62   1-0.16841-0.03348 0.71790 0.98227 0.67545-0.18442
   7   5  -1   10.76    0.90   1-0.04298 0.09328-0.98409-0.72077 0.17238-0.68686
   7   5   0    8.97    0.67   1-0.18076-0.05271 0.66461 0.99131 0.72499-0.12046
   7   5   0    9.13    0.69   1-0.02691 0.10267-0.99379-0.66813 0.10793-0.73691
   8  -6  -1    8.97    0.75   1-0.18877 0.63047 0.62538 0.68948 0.75713 0.35653
   8  -6  -1    8.95    0.77   1-0.15203 0.66778-0.77785-0.71425 0.60977 0.20956
   8  -6   1   13.07    0.80   1-0.21630 0.58980 0.44787 0.63701 0.86753 0.49633
   8  -6   1   12.66    0.93   1-0.10540 0.70082-0.90008-0.71147 0.42276 0.05149
   8  -6   3    6.44    0.67   1-0.23324 0.55916 0.26546 0.57926 0.93548 0.59311
   8  -6   3    6.45    0.67   1-0.05383 0.73905-0.97492-0.66164 0.21590-0.12657
   8  -5  -3    3.30    0.46   1-0.14266 0.63349 0.80760 0.76811 0.57220 0.09321
   8  -5  -3    3.19    0.46   1-0.16546 0.61103-0.72952-0.76962 0.66363 0.18523
   8  -5  -2    7.50    0.53   1-0.15999 0.60927 0.75007 0.77291 0.64170 0.17715
   8  -5  -2    6.80    0.50   1-0.14690 0.62285-0.79451-0.77226 0.58921 0.12514
   8  -5   0    5.33    0.48   1-0.19211 0.56339 0.60778 0.75529 0.77051 0.33482
   8  -5   0    5.08    0.55   1-0.10322 0.65292-0.90439-0.75712 0.41401-0.02115
   8  -5   2    0.10    0.31   1-0.21723 0.52521 0.44013 0.71271 0.87126 0.46495
   8  -5   2    0.10    0.35   1-0.05505 0.68775-0.97376-0.70182 0.22080-0.18557
   8  -5   3    0.91    0.37   1-0.22624 0.50934 0.35413 0.68905 0.90741 0.51552
   8  -5   3    0.75    0.37   1-0.03126 0.70486-0.99161-0.65733 0.12539-0.26657
   8  -5   4    2.12    0.45   1-0.23300 0.49574 0.26903 0.66628 0.93452 0.55705
   8  -5   4    2.02    0.40   1-0.00875 0.72070-0.99934-0.60273 0.03510-0.34247
   8  -4  -4    0.31    0.39   1-0.11843 0.60774 0.87196 0.79122 0.47502-0.06792
   8  -4  -4    0.64    0.35   1-0.16346 0.56298-0.73719-0.81865 0.65560 0.11335
   8  -4  -3    1.80    0.35   1-0.13499 0.58430 0.82984 0.81142 0.54142 0.01291
   8  -4  -3    1.51    0.35   1-0.14584 0.57387-0.79785-0.81695 0.58494 0.05703
   8  -4  -2    7.69    0.50   1-0.15177 0.56063 0.77870 0.82262 0.60875 0.09467
   8  -4  -2    7.25    0.46   1-0.12626 0.58672-0.85299-0.80975 0.50640-0.00717
   8  -4   0    4.30    1.38   1-0.18365 0.51499 0.65090 0.81949 0.73660 0.25140
   8  -4   1   14.04    1.09   1-0.19764 0.49412 0.57665 0.80758 0.79271 0.32194
   8  -4   1   14.06    1.13   1-0.05956 0.63316-0.96921-0.73861 0.23888-0.23138
   8  -4   2    5.93    0.86   1-0.20999 0.47563 0.49651 0.79022 0.84224 0.38641
   8  -4   2    5.90    0.81   1-0.03684 0.64921-0.98833-0.69540 0.14776-0.30811
   8  -4   3   18.65    1.10   1-0.22008 0.45869 0.41523 0.77127 0.88269 0.44128
   8  -4   3   17.81    0.97   1-0.01500 0.66438-0.99807-0.64280 0.06017-0.38130
   8  -4   4    0.50    0.41   1-0.22808 0.44384 0.33331 0.75168 0.91481 0.48781
   8  -4   4    0.45    0.34   1 0.00539 0.67787-0.99975-0.58252-0.02164-0.44849
   8  -4   5    8.42    0.60   1-0.23409 0.43098 0.25224 0.73294 0.93892 0.52634
   8  -4   5    7.93    0.58   1 0.02392 0.68974-0.99509-0.51554-0.09595-0.50839
   8  -3  -5    7.64    0.74   1-0.09934 0.57686 0.91179 0.78979 0.39844-0.20844
   8  -3  -5    8.36    0.55   1-0.16418 0.51221-0.73444-0.85725 0.65851 0.05240
   8  -3  -4    9.41    0.59   1-0.11450 0.55482 0.88089 0.82123 0.45924-0.13321
   8  -3  -4    9.05    0.54   1-0.14756 0.52210-0.79242-0.85288 0.59185 0.00008
   8  -3  -3    7.63    0.55   1-0.13041 0.53203 0.84226 0.84493 0.52304-0.05497
   8  -3  -3    8.04    0.51   1-0.12919 0.53373-0.84545-0.84357 0.51817-0.05925
   8  -3  -2    8.13    0.66   1-0.14661 0.50895 0.79544 0.86044 0.58802 0.02443
   8  -3  -2    7.02    0.67   1-0.10915 0.54684-0.89241-0.82782 0.43780-0.12516
   8  -3  -1    3.99    0.73   1-0.16258 0.48608 0.74048 0.86782 0.65210 0.10295
   8  -3  -1    4.28    0.79   1-0.08813 0.56119-0.93128-0.80436 0.35347-0.19510
   8  -3   0    8.17    0.63   1-0.17782 0.46397 0.67800 0.86768 0.71322 0.17849
   8  -3   0    8.03    0.68   1-0.06646 0.57618-0.96152-0.77226 0.26656-0.26760
   8  -3   2    6.07    0.39   1-0.20432 0.42370 0.53542 0.84976 0.81949 0.31364
   8  -3   2    5.95    0.48   1-0.02355 0.60575-0.99524-0.68132 0.09445-0.41092
   8  -3   3    0.32    0.28   1-0.21516 0.40680 0.45716 0.83432 0.86296 0.37203
   8  -3   3    0.21    0.31   1-0.00344 0.61894-0.99989-0.62401 0.01381-0.47698
   8  -3   4    0.42    0.28   1-0.22391 0.39120 0.37857 0.81807 0.89807 0.42156
   8  -3   4    0.49    0.32   1 0.01516 0.63088-0.99803-0.55982-0.06080-0.53719
   8  -3   5    1.02    0.30   1-0.23079 0.37747 0.29980 0.80163 0.92566 0.46356
   8  -3   5    0.88    0.33   1 0.03196 0.64102-0.99123-0.49070-0.12818-0.59017
   8  -2  -5    0.91    0.31   1-0.09844 0.52090 0.91346 0.81254 0.39483-0.26157
   8  -2  -5    1.15    0.32   1-0.15127 0.46834-0.78037-0.88219 0.60673-0.04888
   8  -2  -4    1.27    0.32   1-0.11302 0.49944 0.88414 0.84556 0.45333-0.18864
   8  -2  -4    1.21    0.32   1-0.13409 0.47879-0.83233-0.87180 0.53780-0.10347
   8  -2  -3    0.15    0.29   1-0.12832 0.47726 0.84773 0.87147 0.51467-0.11287
   8  -2  -3    0.07    0.29   1-0.11534 0.49057-0.87902-0.85577 0.46261-0.16425
   8  -2  -2    0.45    0.28   1-0.14392 0.45478 0.80379 0.88987 0.57723-0.03587
   8  -2  -2    0.15    0.31   1-0.09560 0.50363-0.91859-0.83301 0.38346-0.22900
   8  -2   0    8.77    0.52   1-0.17422 0.41071 0.69378 0.90454 0.69878 0.11454
   8  -2   0    8.36    0.45   1-0.05439 0.53150-0.97439-0.76414 0.21817-0.36549
   8  -2   2    1.56    0.40   1-0.20053 0.37064 0.55937 0.89479 0.80429 0.24892
   8  -2   2    1.45    0.33   1-0.01415 0.55840-0.99828-0.66337 0.05675-0.49812
   8  -2   3   14.78    0.79   1-0.21157 0.35357 0.48490 0.88319 0.84858 0.30813
   8  -2   3   14.00    0.79   1 0.00442 0.57005-0.99983-0.60296-0.01775-0.55809
   8  -2   4    5.09    0.36   1-0.22071 0.33758 0.40943 0.87006 0.88523 0.35920
   8  -2   4    5.08    0.50   1 0.02151 0.58048-0.99603-0.53684-0.08630-0.61223
   8  -2   5   14.87    0.76   1-0.22810 0.32334 0.33309 0.85605 0.91488 0.40326
   8  -2   5   14.27    0.68   1 0.03689 0.58919-0.98830-0.46679-0.14798-0.65950
   8  -1  -5    6.89    0.50   1-0.09953 0.46296 0.91144 0.83161 0.39919-0.30673
   8  -1  -5    7.09    0.52   1-0.14039 0.42243-0.81436-0.89519 0.56310-0.14202
   8  -1  -4    6.07    0.40   1-0.11358 0.44202 0.88292 0.86541 0.45557-0.23592
   8  -1  -4    5.56    0.50   1-0.12290 0.43294-0.86134-0.87944 0.49292-0.19784
   8  -1  -3    7.81    0.70   1-0.12828 0.42044 0.84781 0.89264 0.51454-0.16251
   8  -1  -3    8.81    0.93   1-0.10441 0.44475-0.90205-0.85781 0.41879-0.25757
   8  -1  -2   16.30    0.96   1-0.14328 0.39856 0.80574 0.91291 0.57466-0.08795
   8  -1  -2   16.70    1.11   1-0.08512 0.45737-0.93605-0.82948 0.34140-0.32057
   8  -1  -1    4.74    0.70   1-0.15816 0.37680 0.75669 0.92619 0.63435-0.01383
   8  -1  -1    5.87    1.17   1-0.06539 0.47042-0.96277-0.79387 0.26226-0.38530
   8  -1   0    9.54    1.31   1-0.17252 0.35555 0.70100 0.93283 0.69197 0.05821
   8  -1   0    8.36    0.76   1-0.04565 0.48348-0.98202-0.75079 0.18312-0.45005
   8  -1   1    7.40    0.96   1-0.18600 0.33519 0.63942 0.93358 0.74601 0.12669
   8  -1   1    6.59    0.81   1-0.02636 0.49611-0.99404-0.70047 0.10573-0.51304
   8  -1   2    7.10    0.67   1-0.19827 0.31604 0.57295 0.92945 0.79524 0.19035
   8  -1   2    7.13    0.60   1-0.00792 0.50788-0.99946-0.64355 0.03176-0.57261
   8  -1   3    5.12    0.44   1-0.20927 0.29905 0.50165 0.92106 0.83937 0.24939
   8  -1   3    4.73    0.40   1 0.00931 0.51818-0.99925-0.58141-0.03736-0.62725
   8  -1   4    5.05    0.45   1-0.21853 0.28295 0.42895 0.91070 0.87649 0.30093
   8  -1   4    4.18    0.38   1 0.02512 0.52732-0.99459-0.51442-0.10075-0.67623
   8   0  -5    1.91    0.44   1-0.10229 0.40334 0.90620 0.84744 0.41027-0.34516
   8   0  -5    2.10    0.34   1-0.13156 0.37449-0.83919-0.89902 0.52768-0.22696
   8   0  -4    4.35    0.38   1-0.11584 0.38291 0.87789 0.88147 0.46463-0.27638
   8   0  -4    4.47    0.70   1-0.11418 0.38490-0.88161-0.87871 0.45795-0.28231
   8   0  -3    3.75    0.43   1-0.12997 0.36190 0.84342 0.90933 0.52129-0.20528
   8   0  -3    3.50    0.49   1-0.09605 0.39636-0.91779-0.85256 0.38525-0.34062
   8   0  -2    1.93    0.50   1-0.14435 0.34063 0.80246 0.93071 0.57896-0.13317
   8   0  -2    2.24    0.47   1-0.07736 0.40837-0.94748-0.81992 0.31029-0.40118
   8   0   2    5.70    0.46   1-0.19738 0.26008 0.57819 0.95578 0.79166 0.13725
   8   0   2    5.71    0.41   1-0.00435 0.45441-0.99983-0.62333 0.01747-0.63636
   8   0   3   -0.14    0.33   1-0.20816 0.24335 0.50950 0.95005 0.83490 0.19540
   8   0   3   -0.03    0.30   1 0.01173 0.46384-0.99882-0.56000-0.04704-0.68647
   8   0   4    1.14    0.29   1-0.21734 0.22733 0.43919 0.94207 0.87170 0.24662
   8   0   4    0.88    0.32   1 0.02643 0.47187-0.99401-0.49286-0.10601-0.73103
   8   1  -5    0.60    0.30   1-0.10648 0.34230 0.89792 0.86024 0.42707-0.37788
   8   1  -5    0.60    0.32   1-0.12460 0.32440-0.85715-0.89559 0.49976-0.30441
   8   1  -4    1.57    0.55   1-0.11954 0.32236 0.86938 0.89404 0.47945-0.31107
   8   1  -4    1.28    0.44   1-0.10764 0.33469-0.89554-0.87166 0.43174-0.35803
   8   1  -3    6.05    0.65   1-0.13310 0.30191 0.83504 0.92203 0.53383-0.24225
   8   1  -3    5.36    0.67   1-0.09002 0.34563-0.92817-0.84195 0.36108-0.41429
   8   1  -2    4.97    0.62   1-0.14686 0.28127 0.79464 0.94397 0.58903-0.17262
   8   1  -2    5.25    0.64   1-0.07204 0.35695-0.95463-0.80607 0.28893-0.47204
   8   1  -1    5.81    0.63   1-0.16051 0.26074 0.74818 0.95985 0.64377-0.10344
   8   1  -1    3.97    1.04   1-0.05401 0.36830-0.97475-0.76387 0.21662-0.52995
   8   1   0   17.25    1.02   1-0.17372 0.24065 0.69594 0.96994 0.69676-0.03603
   8   1   0   16.47    1.03   1-0.03628 0.37936-0.98869-0.71547 0.14551-0.58667
   8   1   1    4.41    1.35   1-0.18619 0.22129 0.63846 0.97479 0.74678 0.02843
   8   1   1    5.37    0.95   1-0.01917 0.38979-0.99685-0.66130 0.07689-0.64088
   8   1   2    7.28    0.59   1-0.19767 0.20293 0.57648 0.97514 0.79283 0.08891
   8   1   2    7.41    0.53   1-0.00301 0.39899-0.99992-0.60244 0.01210-0.69127
   8   1   3    7.45    0.67   1-0.20810 0.18659 0.50991 0.97158 0.83467 0.14565
   8   1   3    6.14    0.58   1 0.01204 0.40739-0.99876-0.53895-0.04829-0.73726
   8   2  -3    1.61    0.96   1-0.13744 0.24072 0.82293 0.93101 0.55125-0.27435
   8   2  -2    5.10    0.67   1-0.15058 0.22069 0.78266 0.95307 0.60395-0.20722
   8   2  -2    5.37    0.76   1-0.06888 0.30335-0.95860-0.78905 0.27628-0.53419
   8   2  -1    5.09    0.57   1-0.16358 0.20081 0.73673 0.96947 0.65609-0.14065
   8   2  -1    5.16    0.64   1-0.05172 0.31384-0.97687-0.74499 0.20745-0.58862
   8   2   0    2.38    0.56   1-0.17615 0.18136 0.68541 0.98049 0.70652-0.07578
   8   2   0    2.26    0.65   1-0.03493 0.32395-0.98951-0.69530 0.14012-0.64156
   8   2   1    0.28    0.58   1-0.01880 0.33341-0.99697-0.64043 0.07541-0.69186
;
_shelx_hkl_checksum              961
_shelx_res_file
;
TITL proc1
CELL 0.71075 6.675 9.4166 11.2673 100.974 90.769 100.062
ZERR 2 0.0005 0.0007 0.0008 0.006 0.006 0.006
LATT 1
SFAC  C   H   I   N   O
UNIT 32 20 2 2 6
LIST 4 ! automatically inserted. Change 6 to 4 for CHECKCIF!!
temp -153
size 0.46 0.22 0.05
omit 0 0 1
mpla 6 c311 c312 c313 c314 c315 c316 o3 c31 n3
mpla 10 o1 c2 c3 c4 c4a c5 c6 c7 c8 c8a o3 c31 n3
mpla 3 o3 c31 n3
mpla 6 c311 c312 c313 c314 c315 c316
mpla 13 o1 c2 c3 c4 c4a c5 c6 c7 c8 c8a o3 c31 n3
L.S. 4
BOND $h
conf
acta 50
eqiv $1 1+x,y,z
eqiv $2 -1+x,y,z
htab n3 o4
htab c2 o3
htab c312 O3
htab c2 o4_$1
htab c316 o3_$2
FMAP 2
PLAN 20
WGHT    0.026000
FVAR       0.13833
MOLE   1
I314  3    0.094313    0.285562    0.970931    11.00000    0.02679    0.02415 =
         0.01880    0.00890    0.00371    0.00303
O1    5    0.882045    0.941235    0.355735    11.00000    0.01200    0.02086 =
         0.02416    0.00744    0.00216    0.00137
O3    5    0.783793    0.685490    0.607940    11.00000    0.01428    0.02836 =
         0.02582    0.01078   -0.00127    0.00526
O4    5    0.288535    0.790850    0.422549    11.00000    0.01158    0.02557 =
         0.02484    0.01157    0.00162    0.00242
N3    4    0.436166    0.650966    0.582800    11.00000    0.01356    0.01694 =
         0.01639    0.00572   -0.00018    0.00396
H3    2    0.337371    0.677884    0.538374    11.00000    0.01744
C2    1    0.834006    0.851906    0.434448    11.00000    0.01394    0.01651 =
         0.01920    0.00273   -0.00042    0.00354
AFIX  43
H2    2    0.943390    0.823033    0.473090    11.00000   -1.20000
AFIX   0
C3    1    0.643167    0.799289    0.463633    11.00000    0.01381    0.01285 =
         0.01577    0.00048    0.00051    0.00270
C4    1    0.469245    0.834434    0.402529    11.00000    0.01316    0.01462 =
         0.01510    0.00181    0.00064    0.00266
C4A   1    0.523527    0.928750    0.313661    11.00000    0.01566    0.01413 =
         0.01464    0.00174    0.00212    0.00313
C5    1    0.373310    0.970089    0.245757    11.00000    0.01687    0.02167 =
         0.01953    0.00446    0.00191    0.00356
AFIX  43
H5    2    0.233393    0.935153    0.255697    11.00000   -1.20000
AFIX   0
C6    1    0.428004    1.061085    0.164800    11.00000    0.02597    0.02462 =
         0.01865    0.00784    0.00071    0.00877
AFIX  43
H6    2    0.325690    1.086497    0.117586    11.00000   -1.20000
AFIX   0
C7    1    0.633751    1.116404    0.151681    11.00000    0.02832    0.01968 =
         0.01982    0.00775    0.00802    0.00656
AFIX  43
H7    2    0.669624    1.181088    0.097079    11.00000   -1.20000
AFIX   0
C8    1    0.785250    1.077716    0.217510    11.00000    0.02023    0.01930 =
         0.02356    0.00469    0.00657    0.00238
AFIX  43
H8    2    0.924925    1.115380    0.209391    11.00000   -1.20000
AFIX   0
C8A   1    0.726514    0.981818    0.296047    11.00000    0.01610    0.01546 =
         0.01808    0.00160    0.00264    0.00353
C311  1    0.370710    0.565152    0.669151    11.00000    0.01658    0.01273 =
         0.01451    0.00144    0.00112    0.00343
C312  1    0.503443    0.523010    0.747284    11.00000    0.01468    0.01829 =
         0.01858    0.00384   -0.00015    0.00408
AFIX  43
H312  2    0.646618    0.550119    0.742610    11.00000   -1.20000
AFIX   0
C313  1    0.424249    0.440863    0.832187    11.00000    0.01989    0.01976 =
         0.01643    0.00381   -0.00229    0.00654
AFIX  43
H313  2    0.513431    0.411906    0.885738    11.00000   -1.20000
AFIX   0
C314  1    0.214833    0.401500    0.838279    11.00000    0.02034    0.01477 =
         0.01486    0.00393    0.00258    0.00177
C315  1    0.082257    0.441411    0.759769    11.00000    0.01479    0.01990 =
         0.01830    0.00294    0.00178    0.00297
AFIX  43
H315  2   -0.060806    0.412727    0.763742    11.00000   -1.20000
AFIX   0
C316  1    0.160287    0.523251    0.675780    11.00000    0.01637    0.01705 =
         0.01838    0.00273   -0.00139    0.00553
AFIX  43
H316  2    0.070200    0.551237    0.622145    11.00000   -1.20000
AFIX   0
C31   1    0.629426    0.706609    0.558458    11.00000    0.01611    0.01396 =
         0.01569    0.00102    0.00073    0.00357
MOLE   2
HKLF 4
REM  proc1
REM R1 =  0.0177 for    2819 Fo > 4sig(Fo)  and  0.0200 for all    3095 data
REM    194 parameters refined using      0 restraints
END
WGHT      0.0260      0.0000
REM Highest difference peak  0.670,  deepest hole -0.320,  1-sigma level  0.082
Q1    1   0.1949  0.2779  1.0237  11.00000  0.05    0.67
Q2    1   0.0061  0.2945  0.9252  11.00000  0.05    0.66
Q3    1   0.0655  0.3441  1.0413  11.00000  0.05    0.57
Q4    1   0.1359  0.2345  0.9001  11.00000  0.05    0.47
Q5    1   0.1591  0.3965  1.0531  11.00000  0.05    0.46
Q6    1   0.1628  0.1668  0.9670  11.00000  0.05    0.40
Q7    1   0.0324  0.1795  0.8907  11.00000  0.05    0.38
Q8    1   0.5635  0.8267  0.4339  11.00000  0.05    0.37
Q9    1   0.0067  0.3986  0.9782  11.00000  0.05    0.37
Q10   1   0.7048  1.0835  0.1762  11.00000  0.05    0.36
Q11   1   0.6293  0.7457  0.4985  11.00000  0.05    0.35
Q12   1   0.8041  0.9608  0.3213  11.00000  0.05    0.31
Q13   1   0.4332  0.5398  0.7052  11.00000  0.05    0.30
Q14   1   0.2640  0.5369  0.6801  11.00000  0.05    0.29
Q15   1   0.4402  0.9426  0.2847  11.00000  0.05    0.29
Q16   1   0.5029  0.8890  0.3519  11.00000  0.05    0.29
Q17   1   0.0000  0.5000  1.0000  10.50000  0.05    0.28
Q18   1   0.3001  0.9202  0.5533  11.00000  0.05    0.26
Q19   1   0.3318  0.4309  0.8449  11.00000  0.05    0.25
Q20   1   0.6320  0.9452  0.2965  11.00000  0.05    0.24
;
_shelx_res_checksum              75831
_shelxl_version_number           2014/6
#END Tags that were not found in dictionaries
loop_
_space_group_symop_operation_xyz
'x, y, z'
'-x, -y, -z'
loop_
_atom_site_type_symbol
_atom_site_label
_atom_site_fract_x
_atom_site_fract_y
_atom_site_fract_z
_atom_site_U_iso_or_equiv
_atom_site_adp_type
_atom_site_calc_flag
_atom_site_occupancy
I I314 0.09431(2) 0.28556(2) 0.97093(2) 0.02278(5) Uani d 1
O O1 0.88205(19) 0.94124(14) 0.35573(11) 0.0188(3) Uani d 1
O O3 0.7838(2) 0.68549(15) 0.60794(12) 0.0219(3) Uani d 1
O O4 0.28854(19) 0.79085(14) 0.42255(11) 0.0199(3) Uani d 1
N N3 0.4362(2) 0.65097(16) 0.58280(13) 0.0152(3) Uani d 1
H H3 0.337(3) 0.678(2) 0.5384(19) 0.017(5) Uiso d 1
C C2 0.8340(3) 0.85191(19) 0.43445(15) 0.0166(3) Uani d 1
H H2 0.9434 0.8230 0.4731 0.020 Uiso calc 1
C C3 0.6432(3) 0.79929(17) 0.46363(14) 0.0144(3) Uani d 1
C C4 0.4692(3) 0.83443(18) 0.40253(14) 0.0144(3) Uani d 1
C C4A 0.5235(3) 0.92875(18) 0.31366(14) 0.0149(3) Uani d 1
C C5 0.3733(3) 0.9701(2) 0.24576(16) 0.0193(4) Uani d 1
H H5 0.2334 0.9352 0.2557 0.023 Uiso calc 1
C C6 0.4280(3) 1.0611(2) 0.16480(16) 0.0221(4) Uani d 1
H H6 0.3257 1.0865 0.1176 0.026 Uiso calc 1
C C7 0.6338(3) 1.1164(2) 0.15168(16) 0.0217(4) Uani d 1
H H7 0.6696 1.1811 0.0971 0.026 Uiso calc 1
C C8 0.7853(3) 1.0777(2) 0.21751(16) 0.0211(4) Uani d 1
H H8 0.9249 1.1154 0.2094 0.025 Uiso calc 1
C C8A 0.7265(3) 0.98182(19) 0.29605(15) 0.0167(3) Uani d 1
C C311 0.3707(3) 0.56515(18) 0.66915(14) 0.0147(3) Uani d 1
C C312 0.5034(3) 0.52301(19) 0.74728(15) 0.0170(3) Uani d 1
H H312 0.6466 0.5501 0.7426 0.020 Uiso calc 1
C C313 0.4242(3) 0.4409(2) 0.83219(15) 0.0183(3) Uani d 1
H H313 0.5134 0.4119 0.8857 0.022 Uiso calc 1
C C314 0.2148(3) 0.40150(18) 0.83828(15) 0.0167(3) Uani d 1
C C315 0.0823(3) 0.44141(19) 0.75977(15) 0.0178(3) Uani d 1
H H315 -0.0608 0.4127 0.7637 0.021 Uiso calc 1
C C316 0.1603(3) 0.52325(19) 0.67578(15) 0.0171(3) Uani d 1
H H316 0.0702 0.5512 0.6221 0.020 Uiso calc 1
C C31 0.6294(3) 0.70661(18) 0.55846(15) 0.0154(3) Uani d 1
loop_
_atom_site_aniso_label
_atom_site_aniso_U_11
_atom_site_aniso_U_22
_atom_site_aniso_U_33
_atom_site_aniso_U_12
_atom_site_aniso_U_13
_atom_site_aniso_U_23
I314 0.02679(8) 0.02415(7) 0.01880(6) 0.00303(5) 0.00371(4) 0.00890(4)
O1 0.0120(6) 0.0209(6) 0.0242(6) 0.0014(5) 0.0022(5) 0.0074(5)
O3 0.0143(6) 0.0284(7) 0.0258(7) 0.0053(5) -0.0013(5) 0.0108(5)
O4 0.0116(6) 0.0256(7) 0.0248(6) 0.0024(5) 0.0016(5) 0.0116(5)
N3 0.0136(7) 0.0169(7) 0.0164(7) 0.0040(6) -0.0002(5) 0.0057(5)
C2 0.0139(8) 0.0165(8) 0.0192(8) 0.0035(6) -0.0004(6) 0.0027(6)
C3 0.0138(8) 0.0129(8) 0.0158(7) 0.0027(6) 0.0005(6) 0.0005(6)
C4 0.0132(8) 0.0146(8) 0.0151(7) 0.0027(6) 0.0006(6) 0.0018(6)
C4A 0.0157(9) 0.0141(8) 0.0146(7) 0.0031(6) 0.0021(6) 0.0017(6)
C5 0.0169(9) 0.0217(9) 0.0195(8) 0.0036(7) 0.0019(6) 0.0045(6)
C6 0.0260(10) 0.0246(9) 0.0186(8) 0.0088(8) 0.0007(7) 0.0078(7)
C7 0.0283(10) 0.0197(9) 0.0198(8) 0.0066(7) 0.0080(7) 0.0078(6)
C8 0.0202(10) 0.0193(9) 0.0236(9) 0.0024(7) 0.0066(7) 0.0047(7)
C8A 0.0161(9) 0.0155(8) 0.0181(8) 0.0035(6) 0.0026(6) 0.0016(6)
C311 0.0166(9) 0.0127(8) 0.0145(7) 0.0034(6) 0.0011(6) 0.0014(6)
C312 0.0147(9) 0.0183(8) 0.0186(8) 0.0041(7) -0.0002(6) 0.0038(6)
C313 0.0199(9) 0.0198(8) 0.0164(8) 0.0065(7) -0.0023(6) 0.0038(6)
C314 0.0203(9) 0.0148(8) 0.0149(7) 0.0018(7) 0.0026(6) 0.0039(6)
C315 0.0148(9) 0.0199(9) 0.0183(8) 0.0030(7) 0.0018(6) 0.0029(6)
C316 0.0164(9) 0.0171(8) 0.0184(8) 0.0055(7) -0.0014(6) 0.0027(6)
C31 0.0161(9) 0.0140(8) 0.0157(7) 0.0036(6) 0.0007(6) 0.0010(6)
loop_
_atom_type_symbol
_atom_type_description
_atom_type_scat_dispersion_real
_atom_type_scat_dispersion_imag
_atom_type_scat_source
C C 0.0033 0.0016 'International Tables Vol C Tables 4.2.6.8 and 6.1.1.4'
H H 0.0000 0.0000 'International Tables Vol C Tables 4.2.6.8 and 6.1.1.4'
I I -0.4742 1.8119 'International Tables Vol C Tables 4.2.6.8 and 6.1.1.4'
N N 0.0061 0.0033 'International Tables Vol C Tables 4.2.6.8 and 6.1.1.4'
O O 0.0106 0.0060 'International Tables Vol C Tables 4.2.6.8 and 6.1.1.4'
loop_
_geom_angle_atom_site_label_1
_geom_angle_atom_site_label_2
_geom_angle_atom_site_label_3
_geom_angle
C2 O1 C8A 118.48(14)
C31 N3 C311 128.55(15)
C31 N3 H3 114.0(15)
C311 N3 H3 117.4(15)
O1 C2 C3 125.61(16)
O1 C2 H2 117.2
C3 C2 H2 117.2
C2 C3 C4 119.41(15)
C2 C3 C31 115.53(15)
C4 C3 C31 125.07(15)
O4 C4 C3 124.22(16)
O4 C4 C4A 121.28(16)
C3 C4 C4A 114.49(15)
C8A C4A C5 118.05(16)
C8A C4A C4 120.59(16)
C5 C4A C4 121.35(16)
C6 C5 C4A 120.26(18)
C6 C5 H5 119.9
C4A C5 H5 119.9
C5 C6 C7 120.37(18)
C5 C6 H6 119.8
C7 C6 H6 119.8
C8 C7 C6 120.65(17)
C8 C7 H7 119.7
C6 C7 H7 119.7
C7 C8 C8A 117.95(17)
C7 C8 H8 121.0
C8A C8 H8 121.0
O1 C8A C4A 121.30(15)
O1 C8A C8 116.04(16)
C4A C8A C8 122.66(17)
C312 C311 C316 119.80(16)
C312 C311 N3 123.60(16)
C316 C311 N3 116.59(15)
C313 C312 C311 119.53(17)
C313 C312 H312 120.2
C311 C312 H312 120.2
C314 C313 C312 119.87(16)
C314 C313 H313 120.1
C312 C313 H313 120.1
C313 C314 C315 120.84(16)
C313 C314 I314 120.05(13)
C315 C314 I314 119.08(13)
C316 C315 C314 119.42(17)
C316 C315 H315 120.3
C314 C315 H315 120.3
C315 C316 C311 120.53(16)
C315 C316 H316 119.7
C311 C316 H316 119.7
O3 C31 N3 124.75(16)
O3 C31 C3 121.00(16)
N3 C31 C3 114.25(15)
loop_
_geom_bond_atom_site_label_1
_geom_bond_atom_site_label_2
_geom_bond_distance
I314 C314 2.1023(17)
O1 C2 1.340(2)
O1 C8A 1.376(2)
O3 C31 1.229(2)
O4 C4 1.243(2)
N3 C31 1.357(2)
N3 C311 1.406(2)
N3 H3 0.92(2)
C2 C3 1.352(2)
C2 H2 0.9500
C3 C4 1.460(2)
C3 C31 1.497(2)
C4 C4A 1.469(2)
C4A C8A 1.390(2)
C4A C5 1.404(2)
C5 C6 1.377(3)
C5 H5 0.9500
C6 C7 1.401(3)
C6 H6 0.9500
C7 C8 1.385(3)
C7 H7 0.9500
C8 C8A 1.394(2)
C8 H8 0.9500
C311 C312 1.397(2)
C311 C316 1.398(3)
C312 C313 1.395(3)
C312 H312 0.9500
C313 C314 1.388(3)
C313 H313 0.9500
C314 C315 1.389(2)
C315 C316 1.383(2)
C315 H315 0.9500
C316 H316 0.9500
loop_
_geom_hbond_atom_site_label_D
_geom_hbond_atom_site_label_H
_geom_hbond_atom_site_label_A
_geom_hbond_site_symmetry_A
_geom_hbond_distance_DH
_geom_hbond_distance_HA
_geom_hbond_distance_DA
_geom_hbond_angle_DHA
N3 H3 O4 . 0.92(2) 1.89(2) 2.6977(19) 145(2)
C2 H2 O3 . 0.95 2.33 2.718(2) 103.8
C312 H312 O3 . 0.95 2.27 2.881(2) 121.8
C2 H2 O4 1_655 0.95 2.44 3.185(2) 135.5
C316 H316 O3 1_455 0.95 2.49 3.312(2) 145.0
loop_
_geom_torsion_atom_site_label_1
_geom_torsion_atom_site_label_2
_geom_torsion_atom_site_label_3
_geom_torsion_atom_site_label_4
_geom_torsion
C8A O1 C2 C3 -1.7(2)
O1 C2 C3 C4 3.0(3)
O1 C2 C3 C31 -177.33(15)
C2 C3 C4 O4 179.64(16)
C31 C3 C4 O4 0.0(3)
C2 C3 C4 C4A -0.9(2)
C31 C3 C4 C4A 179.46(15)
O4 C4 C4A C8A 177.21(15)
C3 C4 C4A C8A -2.3(2)
O4 C4 C4A C5 -1.7(3)
C3 C4 C4A C5 178.81(15)
C8A C4A C5 C6 -0.2(3)
C4 C4A C5 C6 178.65(16)
C4A C5 C6 C7 -1.7(3)
C5 C6 C7 C8 1.6(3)
C6 C7 C8 C8A 0.4(3)
C2 O1 C8A C4A -1.8(2)
C2 O1 C8A C8 178.47(15)
C5 C4A C8A O1 -177.34(15)
C4 C4A C8A O1 3.7(2)
C5 C4A C8A C8 2.4(3)
C4 C4A C8A C8 -176.55(16)
C7 C8 C8A O1 177.28(15)
C7 C8 C8A C4A -2.4(3)
C31 N3 C311 C312 0.3(3)
C31 N3 C311 C316 179.48(16)
C316 C311 C312 C313 -0.7(2)
N3 C311 C312 C313 178.37(16)
C311 C312 C313 C314 0.1(3)
C312 C313 C314 C315 0.8(3)
C312 C313 C314 I314 -177.36(13)
C313 C314 C315 C316 -1.0(3)
I314 C314 C315 C316 177.17(12)
C314 C315 C316 C311 0.3(3)
C312 C311 C316 C315 0.5(3)
N3 C311 C316 C315 -178.64(15)
C311 N3 C31 O3 2.5(3)
C311 N3 C31 C3 -177.41(15)
C2 C3 C31 O3 2.3(2)
C4 C3 C31 O3 -178.01(15)
C2 C3 C31 N3 -177.74(14)
C4 C3 C31 N3 1.9(2)
