#------------------------------------------------------------------------------
#$Date: 2016-02-21 11:56:54 +0200 (Sun, 21 Feb 2016) $
#$Revision: 176809 $
#$URL: svn://www.crystallography.net/cod/cif/2/24/03/2240322.cif $
#------------------------------------------------------------------------------
#
# This file is available in the Crystallography Open Database (COD),
# http://www.crystallography.net/. The original data for this entry
# were provided by IUCr Journals, http://journals.iucr.org/.
#
# The file may be used within the scientific community so long as
# proper attribution is given to the journal article from which the
# data were obtained.
#
data_2240322
loop_
_publ_author_name
'Gomes, Ligia R.'
'Low, John Nicolson'
'Cagide, Fernando'
'Borges, Fernanda'
_publ_section_title
;
 The crystal structures of four
 <i>N</i>-(4-halophenyl)-4-oxo-4<i>H</i>-chromene-3-carboxamides
;
_journal_coeditor_code           LH5743
_journal_issue                   1
_journal_name_full               'Acta Crystallographica Section E'
_journal_page_first              88
_journal_page_last               93
_journal_paper_doi               10.1107/S2056989014027054
_journal_volume                  71
_journal_year                    2015
_chemical_formula_iupac          'C16 H10 Cl N O3'
_chemical_formula_moiety         'C16 H10 Cl N O3'
_chemical_formula_sum            'C16 H10 Cl N O3'
_chemical_formula_weight         299.70
_chemical_name_systematic
;
<i>N</i>-(4-Chlorophenyl)-4-oxo-4<i>H</i>-chromene-3-carboxamide
;
_space_group_crystal_system      triclinic
_space_group_IT_number           2
_space_group_name_Hall           '-P 1'
_space_group_name_H-M_alt        'P -1'
_symmetry_space_group_name_Hall  '-P 1'
_symmetry_space_group_name_H-M   'P -1'
_atom_sites_solution_hydrogens   mixed
_audit_creation_method           SHELXL-2013
_cell_angle_alpha                103.536(7)
_cell_angle_beta                 89.714(6)
_cell_angle_gamma                105.589(7)
_cell_formula_units_Z            2
_cell_length_a                   6.6325(12)
_cell_length_b                   7.0577(12)
_cell_length_c                   14.671(3)
_cell_measurement_reflns_used    5302
_cell_measurement_temperature    100(2)
_cell_measurement_theta_max      25.1
_cell_measurement_theta_min      3.1
_cell_volume                     641.9(2)
_computing_cell_refinement
;
<i>CrystalClear-SM Expert</i> (Rigaku, 2012)
;
_computing_data_collection
;
<i>CrystalClear-SM Expert</i> (Rigaku, 2012)
;
_computing_data_reduction
;
<i>CrystalClear-SM Expert</i> (Rigaku, 2012)
;
_computing_molecular_graphics
;
Mercury (Macrae <i>et al.</i>,  2006)
;
_computing_publication_material
;
OSCAIL (McArdle <i>et al.</i>,  2004), SHELXL2014 (Sheldrick,
2008) and
PLATON (Spek, 2009)
;
_computing_structure_refinement
;
OSCAIL (McArdle <i>et al.</i>,  2004),
ShelXle (H\"ubschle <i>et al.</i>,  2011) and
SHELXL2014 (Sheldrick, 2008)
;
_computing_structure_solution
;
SHELXS97 (Sheldrick, 2008),
PLATON (Spek, 2009) and
Flipper 25 (Oszl\'anyi & S\"ut\>o, 2004)
;
_diffrn_ambient_temperature      100(2)
_diffrn_detector_area_resol_mean 28.5714
_diffrn_measured_fraction_theta_full 0.995
_diffrn_measured_fraction_theta_max 0.989
_diffrn_measurement_device       'four-circle \k goniometer'
_diffrn_measurement_device_type  'Rigaku AFC12 (Right)'
_diffrn_measurement_method       'profile data from \w-scans'
_diffrn_radiation_type           MoK\a
_diffrn_radiation_wavelength     0.71075
_diffrn_reflns_av_R_equivalents  0.0777
_diffrn_reflns_limit_h_max       7
_diffrn_reflns_limit_h_min       -7
_diffrn_reflns_limit_k_max       8
_diffrn_reflns_limit_k_min       -8
_diffrn_reflns_limit_l_max       17
_diffrn_reflns_limit_l_min       -17
_diffrn_reflns_number            7435
_diffrn_reflns_theta_full        25.000
_diffrn_reflns_theta_max         25.143
_diffrn_reflns_theta_min         3.074
_exptl_absorpt_coefficient_mu    0.307
_exptl_absorpt_correction_T_max  0.988
_exptl_absorpt_correction_T_min  0.950
_exptl_absorpt_correction_type   multi-scan
_exptl_absorpt_process_details
;
(<i>CrystalClear-SM Expert</i>; Rigaku, 20112)
;
_exptl_crystal_colour            colourless
_exptl_crystal_density_diffrn    1.551
_exptl_crystal_description       plate
_exptl_crystal_F_000             308
_exptl_crystal_size_max          0.170
_exptl_crystal_size_mid          0.170
_exptl_crystal_size_min          0.040
_refine_diff_density_max         0.297
_refine_diff_density_min         -0.654
_refine_ls_extinction_method     none
_refine_ls_goodness_of_fit_ref   0.988
_refine_ls_hydrogen_treatment    mixed
_refine_ls_matrix_type           full
_refine_ls_number_parameters     194
_refine_ls_number_reflns         2265
_refine_ls_number_restraints     0
_refine_ls_restrained_S_all      0.988
_refine_ls_R_factor_all          0.0697
_refine_ls_R_factor_gt           0.0560
_refine_ls_shift/su_max          0.000
_refine_ls_shift/su_mean         0.000
_refine_ls_structure_factor_coef Fsqd
_refine_ls_weighting_details
'w=1/[\s^2^(Fo^2^)+(0.0834P)^2^] where P=(Fo^2^+2Fc^2^)/3'
_refine_ls_weighting_scheme      calc
_refine_ls_wR_factor_gt          0.1347
_refine_ls_wR_factor_ref         0.1454
_reflns_number_gt                1668
_reflns_number_total             2265
_reflns_threshold_expression     I>2\s(I)
_cod_data_source_file            lh5743sup1.cif
_cod_data_source_block           2
_cod_database_code               2240322
_cod_database_fobs_code          2240322
#BEGIN Tags that were not found in dictionaries:
_shelx_space_group_comment
;
The symmetry employed for this shelxl refinement is uniquely defined
by the following loop, which should always be used as a source of
symmetry information in preference to the above space-group names.
They are only intended as comments.
;
_shelx_estimated_absorpt_t_min   0.950
_shelx_estimated_absorpt_t_max   0.988
_shelx_hkl_file
;
   0  -1  -1 2.22000 3.29000   1
   0  -1   0 265.560 20.0000   1
   1   0   0 94.1700 9.54000   1
   1   0  -1 2783.60 291.910   1
   1   0   1 341.980 27.4200   1
   0  -1  -2 44.6200 6.23000   1
   0  -1  -2 44.3700 4.85000   1
   0   1   2 36.6500 4.11000   1
   0  -1   1 10.4600 2.49000   1
   0  -1   1 9.79000 2.80000   1
   0  -1   1 10.1700 9.16000   1
   0   1  -1 13.8700 11.9400   1
   1   1   0 20.0700 5.20000   1
   1   1   0 23.9400 4.16000   1
  -1  -1   0 18.4800 4.41000   1
   1   1   1 30.9600 5.94000   1
  -1  -1  -1 41.0900 5.64000   1
   1   0  -2 25.2300 4.67000   1
  -1   0   2 29.7000 5.43000   1
  -1   0   2 24.3100 4.07000   1
   1   0  -2 17.3800 7.01000   1
   1   0  -2 27.0600 5.58000   1
  -1  -1   1 590.340 53.0900   1
   1   1  -1 559.390 51.9800   1
  -1  -1   1 682.900 60.2400   1
  -1  -1   1 640.940 57.2200   1
   1   1  -1 606.850 56.8400   1
   0   0   3 6.01000 2.05000   1
   0   0  -3 5.63000 2.52000   1
   0   0  -3 5.29000 1.98000   1
   0   0  -3 6.27000 3.23000   1
   0   0   3 5.97000 7.93000   1
   1   1   2 561.630 50.1600   1
  -1  -1  -2 643.150 55.5400   1
  -1  -1  -2 563.280 49.7600   1
   1   1   2 563.230 49.8100   1
  -1   0  -2 181.030 15.6000   1
  -1   0  -2 217.210 18.3300   1
   1   0   2 204.170 17.2900   1
   0  -1  -3 31.5600 4.42000   1
   0  -1  -3 27.9700 3.87000   1
   0   1   3 25.9300 5.96000   1
   0   1   3 28.0600 4.15000   1
   0   1  -2 14.8800 4.06000   1
   0   1  -2 18.0300 14.6000   1
   0   1  -2 16.6500 3.41000   1
   0   1  -2 14.4100 4.02000   1
   0  -1   2 13.5500 12.8500   1
   0  -1   2 14.1500 3.07000   1
   1  -1  -1 134.190 11.2700   1
   1  -1  -1 134.250 10.7400   1
  -1   1   1 144.270 11.9900   1
  -1   1   0 18.9400 2.61000   1
  -1   1   0 19.7500 2.57000   1
  -1   1   0 22.2800 2.03000   1
  -1   1   0 22.6400 2.60000   1
   1  -1   0 19.4000 2.29000   1
   1  -1   0 22.2500 4.37000   1
   1   1  -2 87.0500 9.90000   1
  -1  -1   2 85.9600 9.69000   1
  -1  -1   2 90.1600 9.60000   1
  -1  -1   2 67.8300 9.44000   1
   1   1  -2 86.1900 11.8700   1
   1   1  -2 59.0200 8.32000   1
   1   0  -3 9.64000 3.63000   1
  -1   0   3 6.99000 2.59000   1
  -1   0   3 11.5300 3.99000   1
   1   0  -3 7.53000 2.88000   1
   1  -1  -2 256.250 20.1100   1
   1  -1  -2 278.760 22.4000   1
   1  -1  -2 229.810 20.1600   1
   1   1   3 16.0800 4.13000   1
  -1  -1  -3 20.1400 4.27000   1
  -1  -1  -3 16.2000 3.82000   1
  -1   1  -1 13.5300 2.08000   1
  -1   1  -1 12.3500 2.13000   1
  -1   1  -1 13.1100 3.50000   1
   1  -1   1 12.7700 1.53000   1
   1  -1   1 14.5500 2.78000   1
   1   0   3 29.5500 4.31000   1
   1   0   3 28.3500 2.84000   1
  -1   0  -3 34.3700 4.70000   1
  -1   0  -3 28.4300 3.99000   1
   1   0   3 27.7700 4.05000   1
   0   0   4 110.190 16.4900   1
   0   0  -4 110.880 10.7600   1
   0   0  -4 111.970 9.05000   1
   0   0  -4 114.370 9.54000   1
   0   0   4 100.240 8.02000   1
   0  -1  -4 5.16000 1.93000   1
   0   1   4 5.46000 2.10000   1
   0  -1  -4 5.68000 1.75000   1
   0   1   4 7.90000 2.40000   1
   0   1   4 7.45000 2.54000   1
   0  -1   3 1.06000 2.02000   1
   0  -1   3 0.27000 7.44000   1
   0   1  -3 0.03000 2.17000   1
   0  -1   3 0.55000 1.91000   1
   0   1  -3 -1.8600 8.42000   1
   0   1  -3 0.24000 1.97000   1
   1  -1  -3 719.200 66.7200   1
   1  -1  -3 810.820 70.7700   1
   1  -1  -3 887.960 78.7300   1
  -1  -2  -1 579.550 51.2700   1
  -1  -2  -1 652.940 61.9500   1
   0  -2  -1 1117.48 102.740   1
   0   2   1 1378.19 148.860   1
   0   2   1 1160.94 107.780   1
   0  -2  -1 1116.11 116.510   1
  -1  -1   3 1543.55 149.520   1
   1   1  -3 1483.94 148.800   1
   1   1  -3 1450.27 143.690   1
   1   1  -3 1416.65 139.490   1
   1   1  -3 1546.38 150.630   1
  -1  -1   3 1295.92 129.090   1
  -1  -1   3 1406.30 137.380   1
  -1  -2   0 250.090 21.5600   1
   1   2   0 239.400 21.1900   1
  -1  -2   0 263.460 26.6800   1
   0   2   2 6183.06 716.110   1
   0   2   2 5177.21 634.500   1
   0  -2  -2 4658.41 561.540   1
   0   2   2 5364.63 623.840   1
   0   2   0 195.840 30.1800   1
   0  -2   0 158.400 12.3200   1
   0  -2   0 160.620 14.1000   1
   1   2   2 7649.91 3495.68   1
  -1   1  -2 821.880 72.5400   1
  -1   1  -2 685.730 214.650   1
   1  -1   2 829.910 71.9500   1
  -1   1  -2 836.590 73.1600   1
  -2  -1   0 211.260 20.9100   1
   2   1   0 227.910 21.8100   1
   2   1   1 -0.3700 2.66000   1
  -2  -1  -1 1.70000 3.04000   1
  -1   0   4 43.8300 6.15000   1
   1   0  -4 52.1200 5.92000   1
   1   0  -4 46.3200 6.78000   1
   1   0  -4 48.5700 6.68000   1
  -1   0   4 50.4400 5.81000   1
   1   1   4 284.290 23.4500   1
   1   1   4 272.270 23.8600   1
  -1  -1  -4 307.600 25.9100   1
  -1  -1  -4 261.720 22.4400   1
   2   0   0 260.170 24.6600   1
  -2   0   1 1150.09 111.770   1
  -2   0   1 953.190 90.9300   1
   2   1  -1 284.560 28.0600   1
  -2  -1   1 302.400 28.6100   1
   1   2  -1 36.2700 9.25000   1
   1   2  -1 34.8300 5.45000   1
  -1  -2   1 40.3400 5.84000   1
  -1  -2   1 38.6200 5.05000   1
  -1  -2   1 42.8800 10.2900   1
   0  -2  -3 8966.39 5091.03   1
   0   2   3 7106.14 906.200   1
   0  -2  -3 7260.92 909.060   1
   0   2   3 8274.31 1422.26   1
   0  -2  -3 7083.73 869.850   1
   2   0   1 216.230 19.7800   1
  -2   0  -1 201.410 18.8300   1
   2   0   1 221.210 18.8300   1
   0  -2   1 100.970 9.00000   1
   0  -2   1 96.3600 9.20000   1
   0  -2   1 89.5400 7.17000   1
   0  -2   1 103.670 21.1000   1
   0   2  -1 92.2500 9.15000   1
   0   2  -1 112.320 20.6900   1
   1   2   3 276.240 24.6000   1
  -1  -2  -3 290.820 25.1700   1
   1   2   3 325.650 28.4300   1
  -1   0  -4 157.510 11.9500   1
   1   0   4 159.390 13.6400   1
  -1   0  -4 158.140 13.1200   1
  -1   0  -4 177.490 14.2500   1
   1   0   4 141.490 10.8100   1
   2   1   2 303.400 27.1800   1
   2   0  -2 0.14000 3.18000   1
  -2   0   2 -1.5500 3.07000   1
  -2   0   2 0.00000 1.55000   1
   2   0  -2 0.46000 2.16000   1
  -2   0   2 0.58000 1.73000   1
  -1   1   4 47.6600 5.61000   1
   1  -1  -4 54.7900 7.72000   1
   1  -1  -4 48.3600 5.52000   1
   1  -1  -4 57.9100 5.73000   1
  -2  -1   2 1.96000 3.39000   1
  -2  -1   2 2.53000 3.24000   1
  -2  -1   2 3.46000 2.81000   1
   2   1  -2 2.45000 3.26000   1
   0   1   5 293.520 24.7700   1
   0   1   5 311.630 24.1200   1
   0  -1  -5 300.300 24.7000   1
   0  -1  -5 319.540 26.1900   1
   0   1   5 325.830 27.1200   1
   0  -1   4 375.540 43.8700   1
   0   1  -4 434.370 50.1100   1
   0   1  -4 373.610 33.1200   1
   0  -1   4 371.020 31.9700   1
   0   1  -4 365.960 32.7600   1
   0   0  -5 314.800 25.6500   1
   0   0  -5 313.190 27.7600   1
   0   0  -5 343.200 28.7600   1
   0   0   5 321.390 34.0800   1
   2   0   2 784.990 70.8500   1
  -2   0  -2 794.400 74.2400   1
  -2   0  -2 857.830 77.4500   1
  -1   1  -3 8.37000 2.12000   1
  -1   1  -3 9.65000 2.06000   1
  -1   1  -3 7.96000 2.57000   1
  -1  -2   2 323.180 28.2700   1
  -1  -2   2 292.200 25.8000   1
   1   2  -2 301.010 32.1000   1
   1   2  -2 279.280 24.4000   1
  -1  -2   2 300.380 30.5300   1
  -1  -2   2 314.670 27.2100   1
   1   2  -2 301.320 27.7000   1
  -1  -1   4 8.88000 3.50000   1
  -1  -1   4 8.86000 4.62000   1
   1   1  -4 8.29000 3.62000   1
   1   1  -4 5.76000 5.64000   1
   1   1  -4 7.72000 3.31000   1
  -1  -1   4 7.44000 2.52000   1
   0   2   4 68.6800 12.6100   1
   0  -2  -4 73.8600 8.14000   1
   0  -2  -4 63.4700 5.86000   1
   0  -2  -4 77.4500 7.10000   1
   0   2   4 62.7500 6.53000   1
   0   2   4 79.5600 7.64000   1
   0  -2   2 267.290 22.3400   1
   0  -2   2 280.990 24.1200   1
   0  -2   2 269.050 21.3600   1
   0  -2   2 300.410 38.5800   1
   0   2  -2 269.110 23.8200   1
   0   2  -2 332.400 42.6800   1
   0   2  -2 268.180 20.4900   1
  -2  -1  -3 7.02000 3.01000   1
  -2  -1  -3 5.47000 2.98000   1
   2   1   3 7.64000 3.00000   1
   2   1   3 2.24000 3.31000   1
  -1  -2  -4 -0.9500 1.68000   1
   1   2   4 0.63000 2.13000   1
   1   2   4 0.05000 1.79000   1
   1   2   4 -0.2800 1.66000   1
  -1  -2  -4 0.89000 1.29000   1
   2   0  -3 96.2600 9.68000   1
   2   0  -3 87.0000 10.0000   1
  -2   0   3 98.9500 10.4300   1
   2   2   1 47.2200 6.77000   1
   2   2   1 67.2500 6.90000   1
  -2  -2  -1 52.6300 6.95000   1
   1  -2  -1 212.020 35.1600   1
  -1   2   1 240.010 19.0400   1
   1  -2  -1 238.670 18.6000   1
  -2  -2   0 -0.1600 1.67000   1
   2   2   0 0.04000 2.46000   1
   2   2   0 0.41000 1.97000   1
   1   1   5 261.600 21.3800   1
   1   1   5 251.300 22.0800   1
  -1  -1  -5 243.500 19.8900   1
  -1  -1  -5 296.640 25.0700   1
  -1  -1  -5 253.810 21.5600   1
   1  -2  -2 56.1900 4.69000   1
  -1   2   2 45.0500 3.50000   1
   1   0  -5 94.5200 9.73000   1
   1   0  -5 68.3900 9.43000   1
  -1   0   5 94.3900 8.77000   1
  -1   0   5 96.3300 9.58000   1
   1   0  -5 93.2400 9.18000   1
  -2  -2  -2 464.700 41.3300   1
   1  -2   0 46.2500 21.5700   1
   1  -2   0 61.9800 5.04000   1
  -1   2   0 61.2000 5.27000   1
   2  -1  -1 211.860 19.5000   1
   2  -1  -1 223.750 18.5800   1
  -2   1   1 230.060 18.7900   1
  -2   1   1 223.120 18.8300   1
   2   1  -3 12.0500 4.25000   1
   2   1  -3 10.8800 4.16000   1
   2   1  -3 14.0800 5.70000   1
  -2  -1   3 9.31000 4.17000   1
  -2  -1   3 9.28000 3.49000   1
  -2  -1   3 11.6500 3.63000   1
   2   1  -3 14.0500 3.34000   1
  -2   1   0 93.4200 8.47000   1
  -2   1   0 105.860 11.7000   1
   2  -1   0 111.020 8.83000   1
   2  -1   0 91.2100 7.40000   1
   2  -1   0 91.7500 9.04000   1
   2   2  -1 0.89000 2.99000   1
   2   2  -1 2.69000 3.31000   1
  -2  -2   1 4.29000 3.45000   1
   2   0   3 7.85000 3.09000   1
   2   0   3 9.40000 3.35000   1
  -2   0  -3 10.5600 2.94000   1
  -2   0  -3 9.62000 3.35000   1
   1  -1  -5 128.570 10.6200   1
  -1   1   5 128.900 11.0500   1
   2  -1  -2 0.52000 3.28000   1
  -2   1   2 0.71000 1.96000   1
  -2   1   2 0.78000 1.24000   1
   2  -1  -2 0.62000 1.96000   1
   2  -1  -2 1.16000 1.08000   1
   1  -2  -3 13.8600 2.02000   1
  -1   2   3 11.7000 2.72000   1
   1  -2  -3 12.7100 10.1000   1
   1  -2  -3 14.0400 2.24000   1
   1   0   5 453.190 38.8000   1
  -1   0  -5 455.880 37.3800   1
  -1   0  -5 442.170 37.4900   1
   1   0   5 473.940 38.7300   1
  -1   0  -5 480.960 41.4400   1
   1  -2   1 30.4500 3.73000   1
   1  -2   1 33.1200 3.35000   1
  -1   2  -1 32.8800 4.04000   1
   1  -2   1 19.7700 16.3600   1
  -1   2  -1 33.1600 3.19000   1
   2   2   3 245.530 22.3700   1
  -2  -2  -3 198.800 18.3100   1
   2   2   3 235.940 21.4200   1
   2  -1   1 0.32000 0.82000   1
   2  -1   1 0.12000 1.66000   1
   2  -1   1 0.71000 1.13000   1
  -2   1  -1 0.17000 1.42000   1
  -2   1  -1 0.13000 2.31000   1
   1   2  -3 100.550 10.8300   1
   1   2  -3 92.5300 10.6900   1
   1   2  -3 82.0600 8.80000   1
   1   2  -3 95.5200 12.9400   1
  -1  -2   3 94.9900 12.9200   1
  -1  -2   3 99.1300 10.1600   1
  -1  -2   3 94.5900 9.67000   1
  -1  -2   3 92.8800 9.46000   1
   0  -2  -5 58.1700 6.19000   1
   0  -2  -5 56.3600 6.03000   1
   0   2   5 54.7000 6.03000   1
   0   2   5 46.6500 9.19000   1
   0   2   5 49.5000 5.36000   1
   0  -2  -5 50.0300 5.19000   1
  -2  -1  -4 11.1000 2.84000   1
  -2  -1  -4 11.5400 2.80000   1
   2   1   4 9.14000 3.28000   1
   2   1   4 10.2100 3.57000   1
  -1   1  -4 161.620 11.4700   1
  -1   1  -4 165.360 13.6300   1
  -1   1  -4 160.100 13.6200   1
  -1   1  -4 164.080 12.8000   1
   1  -1   4 161.950 28.9800   1
   2   0  -4 284.120 29.4200   1
   2   0  -4 298.720 26.7900   1
  -2   0   4 309.110 28.2600   1
   0  -2   3 32.1700 4.18000   1
   0  -2   3 35.0200 14.6300   1
   0   2  -3 34.9300 3.35000   1
   0   2  -3 38.0600 14.1100   1
   0   2  -3 34.3300 5.63000   1
   0   2  -3 36.5100 5.13000   1
   0  -2   3 32.6600 4.51000   1
   2  -1  -3 42.6400 7.29000   1
   2  -1  -3 51.7100 5.47000   1
  -2   1   3 39.0600 5.63000   1
   2  -1  -3 43.7700 6.09000   1
   2  -1  -3 51.8500 5.02000   1
  -2   1   3 47.3500 4.48000   1
  -1  -2  -5 -0.1300 1.63000   1
   1   2   5 0.05000 1.80000   1
   1   2   5 0.23000 1.37000   1
   1   2   5 0.07000 1.74000   1
  -1  -2  -5 -0.6700 1.39000   1
   0   1   6 13.3900 3.25000   1
   0   1   6 13.6500 3.01000   1
   0   1   6 13.3200 4.32000   1
   0  -1  -6 13.4700 2.57000   1
   0  -1  -6 12.9100 2.48000   1
   0  -1   5 424.840 47.7800   1
   0  -1   5 408.880 35.5300   1
   0   1  -5 442.410 50.9500   1
   0   1  -5 386.200 34.4900   1
   0   1  -5 424.510 38.0600   1
  -2  -2   2 1644.74 163.470   1
  -2  -2   2 1384.14 140.800   1
   2   2  -2 1444.91 146.240   1
   2   2  -2 1499.76 150.870   1
  -2  -2   2 1420.31 141.220   1
   1  -2  -4 117.240 9.68000   1
   1  -2  -4 87.9900 7.54000   1
   1  -2  -4 73.5300 15.7700   1
  -1   2   4 100.050 9.75000   1
   1   1  -5 175.790 16.5400   1
  -1  -1   5 170.890 14.8900   1
  -1  -1   5 198.060 17.3900   1
  -1  -1   5 162.060 17.4900   1
   1   1  -5 188.930 18.5100   1
   1   1  -5 191.360 21.7700   1
   1   1  -5 161.740 15.8700   1
   0   0   6 45.7300 10.9200   1
   0   0  -6 44.1800 6.21000   1
   0   0  -6 43.5600 6.50000   1
   0   0  -6 44.3800 4.88000   1
   0   0  -6 40.6600 4.12000   1
   2  -1   2 393.600 33.3200   1
  -2   1  -2 496.000 41.6900   1
   2  -1   2 496.950 42.8400   1
   2  -1   2 417.340 33.3200   1
  -2   1  -2 470.280 41.5800   1
   1   3   1 1.93000 6.46000   1
   1   3   1 5.44000 2.85000   1
  -1  -3  -1 4.44000 2.39000   1
  -1  -3  -1 5.47000 6.44000   1
   1   3   2 58.0800 7.00000   1
  -1  -3  -2 59.9600 10.3600   1
  -1  -3  -2 52.4200 6.04000   1
   1   3   2 57.8400 10.1600   1
  -2  -1   4 65.1400 7.96000   1
   2   1  -4 67.7200 8.26000   1
  -2  -1   4 62.4500 6.80000   1
   2   1  -4 48.5000 7.56000   1
   2   1  -4 51.4800 8.59000   1
   2   1  -4 74.0000 9.70000   1
  -1   2  -2 111.520 10.6600   1
  -1   2  -2 118.490 8.96000   1
  -2  -2  -4 22.8400 4.65000   1
   2   2   4 19.5700 5.11000   1
   2   2   4 22.5000 4.94000   1
  -2   0  -4 274.020 23.5200   1
   2   0   4 259.130 22.3700   1
   2   0   4 310.740 26.9900   1
  -2   0  -4 304.910 26.4000   1
  -1  -1  -6 5.67000 1.91000   1
   1   1   6 3.59000 3.00000   1
   1   1   6 3.68000 1.99000   1
  -1  -1  -6 5.20000 2.79000   1
  -1  -1  -6 5.21000 2.35000   1
   1   3   0 241.530 27.8200   1
   1   3   0 197.760 17.6500   1
  -1  -3   0 222.770 25.7100   1
  -1  -3   0 188.960 16.5900   1
   1   0  -6 68.4100 8.23000   1
   1   0  -6 69.2700 9.47000   1
   1   0  -6 73.1000 9.55000   1
  -1   0   6 73.1700 7.38000   1
   1   0  -6 69.5500 6.75000   1
   1   3   3 21.1400 7.15000   1
  -1  -3  -3 18.5700 3.56000   1
  -1  -3  -3 12.9800 5.24000   1
   1   3   3 19.6100 5.26000   1
   2  -1  -4 87.3400 9.69000   1
  -2   1   4 91.9800 7.96000   1
  -2   1   4 95.8600 10.1100   1
   2  -1  -4 85.7200 8.12000   1
   0   3   2 135.340 23.6900   1
   0   3   2 124.620 11.9300   1
   0  -3  -2 103.710 17.4100   1
   0  -3  -2 106.010 9.26000   1
   0  -3  -1 41.2500 12.4600   1
   0  -3  -1 33.7800 3.67000   1
   0   3   1 38.4300 5.12000   1
   0   3   1 38.1700 17.1900   1
   1  -1  -6 323.390 27.0800   1
   1  -1  -6 337.000 29.4800   1
   1  -1  -6 337.040 28.2600   1
  -1   1   6 339.080 29.2200   1
   1  -1  -6 343.270 31.7300   1
   0   3   3 154.520 14.0100   1
   0   3   3 129.650 23.4500   1
   0  -3  -3 144.960 19.0400   1
   0   3   3 144.520 13.7800   1
   1   2  -4 3.62000 3.98000   1
  -1  -2   4 2.08000 2.04000   1
   1   2  -4 2.60000 2.83000   1
   1   2  -4 2.85000 7.19000   1
   1   2  -4 4.25000 3.77000   1
  -1  -2   4 2.15000 6.68000   1
  -1  -2   4 3.95000 2.38000   1
  -2  -2   3 24.7900 5.39000   1
  -2  -2   3 22.6700 4.64000   1
  -2  -2   3 26.3000 5.45000   1
  -2  -2   3 23.8200 4.51000   1
   2   2  -3 23.7300 7.70000   1
   2   2  -3 22.0200 6.17000   1
  -3  -1   0 312.640 30.2900   1
   3   1   0 287.110 28.0500   1
   2   1   5 21.8100 4.51000   1
  -2  -1  -5 21.2500 4.00000   1
   2   1   5 21.8800 3.20000   1
   2   1   5 24.6500 5.03000   1
  -2  -1  -5 22.6700 4.58000   1
   0  -3   0 109.660 8.99000   1
   0   3   0 148.720 25.4200   1
   0  -3   0 136.250 12.2000   1
   0  -3   0 121.820 18.5000   1
   1  -2  -5 75.4700 7.07000   1
   1  -2  -5 71.7300 13.3300   1
   1  -2  -5 82.5700 7.32000   1
   0   2   6 110.220 10.7200   1
   0   2   6 104.760 13.8900   1
   0  -2  -6 106.660 9.58000   1
   0  -2  -6 114.470 10.4700   1
   0   2   6 107.840 10.2300   1
   2   0  -5 2044.19 214.820   1
  -2   0   5 2216.83 239.320   1
  -2   0   5 2328.58 240.130   1
   2   0  -5 1907.04 204.610   1
   2   0  -5 2065.22 217.680   1
   3   1   1 353.810 33.5200   1
  -3  -1  -1 381.210 35.4200   1
   1   0   6 994.030 90.4700   1
   1   0   6 1047.72 98.1300   1
  -1   0  -6 959.130 88.4500   1
  -1   0  -6 956.570 86.6000   1
  -1   0  -6 1026.47 95.9200   1
  -3  -1   1 50.0200 6.91000   1
   3   1  -1 50.0500 7.57000   1
  -3  -1   1 50.9000 7.40000   1
  -1  -3   1 224.820 28.1600   1
  -1  -3   1 242.120 21.1100   1
   1   3  -1 219.410 26.5300   1
   1   3  -1 207.930 18.1100   1
  -1  -3   1 235.970 20.5600   1
   0   2  -4 429.050 38.4000   1
   0   2  -4 408.340 38.2000   1
   0   2  -4 429.100 35.5400   1
   0  -2   4 402.480 36.2100   1
   0  -2   4 393.430 45.9300   1
   0  -2   4 408.310 35.7600   1
   0   2  -4 472.150 57.7400   1
   1   2   6 19.6900 3.93000   1
  -1  -2  -6 18.6800 3.56000   1
  -1  -2  -6 18.3300 3.89000   1
   1   2   6 17.6300 3.11000   1
   1   2   6 17.4800 4.98000   1
   1   3   4 118.920 14.5700   1
  -1  -3  -4 101.960 10.1000   1
   1   3   4 98.1300 10.6700   1
  -1  -3  -4 107.610 12.7000   1
   1   3   4 121.230 12.8500   1
   2  -1   3 105.390 9.38000   1
  -2   1  -3 115.150 10.3900   1
   2  -1   3 95.7400 8.54000   1
  -2   1  -3 101.310 9.31000   1
   1  -1   5 12.6700 15.7400   1
  -1   1  -5 13.6200 3.16000   1
  -1   1  -5 13.4300 3.89000   1
  -1   1  -5 12.5400 3.03000   1
  -1   1  -5 12.1000 2.23000   1
  -1   1  -5 12.0200 1.56000   1
  -2  -3  -1 277.590 25.0400   1
   2   3   1 265.600 24.6400   1
  -2  -3  -2 0.10000 2.01000   1
   2   3   2 -0.8000 2.79000   1
   2   3   2 -0.4900 2.61000   1
   3   0   0 84.4300 11.1500   1
  -3   0   0 83.1700 9.02000   1
  -3   0   0 87.8800 10.6100   1
  -1   2  -3 -0.3600 1.75000   1
   1  -2   3 4.17000 10.4900   1
  -1   2  -3 0.81000 1.37000   1
  -1   2  -3 0.05000 0.75000   1
  -1   2  -3 0.03000 1.22000   1
  -3   0   1 406.850 37.7200   1
  -3   0   1 408.710 38.8300   1
   3   1   2 17.6700 5.30000   1
   3   1   2 15.6700 4.86000   1
  -3  -1  -2 16.4600 4.94000   1
  -2  -2  -5 41.6700 5.30000   1
   2   2   5 36.2100 5.50000   1
  -2  -2  -5 38.1700 5.06000   1
   2   2   5 39.3300 6.66000   1
   0   3   4 117.380 11.4600   1
   0   3   4 109.330 11.4400   1
   0   3   4 92.8900 17.7200   1
   2   3   0 214.130 23.4400   1
   2   3   0 204.850 20.2600   1
  -2  -3   0 204.220 18.8300   1
  -3  -1   2 1.43000 2.46000   1
   3   1  -2 0.51000 3.01000   1
  -3  -1   2 0.13000 2.67000   1
  -3  -1   2 1.51000 2.29000   1
   0   3  -1 15.5600 13.4600   1
   0  -3   1 16.1100 3.01000   1
   0  -3   1 13.3200 2.32000   1
   0  -3   1 14.7000 8.61000   1
   0  -3   1 13.1300 2.59000   1
   0  -1  -7 620.030 54.4100   1
   0  -1  -7 695.520 61.5100   1
   0   1   7 666.670 59.2400   1
   0   1   7 552.810 49.5400   1
   3   0   1 636.350 57.0900   1
   3   0   1 534.980 50.9900   1
  -3   0  -1 478.530 45.4500   1
   2   1  -5 167.190 18.6100   1
   2   1  -5 180.870 18.9900   1
   2   1  -5 184.210 17.9000   1
   2   1  -5 181.660 18.3600   1
  -2  -1   5 189.730 17.4400   1
   0  -1   6 -0.5000 5.99000   1
   0   1  -6 1.57000 2.60000   1
   0   1  -6 0.84000 2.60000   1
   0   1  -6 0.14000 1.07000   1
   2  -1  -5 1.59000 2.27000   1
   2  -1  -5 2.00000 2.46000   1
  -2   1   5 1.59000 2.22000   1
  -2   1   5 1.32000 1.59000   1
   2  -1  -5 2.80000 1.86000   1
  -3   0   2 -0.3600 1.46000   1
  -3   0   2 -0.0800 1.62000   1
   3   0  -2 0.25000 2.79000   1
  -3   0   2 0.39000 2.20000   1
   2   3   3 72.8800 9.07000   1
  -2  -3  -3 75.6400 8.37000   1
   3   2   1 37.9900 7.42000   1
   2  -2  -1 354.920 29.8600   1
   2  -2  -1 339.810 30.5500   1
   2  -2  -1 326.540 26.6300   1
   3   2   0 21.3900 5.75000   1
  -3  -2   0 28.7200 5.57000   1
  -1  -1   6 17.4600 3.27000   1
  -1  -1   6 22.8600 4.11000   1
  -1  -1   6 23.5000 6.80000   1
   1   1  -6 15.1100 3.90000   1
   1   1  -6 21.4800 7.19000   1
   1   1  -6 17.1200 4.97000   1
  -2   0  -5 27.0400 3.87000   1
   2   0   5 25.8700 4.13000   1
   2   0   5 26.3100 4.07000   1
   2   0   5 24.4500 2.57000   1
  -2   0  -5 27.8200 4.49000   1
   2  -2  -2 485.810 42.2000   1
   2  -2  -2 485.870 41.4100   1
  -1  -3   2 59.0100 6.65000   1
   1   3  -2 56.6700 6.30000   1
   1   3  -2 66.7600 14.2700   1
  -1  -3   2 57.0800 11.5200   1
  -1  -3   2 48.8600 5.71000   1
  -1  -3   2 55.7600 6.09000   1
   0   0  -7 1034.89 96.7900   1
   0   0  -7 1048.46 100.950   1
   0   0  -7 1015.26 96.5500   1
   0   0  -7 949.900 87.8700   1
   0   0   7 991.700 100.710   1
   2  -2   0 101.390 9.73000   1
   2  -2   0 113.970 8.83000   1
   2   3  -1 323.000 32.2800   1
  -2  -3   1 293.660 26.7800   1
  -2  -3   1 326.830 29.5100   1
   2   3  -1 278.680 26.1900   1
  -2  -3   1 278.140 29.9000   1
   1   3   5 35.0000 7.00000   1
   1   3   5 36.4700 5.04000   1
   1   3   5 41.3200 6.45000   1
  -1  -3  -5 37.8500 5.00000   1
  -1  -3  -5 42.3900 5.56000   1
  -3  -2   1 6.23000 3.18000   1
   3   2  -1 6.73000 4.73000   1
   3   1   3 356.750 31.7900   1
  -3  -1  -3 318.490 29.6200   1
   3   1   3 331.580 31.5400   1
  -2  -2   4 37.3600 5.38000   1
  -2  -2   4 37.1600 4.71000   1
   2   2  -4 46.8600 8.17000   1
  -2  -2   4 40.2400 6.47000   1
   2   2  -4 38.2300 7.45000   1
   2   2  -4 35.2500 6.40000   1
   2   2  -4 38.2800 6.78000   1
  -2  -2   4 37.6800 7.06000   1
  -2   2   3 -0.3500 1.31000   1
   2  -2  -3 0.42000 1.17000   1
   2  -2  -3 0.14000 0.69000   1
   2  -2  -3 0.18000 0.51000   1
   3   0   2 48.7100 6.45000   1
   3   0   2 57.3100 6.85000   1
  -3   0  -2 52.1600 6.70000   1
  -1  -1  -7 0.21000 1.82000   1
  -1  -1  -7 1.39000 1.45000   1
   1   1   7 1.74000 1.59000   1
   1   1   7 1.13000 2.46000   1
  -1  -1  -7 1.37000 1.63000   1
  -1   2   6 152.270 14.1900   1
   1  -2  -6 138.020 11.8600   1
   1  -2  -6 140.290 12.0700   1
   1  -2  -6 133.280 14.8300   1
  -3  -1   3 174.210 18.4200   1
  -3  -1   3 161.960 15.5500   1
  -3  -1   3 172.140 16.2800   1
   0  -3  -5 263.870 23.5000   1
   0  -3  -5 225.790 22.0500   1
   0   3   5 240.750 21.3700   1
   0   3   5 234.960 21.1500   1
   0   3   5 215.200 28.0500   1
   3   0  -3 169.990 17.1300   1
  -3   0   3 201.370 17.7900   1
  -3   0   3 182.560 17.2500   1
   3   0  -3 164.770 16.3100   1
  -2  -3  -4 10.6100 3.13000   1
   2   3   4 6.90000 4.37000   1
   2   3   4 9.60000 4.78000   1
   2   3   4 10.5200 3.53000   1
   1  -3  -2 26.0300 11.3800   1
   1  -3  -2 22.7500 2.64000   1
  -1   3   2 27.9500 3.99000   1
  -1   3   2 24.3200 2.80000   1
   1   0  -7 28.8200 5.31000   1
   1   0  -7 27.8900 4.19000   1
   1   0  -7 23.0800 6.40000   1
   1   0  -7 27.4200 3.84000   1
   1  -1  -7 17.1000 2.48000   1
   1  -1  -7 20.5900 5.15000   1
   1  -1  -7 19.6200 2.76000   1
   1  -1  -7 16.5400 4.11000   1
   0   3  -2 135.850 13.2400   1
   0  -3   2 121.680 11.1400   1
   0  -3   2 131.500 10.4600   1
   0  -3   2 117.560 10.2300   1
   0  -3   2 112.150 20.0400   1
   0   3  -2 144.990 27.0000   1
  -2   1  -4 8.88000 2.82000   1
   2  -1   4 6.91000 1.86000   1
   2  -1   4 6.84000 2.43000   1
  -2   1  -4 7.45000 2.25000   1
  -2  -1  -6 265.410 22.9500   1
  -2  -1  -6 261.660 22.4900   1
   2   1   6 189.700 17.3800   1
   2   1   6 257.830 22.4400   1
   2   1   6 259.450 21.1700   1
  -1  -2   5 7.71000 7.32000   1
   1   2  -5 10.6100 4.36000   1
  -1  -2   5 10.0700 3.14000   1
   1   2  -5 12.2200 6.13000   1
   1   2  -5 11.2300 4.47000   1
   1   2  -5 10.2500 3.61000   1
  -1  -2   5 7.14000 2.38000   1
   1  -3  -1 270.660 22.1900   1
  -1   3   1 297.240 24.7100   1
   2   0  -6 168.540 15.2200   1
   2   0  -6 156.750 16.2700   1
  -2   0   6 160.970 15.1800   1
  -2   0   6 152.550 13.6200   1
   2   0  -6 139.630 16.8400   1
   2   0  -6 149.720 14.2100   1
   3   2   3 6.97000 4.46000   1
   3   2   3 10.2900 3.69000   1
   2  -2   1 5.49000 2.15000   1
   2  -2   1 5.16000 1.16000   1
  -2   2  -1 5.44000 1.69000   1
  -2   2  -1 6.18000 1.68000   1
   0   2   7 0.01000 2.48000   1
   0   2   7 0.78000 2.21000   1
   0  -2  -7 0.71000 1.19000   1
   0  -2  -7 1.70000 1.68000   1
   0   2   7 0.07000 1.55000   1
   1  -3  -3 33.2800 3.55000   1
  -1   3   3 33.7700 4.59000   1
  -1   3   3 32.3100 3.25000   1
   1  -3  -3 31.0900 12.7500   1
   0  -2   5 2622.49 304.320   1
   0  -2   5 2666.92 286.340   1
   0  -2   5 2653.29 286.110   1
   0   2  -5 2905.72 342.140   1
   0   2  -5 2935.32 311.420   1
   0   2  -5 2776.46 301.170   1
   0   2  -5 2749.90 297.790   1
  -3  -2   2 9.27000 3.81000   1
  -3  -2   2 11.7100 3.95000   1
   3   2  -2 13.4100 5.37000   1
   3   2  -2 6.79000 3.93000   1
  -3  -2   2 9.14000 3.49000   1
  -1   2  -4 1272.40 121.900   1
  -1   2  -4 1196.53 117.100   1
  -1   2  -4 1227.43 117.000   1
   1  -2   4 1259.10 146.350   1
   2  -2  -4 127.140 9.51000   1
   2  -2  -4 122.630 9.69000   1
   2  -2  -4 109.690 10.4400   1
   2  -2  -4 111.560 9.04000   1
  -1  -2  -7 8.44000 2.37000   1
  -1  -2  -7 6.47000 2.18000   1
   1   2   7 7.98000 3.10000   1
  -1  -2  -7 9.48000 2.21000   1
   1   2   7 7.41000 2.70000   1
   2   2   6 1.64000 3.30000   1
   2   2   6 2.64000 1.89000   1
  -2  -2  -6 1.74000 1.92000   1
  -2  -2  -6 2.26000 1.94000   1
   2   2   6 3.79000 2.10000   1
  -1   3   0 13.2500 2.45000   1
   1  -3   0 11.6400 1.93000   1
   1  -3   0 14.7700 12.6500   1
  -2  -3   2 18.5100 5.74000   1
  -2  -3   2 22.6800 4.44000   1
  -2  -3   2 19.8400 4.03000   1
   2   3  -2 23.7300 7.42000   1
  -2  -3   2 17.2600 3.90000   1
   2   3  -2 23.0200 4.97000   1
  -1   0  -7 1140.95 106.540   1
  -1   0  -7 1060.17 97.1900   1
  -1   0  -7 1111.00 104.590   1
   1   0   7 901.440 85.6700   1
   1   0   7 1061.51 97.4900   1
   1  -1   6 57.4700 18.6300   1
  -1   1  -6 45.4900 6.13000   1
  -1   1  -6 47.9300 6.07000   1
  -1   1  -6 47.5000 4.47000   1
  -1   1  -6 45.1900 3.74000   1
  -1   1  -6 51.7200 5.51000   1
   2  -1  -6 0.09000 1.65000   1
   2  -1  -6 0.16000 1.44000   1
   2  -1  -6 -0.1800 0.99000   1
  -3   0  -3 8.67000 3.13000   1
  -3   0  -3 9.09000 2.61000   1
   3   0   3 11.3000 3.53000   1
   3   0   3 6.83000 3.60000   1
   1   3  -3 255.560 24.2100   1
   1   3  -3 279.150 32.7700   1
  -1  -3   3 253.160 21.7000   1
  -1  -3   3 247.570 27.0700   1
  -1  -3   3 239.770 21.5100   1
  -1  -3   3 240.300 21.2300   1
   1   3  -3 241.590 20.7500   1
   3  -1  -1 215.850 18.5200   1
   3  -1  -1 335.150 27.3700   1
   3  -1  -1 217.920 20.5000   1
  -3   1   1 273.300 23.7200   1
  -3  -1  -4 702.010 66.1900   1
   3   1   4 739.150 71.0100   1
   3   1   4 770.960 70.9500   1
   1  -3  -4 35.6500 3.46000   1
  -1   3   4 35.6800 3.50000   1
   1  -3  -4 33.4200 8.76000   1
  -3   1   0 -0.0100 1.14000   1
   3  -1   0 0.03000 1.50000   1
   3  -1   0 0.05000 1.04000   1
  -3   1   0 -0.0700 1.78000   1
   3   0  -4 27.3300 4.93000   1
  -3   0   4 33.0500 5.06000   1
  -3   0   4 32.1800 4.34000   1
   3   0  -4 25.8900 5.72000   1
   3  -1  -2 4.89000 3.61000   1
   3  -1  -2 5.48000 1.57000   1
  -3   1   2 6.99000 2.44000   1
  -3   1   2 4.75000 1.92000   1
   3  -1  -2 4.36000 1.97000   1
   1   3   6 1.67000 3.26000   1
  -1  -3  -6 1.58000 1.66000   1
  -1  -3  -6 1.52000 2.03000   1
   1   3   6 1.04000 2.42000   1
   1   3   6 2.42000 2.85000   1
   2   3   5 79.7100 9.07000   1
   2   3   5 95.9200 10.7900   1
  -2  -3  -5 95.4500 9.19000   1
   2   3   5 85.9600 9.08000   1
  -2  -1   6 0.30000 1.40000   1
   2   1  -6 -0.3500 1.63000   1
   2   1  -6 -0.9600 2.47000   1
   2   1  -6 1.29000 2.28000   1
   2   1  -6 0.41000 2.51000   1
  -2  -1   6 -0.2400 1.62000   1
  -3  -1   4 14.4400 3.94000   1
   3   1  -4 10.0000 4.97000   1
   3   1  -4 9.37000 3.61000   1
  -3  -1   4 12.8300 3.46000   1
  -3  -1   4 11.1600 4.57000   1
   2  -2   2 15.6600 2.46000   1
  -2   2  -2 12.6400 2.49000   1
  -2   2  -2 18.3400 2.74000   1
   3   2   4 458.290 42.3000   1
  -3  -2  -4 444.610 40.6900   1
   3   2   4 487.700 44.9600   1
   0   3   6 74.9400 13.5400   1
   0  -3  -6 66.9000 7.50000   1
   0  -3  -6 64.3800 6.25000   1
   0  -3  -6 66.4200 7.58000   1
   0   3   6 69.0500 7.82000   1
   0   3   6 74.8000 7.76000   1
   2   0   6 4.82000 2.28000   1
  -2   0  -6 7.96000 2.48000   1
  -2   0  -6 6.42000 2.22000   1
   2   0   6 4.59000 1.15000   1
   1  -3   1 56.8100 17.1000   1
   1  -3   1 52.9700 4.76000   1
  -1   3  -1 52.6600 5.09000   1
   0   3  -3 16.0400 4.19000   1
   0  -3   3 14.6400 2.39000   1
   0  -3   3 14.4700 2.89000   1
   0  -3   3 19.8000 10.2500   1
   0   3  -3 22.0100 12.9400   1
   0  -1  -8 1.47000 1.34000   1
   0  -1  -8 0.46000 1.74000   1
   0   1   8 1.85000 1.47000   1
   0   1   8 0.74000 1.65000   1
  -3   1  -1 1003.63 98.8400   1
  -3   1  -1 961.520 92.3000   1
   3  -1   1 1263.23 117.140   1
  -3  -2   3 2267.70 240.290   1
   3   2  -3 2134.82 226.070   1
   3   2  -3 2079.15 223.370   1
  -3  -2   3 2224.91 240.980   1
  -3  -2   3 2455.24 260.340   1
  -2  -2   5 6.45000 3.44000   1
   2   2  -5 5.32000 3.01000   1
   2   2  -5 5.58000 3.84000   1
   2   2  -5 4.74000 4.52000   1
  -2  -2   5 6.32000 2.79000   1
   2   2  -5 6.41000 3.50000   1
  -2  -2   5 4.68000 2.50000   1
  -3   1   3 160.730 13.8100   1
  -3   1   3 172.220 15.5000   1
   3  -1  -3 198.940 15.7200   1
   3  -1  -3 152.810 14.2900   1
   3  -1  -3 154.560 16.0600   1
   0   1  -7 100.950 10.8600   1
   0  -1   7 102.850 16.2200   1
   0   1  -7 110.350 8.81000   1
   0   1  -7 122.300 10.7500   1
   0   1  -7 109.200 11.3600   1
   2  -2  -5 13.0100 2.23000   1
   2  -2  -5 13.9200 2.36000   1
   2  -2  -5 13.3800 1.86000   1
   2  -2  -5 11.1400 3.57000   1
  -1  -1   7 25.5800 3.43000   1
  -1  -1   7 24.0400 3.26000   1
   1   1  -7 23.0500 7.59000   1
   1   1  -7 26.2900 4.95000   1
  -1  -1   7 27.8000 6.54000   1
   1   1  -7 24.6500 5.14000   1
   1  -2  -7 95.8900 8.31000   1
   1  -2  -7 87.6600 9.21000   1
   1  -2  -7 95.3100 8.70000   1
  -1   2   7 103.790 9.88000   1
   1  -2  -7 83.4600 7.43000   1
   1  -2  -7 83.1400 7.45000   1
   3   3   1 2.09000 2.98000   1
  -3  -3  -1 3.29000 2.65000   1
   3   3   1 2.31000 3.26000   1
   3   3   2 0.28000 3.02000   1
   3   3   2 0.94000 2.12000   1
  -3  -3  -2 1.11000 1.62000   1
  -2  -3   3 46.8900 5.93000   1
  -2  -3   3 46.9400 9.26000   1
  -2  -3   3 43.0100 6.00000   1
   2   3  -3 41.1800 7.75000   1
   2   3  -3 40.8800 6.00000   1
  -2  -3   3 40.1400 5.39000   1
  -1   3   5 12.0700 3.36000   1
   1  -3  -5 12.6100 2.21000   1
   1  -3  -5 16.6300 5.49000   1
   1  -3  -5 15.2100 2.45000   1
  -1   3   5 10.0400 2.15000   1
   2  -1   5 106.000 8.74000   1
   2  -1   5 115.990 11.1500   1
  -2   1  -5 127.510 11.3500   1
  -2   1  -5 120.390 10.2600   1
   3   3   0 70.9900 9.16000   1
  -3  -3   0 61.4700 7.08000   1
   3   3   0 59.5400 8.69000   1
   0   0  -8 369.330 33.6600   1
   0   0  -8 327.290 27.8800   1
   0   0  -8 317.350 26.6200   1
   0   0   8 346.850 35.0700   1
   0   0  -8 317.150 28.2000   1
   3   0   4 109.300 10.4000   1
  -3   0  -4 114.020 10.6300   1
   3   0   4 134.430 12.7700   1
  -3   0  -4 119.020 11.4200   1
   1   1   8 20.6600 4.41000   1
   1   1   8 21.6100 3.10000   1
  -1  -1  -8 23.4900 3.43000   1
  -1  -1  -8 20.5200 2.74000   1
   2   1   7 46.6000 5.95000   1
  -2  -1  -7 47.1700 5.03000   1
  -2  -1  -7 48.9600 5.27000   1
   2   1   7 46.3200 4.58000   1
   3   3   3 0.64000 2.24000   1
   3   3   3 0.19000 1.90000   1
   3   3   3 -0.6400 1.45000   1
  -3  -3  -3 0.33000 1.27000   1
   2   0  -7 5.34000 3.02000   1
  -2   0   7 3.24000 2.86000   1
   2   0  -7 5.15000 1.67000   1
   2   0  -7 3.98000 3.32000   1
  -2   0   7 3.68000 2.13000   1
   2   0  -7 6.58000 2.25000   1
   1   4   2 3.81000 5.60000   1
  -1  -4  -2 3.69000 1.87000   1
  -1  -4  -2 6.30000 4.51000   1
  -1  -2   6 85.1000 8.67000   1
   1   2  -6 84.7000 9.30000   1
   1   2  -6 88.0500 10.3700   1
  -1  -2   6 78.4400 12.8500   1
  -1  -2   6 86.9600 8.01000   1
   1   2  -6 87.6400 10.1400   1
   1   2  -6 90.7000 14.2300   1
   3  -1   2 0.72000 1.47000   1
   3  -1   2 0.29000 1.93000   1
  -3   1  -2 1.34000 1.87000   1
   3   1   5 24.9700 4.35000   1
  -3  -1  -5 26.2600 3.84000   1
   3   1   5 24.6400 4.17000   1
  -3  -1  -5 27.4700 4.17000   1
  -1   3  -2 125.090 11.2900   1
  -1   3  -2 112.390 9.09000   1
   1  -3   2 122.840 9.94000   1
   3   0  -5 195.300 20.2800   1
   3   0  -5 187.400 18.1300   1
   3   0  -5 201.260 18.4200   1
  -3   0   5 211.070 19.5800   1
  -3   0   5 196.640 18.2100   1
  -1   2  -5 119.030 8.34000   1
   1  -2   5 140.320 27.2200   1
  -1   2  -5 131.390 11.0200   1
  -1   2  -5 118.750 10.5700   1
   1  -1  -8 26.0000 3.35000   1
   1  -1  -8 26.2700 3.25000   1
   1  -1  -8 22.8100 3.62000   1
   1  -1  -8 30.4700 5.34000   1
   0   2   8 50.5400 6.30000   1
   0   2   8 55.1200 6.01000   1
   0  -2  -8 61.3200 6.13000   1
   0  -2  -8 47.8200 4.83000   1
   3  -1  -4 137.710 13.4600   1
  -3   1   4 151.130 14.4700   1
   3  -1  -4 132.390 14.8200   1
  -3   1   4 148.460 12.5800   1
  -1  -4  -1 75.0400 6.88000   1
  -1  -4  -1 82.5000 12.4400   1
   1   4   1 88.8300 15.0700   1
  -2   2  -3 15.0500 2.41000   1
   2  -2   3 11.8000 1.75000   1
   2  -2   3 9.83000 17.8600   1
  -2   2  -3 11.2800 2.55000   1
   1   4   3 471.650 42.4300   1
   1   4   3 407.910 44.7700   1
  -1  -4  -3 400.910 35.4500   1
  -1  -4  -3 395.780 39.8100   1
   3   3  -1 7.41000 3.54000   1
   3   3  -1 8.83000 4.46000   1
  -3  -3   1 10.8100 3.20000   1
   2   2   7 268.970 23.1800   1
  -2  -2  -7 264.860 23.2500   1
  -2  -2  -7 272.700 23.8800   1
   2   2   7 265.110 24.1300   1
   3   2   5 5.89000 2.69000   1
  -3  -2  -5 4.59000 2.73000   1
   3   2   5 8.58000 2.86000   1
  -1  -3   4 93.5900 8.77000   1
  -1  -3   4 92.4400 15.7000   1
   1   3  -4 106.980 16.1900   1
   1   3  -4 101.370 11.2900   1
   1   3  -4 92.9100 8.39000   1
  -1  -3   4 93.9000 8.88000   1
  -1  -3   4 104.200 9.93000   1
  -2  -3  -6 112.290 10.6700   1
  -2  -3  -6 120.720 10.6600   1
   2   3   6 140.800 12.7800   1
   2   3   6 141.730 14.1500   1
   2   3   6 121.630 12.0000   1
   1   0  -8 22.2900 6.57000   1
   1   0  -8 27.8900 3.55000   1
   1   0  -8 29.6200 3.61000   1
   1   0  -8 28.4200 5.20000   1
   1   0  -8 28.7300 4.21000   1
   0   2  -6 84.5600 7.56000   1
   0   2  -6 94.3100 16.9000   1
   0  -2   6 72.8500 6.58000   1
   0  -2   6 78.0200 13.9200   1
   0   2  -6 77.2500 8.29000   1
   0   2  -6 75.2300 8.83000   1
  -3  -1   5 6.84000 3.04000   1
  -3  -1   5 8.00000 2.53000   1
   3   1  -5 6.38000 3.30000   1
   3   1  -5 5.16000 4.88000   1
   3   1  -5 6.99000 3.88000   1
   3   1  -5 6.95000 2.75000   1
   2  -1  -7 8.07000 2.78000   1
   2  -1  -7 8.04000 1.83000   1
   2  -1  -7 11.7100 3.57000   1
   1   2   8 57.7600 6.56000   1
  -1  -2  -8 58.2200 6.52000   1
  -1  -2  -8 55.1700 5.34000   1
  -1  -2  -8 58.6300 5.74000   1
   1   2   8 55.7000 5.75000   1
  -1  -3  -7 59.0900 5.96000   1
   1   3   7 73.1000 8.38000   1
   1   3   7 69.0800 6.68000   1
   1   3   7 71.5000 8.09000   1
  -1  -3  -7 64.7700 6.66000   1
   3   2  -4 21.8300 6.01000   1
   3   2  -4 27.4400 4.38000   1
  -3  -2   4 22.4500 4.26000   1
  -3  -2   4 24.3500 4.57000   1
  -3  -2   4 25.0400 5.12000   1
   1   4   0 -2.1600 5.31000   1
  -1  -4   0 0.57000 1.94000   1
  -1  -4   0 0.94000 1.22000   1
  -1  -4   0 3.09000 4.82000   1
   1   4   0 1.39000 1.66000   1
   0   3   7 154.070 13.9100   1
   0   3   7 145.340 18.3700   1
   0  -3  -7 133.140 11.6200   1
   0  -3  -7 161.230 14.1600   1
   0   3   7 158.100 14.2900   1
   0  -3  -7 170.620 14.6400   1
   1   4   4 3764.98 416.030   1
  -1  -4  -4 2963.49 329.410   1
   1   4   4 3310.50 365.430   1
   1   4   4 3239.63 375.570   1
  -1  -4  -4 2977.45 344.400   1
   2  -2  -6 93.5100 10.5500   1
   2  -2  -6 100.620 8.10000   1
   2  -2  -6 93.6800 8.80000   1
   2  -2  -6 98.1000 8.45000   1
  -3  -3  -4 205.480 18.2800   1
   3   3   4 189.340 17.8800   1
   3   3   4 221.040 21.2000   1
   2   4   2 53.3100 8.88000   1
  -2  -4  -2 45.6800 5.97000   1
   2   4   2 52.2800 6.45000   1
  -2  -4  -2 51.8900 5.41000   1
   0  -4  -2 11.9300 1.90000   1
   0   4   2 16.2900 3.24000   1
   0  -4  -2 9.11000 7.04000   1
   0   4   2 8.92000 11.1800   1
   0  -3   4 52.6000 13.3100   1
   0   3  -4 64.0200 14.7500   1
   0  -3   4 55.3600 5.26000   1
   0  -3   4 50.5700 5.21000   1
   0   3  -4 54.4200 6.97000   1
  -1   3   6 117.150 10.6300   1
  -1   3   6 133.490 12.1000   1
   1  -3  -6 116.770 12.2800   1
   1  -3  -6 143.360 11.9100   1
   1  -3  -6 120.680 10.2800   1
  -1   1  -7 48.7500 6.23000   1
  -1   1  -7 47.0600 4.72000   1
  -1   1  -7 44.6400 3.68000   1
   1  -1   7 42.7100 16.7100   1
  -1   1  -7 42.3800 5.62000   1
  -1   1  -7 45.4200 4.25000   1
  -2  -4  -1 146.090 14.9400   1
   2   4   1 155.550 17.8200   1
   2   4   1 145.750 13.4700   1
   0   4   3 -0.3100 2.03000   1
   0   4   3 -0.8000 6.32000   1
   0   4   3 3.37000 1.68000   1
   0  -4  -3 -0.2400 1.14000   1
   0  -4  -3 -0.8100 3.82000   1
  -1   0  -8 230.540 18.6500   1
  -1   0  -8 241.130 20.5300   1
  -1   0  -8 245.850 20.7800   1
   1   0   8 240.550 19.4200   1
   1   0   8 207.870 30.6600   1
   0  -4  -1 5.89000 1.43000   1
   0  -4  -1 6.12000 2.04000   1
   0   4   1 7.97000 2.45000   1
   0   4   1 3.53000 7.93000   1
   0  -4  -1 4.52000 5.98000   1
  -2  -4  -3 79.6900 8.62000   1
  -2  -4  -3 62.3300 6.97000   1
   2   4   3 71.8800 9.83000   1
   2   4   3 63.3800 7.09000   1
  -3  -3   2 1.76000 2.33000   1
  -3  -3   2 1.19000 2.26000   1
  -3  -3   2 0.57000 2.11000   1
   3   3  -2 0.84000 2.61000   1
  -2  -1   7 64.2700 6.55000   1
  -2  -1   7 60.2800 6.78000   1
   2   1  -7 52.6300 7.91000   1
   2   1  -7 55.2800 7.12000   1
   2   1  -7 47.1500 8.15000   1
   2   1  -7 61.7900 7.37000   1
  -3   1  -3 48.7800 5.16000   1
   3  -1   3 45.5800 5.43000   1
   3  -1   3 47.3400 4.98000   1
  -3   1  -3 47.9800 5.64000   1
  -2  -3   4 12.2500 2.57000   1
   2   3  -4 10.3600 5.43000   1
   2   3  -4 14.2900 4.01000   1
  -2  -3   4 13.7500 3.03000   1
  -2  -3   4 14.1200 2.99000   1
  -2  -3   4 16.1300 6.43000   1
  -2   0  -7 351.610 30.7900   1
  -2   0  -7 398.940 35.3200   1
   2   0   7 370.320 30.2100   1
   2   0   7 375.920 32.7900   1
  -3   1   5 90.5000 8.06000   1
   3  -1  -5 95.6700 8.21000   1
   3  -1  -5 85.7000 8.08000   1
   3  -1  -5 88.6500 9.57000   1
   3  -1  -5 86.9500 11.3000   1
  -3   1   5 85.0300 8.67000   1
  -2  -2   6 136.490 14.4200   1
   2   2  -6 132.620 13.8500   1
   2   2  -6 128.710 14.8400   1
  -2  -2   6 142.130 13.5600   1
   2   2  -6 132.970 12.5700   1
  -2  -2   6 119.980 10.8400   1
   2   2  -6 129.180 14.1200   1
  -2  -4   0 19.7300 3.40000   1
   2   4   0 19.4300 5.40000   1
  -2  -4   0 32.8800 6.84000   1
   2   4   0 25.7900 4.25000   1
  -1  -4   1 38.2300 4.13000   1
  -1  -4   1 54.4300 5.94000   1
  -1  -4   1 47.4000 8.68000   1
   1   4  -1 38.9600 4.43000   1
   1   4  -1 41.6600 11.3200   1
   4   1   0 18.8300 4.59000   1
  -4  -1   0 21.3500 4.10000   1
   0   4   4 32.5800 4.68000   1
   0  -4  -4 27.7100 3.88000   1
   0   4   4 34.1000 11.6700   1
   0  -4  -4 34.9300 7.58000   1
   0   4   4 34.3100 4.59000   1
  -3   0  -5 0.17000 1.38000   1
   3   0   5 -0.1400 1.14000   1
   3   0   5 0.02000 1.27000   1
  -3   0  -5 0.27000 1.05000   1
   1  -2  -8 72.0800 7.02000   1
   1  -2  -8 67.9600 6.31000   1
   1  -2  -8 65.0400 5.96000   1
  -1   3  -3 170.240 15.2500   1
  -1   3  -3 164.380 12.6600   1
   1  -3   3 168.090 13.6500   1
   1  -3   3 169.280 27.7400   1
   2  -3  -2 12.9800 11.2600   1
   2  -3  -2 9.44000 1.58000   1
   2  -3  -2 10.2100 1.79000   1
  -2   3   2 7.69000 2.19000   1
   1   4   5 1341.95 134.070   1
   1   4   5 1320.81 143.830   1
   1   4   5 1427.53 140.710   1
  -1  -4  -5 1222.40 121.550   1
  -1  -4  -5 1168.91 119.140   1
   0  -4   0 31.6400 3.86000   1
   0  -4   0 30.3900 9.32000   1
   0  -4   0 27.7700 2.72000   1
  -4  -1   1 126.930 12.7700   1
  -4  -1   1 135.910 13.7100   1
   2   4   4 15.3700 3.62000   1
   2   4   4 15.6300 5.06000   1
  -2  -4  -4 12.4400 2.52000   1
   2   4   4 16.8900 4.87000   1
   4   1   1 19.9500 4.47000   1
  -4  -1  -1 15.9100 3.77000   1
  -2   3   1 314.490 26.8400   1
   2  -3  -1 376.930 33.5400   1
   2  -3  -1 379.660 31.3900   1
   2  -3  -1 341.030 45.1700   1
   2  -3  -1 324.490 26.4200   1
  -2   1  -6 12.7100 2.30000   1
  -2   1  -6 14.1600 2.70000   1
  -2   3   3 267.900 23.8100   1
   2  -3  -3 228.510 19.8700   1
   2  -3  -3 298.530 24.1400   1
   2  -3  -3 225.830 31.8600   1
   2  -2   4 465.980 37.8000   1
  -2   2  -4 456.570 38.8800   1
   2  -2   4 480.180 64.9000   1
  -2   2  -4 495.000 43.2200   1
  -2   2  -4 563.170 47.9500   1
  -2   2  -4 394.550 33.3600   1
   3   0  -6 434.760 42.5600   1
  -3   0   6 484.590 47.6900   1
   3   0  -6 498.310 46.2100   1
   3   0  -6 418.950 38.7900   1
  -3   0   6 499.500 46.3800   1
  -3  -2  -6 11.5300 2.63000   1
   3   2   6 10.9000 2.95000   1
  -3  -2  -6 10.6900 2.90000   1
   3   2   6 14.9000 3.83000   1
   0  -1  -9 23.3200 2.60000   1
   0   1   9 23.7900 3.40000   1
   0   1   9 20.1400 2.43000   1
   0  -1  -9 26.2600 3.14000   1
   0  -1  -9 29.6400 4.24000   1
  -3  -1  -6 111.750 10.3700   1
   3   1   6 108.060 10.0500   1
  -3  -1  -6 113.130 10.8200   1
   3   1   6 107.210 9.81000   1
   3   3   5 -1.0100 2.56000   1
   3   3   5 0.77000 2.15000   1
  -3  -3  -5 0.52000 1.64000   1
   2   3   7 19.9300 4.82000   1
   2   3   7 22.1500 3.50000   1
   2   3   7 18.9500 2.90000   1
  -2  -3  -7 12.8100 3.12000   1
  -2  -3  -7 15.7700 2.74000   1
   0  -1   8 153.590 20.1100   1
   0   1  -8 148.300 14.3400   1
   0   1  -8 148.040 11.9800   1
   0   1  -8 143.660 14.0200   1
   0   1  -8 151.100 13.1300   1
   1   1  -8 107.190 10.5600   1
   1   1  -8 102.480 10.9900   1
   1   1  -8 105.230 8.72000   1
   1   1  -8 93.0500 13.9300   1
  -1  -1   8 89.6400 9.82000   1
  -1  -1   8 88.7000 8.39000   1
   4   2   0 0.20000 1.95000   1
  -4  -2   0 0.24000 1.70000   1
  -4  -2  -1 185.040 17.9100   1
  -3   2   1 38.2300 3.77000   1
   3  -2  -1 38.8100 4.46000   1
   3  -2  -1 36.9100 3.53000   1
   3  -2  -2 126.000 10.2200   1
   3  -2  -2 103.830 7.83000   1
  -3   2   2 105.530 9.21000   1
   3  -2  -2 137.660 11.1100   1
   3  -2  -2 119.670 11.1700   1
  -4  -1   2 83.9800 8.97000   1
  -4  -1   2 93.5200 10.3500   1
  -4  -1   2 95.3100 9.28000   1
   4   1  -2 90.4100 9.97000   1
   2  -3   0 29.7500 3.65000   1
   2  -3   0 28.3100 11.2100   1
  -2   3   0 17.8100 2.86000   1
  -2  -4   1 18.2000 3.11000   1
  -2  -4   1 17.7900 3.27000   1
   2   4  -1 17.4400 5.81000   1
   2   4  -1 16.8900 3.30000   1
  -2  -4   1 12.7500 5.06000   1
   4   1   2 13.2400 3.20000   1
   4   1   2 8.62000 3.51000   1
  -4  -1  -2 7.94000 3.22000   1
  -1  -3   5 117.800 16.8500   1
   1   3  -5 155.600 19.1300   1
   1   3  -5 128.240 13.3100   1
   1   3  -5 143.400 13.8900   1
  -1  -3   5 137.630 12.3500   1
   1   3  -5 138.740 12.3100   1
  -1  -3   5 121.710 11.0300   1
   0   4   5 1530.23 179.920   1
   0   4   5 1691.86 171.160   1
   0  -4  -5 1524.20 161.550   1
   0   4   5 1792.22 181.920   1
   3   3  -3 7.48000 3.79000   1
   3   3  -3 14.1900 4.30000   1
  -3  -3   3 7.97000 2.23000   1
  -3  -3   3 6.77000 2.72000   1
  -3  -3   3 7.94000 3.06000   1
   3   1  -6 5.49000 4.51000   1
   3   1  -6 3.46000 2.74000   1
   3   1  -6 3.84000 2.86000   1
  -3  -1   6 5.21000 2.71000   1
  -3  -1   6 4.57000 2.21000   1
   3   1  -6 4.49000 2.24000   1
  -3  -2   5 51.4800 5.94000   1
  -3  -2   5 51.0000 7.19000   1
   3   2  -5 47.9100 6.78000   1
  -3  -2   5 53.6400 6.49000   1
   3   2  -5 43.3000 7.20000   1
   3   2  -5 45.7800 6.31000   1
   2  -3  -4 1.60000 4.50000   1
   2  -3  -4 0.39000 1.11000   1
  -2   3   4 -0.4500 1.35000   1
   2  -3  -4 0.18000 0.57000   1
  -1   2  -6 2.16000 1.72000   1
  -1   2  -6 1.49000 0.70000   1
  -1   2  -6 1.92000 2.19000   1
  -1   2  -6 1.62000 0.56000   1
  -1   2  -6 0.64000 1.31000   1
   1  -2   6 4.01000 9.57000   1
  -4  -2   1 29.9600 4.45000   1
  -4  -2   1 31.1500 4.65000   1
   4   2  -1 32.5000 6.10000   1
  -4  -2  -2 65.2900 7.40000   1
   4   2   2 71.5000 8.50000   1
   4   2   2 69.9700 8.65000   1
  -2  -1  -8 9.44000 2.33000   1
   2   1   8 11.8400 1.97000   1
   2   1   8 10.1800 2.39000   1
  -2  -1  -8 13.3700 2.57000   1
  -3   2   0 4.40000 1.17000   1
  -3   2   0 2.18000 0.65000   1
   3  -2   0 3.19000 0.79000   1
   3  -2   0 6.13000 1.10000   1
  -2   0   8 33.4200 4.36000   1
  -2   0   8 31.2600 3.88000   1
   2   0  -8 32.2300 4.48000   1
   2   0  -8 29.5500 5.28000   1
   2   0  -8 32.0000 3.43000   1
   2   0  -8 28.8400 4.38000   1
  -4   0   1 21.1100 4.54000   1
  -4   0   1 24.9700 3.99000   1
   4   0  -1 28.8300 5.39000   1
   3  -2  -3 77.6800 6.40000   1
   3  -2  -3 70.7800 8.22000   1
   3  -2  -3 72.8500 6.70000   1
   0  -4   1 14.3900 1.85000   1
   0  -4   1 16.2600 2.31000   1
   0   4  -1 15.6200 12.1700   1
   0  -4   1 16.5800 2.73000   1
   0  -4   1 17.8100 7.71000   1
  -2  -2  -8 222.950 19.4300   1
  -2  -2  -8 247.080 21.5100   1
   2   2   8 256.430 21.7200   1
   2   2   8 231.460 21.4100   1
   2  -2  -7 841.600 82.8800   1
   2  -2  -7 892.570 82.3400   1
   2  -2  -7 924.370 95.0200   1
   2  -2  -7 874.440 81.2600   1
   4   0   0 47.5100 5.86000   1
   4   0   0 33.6900 4.94000   1
  -4   0   0 33.2500 4.74000   1
  -4   0   0 29.8900 5.34000   1
  -1  -2   7 77.0400 7.40000   1
   1   2  -7 73.4500 9.29000   1
  -1  -2   7 77.0100 11.5100   1
   1   2  -7 79.2500 9.09000   1
   1   2  -7 71.7200 8.21000   1
   1   2  -7 85.8400 14.0900   1
  -1  -2   7 77.2200 7.32000   1
  -1   3   7 36.3800 5.28000   1
   1  -3  -7 34.3900 4.83000   1
   1  -3  -7 35.2200 4.00000   1
   1  -3  -7 30.2600 3.19000   1
   1   3   8 11.6800 2.98000   1
   1   3   8 13.3100 3.38000   1
  -1  -3  -8 14.8400 2.80000   1
  -1  -3  -8 11.2200 2.46000   1
   1   3   8 11.8800 2.53000   1
  -2  -4  -5 165.180 14.7800   1
   2   4   5 183.420 18.3400   1
   2   4   5 163.310 16.9900   1
  -1  -4   2 11.0900 2.55000   1
  -1  -4   2 9.16000 1.94000   1
  -1  -4   2 8.27000 2.38000   1
  -1  -4   2 7.84000 5.70000   1
   1   4  -2 6.95000 5.84000   1
   1   4  -2 6.70000 1.90000   1
   0  -2  -9 0.29000 0.73000   1
   0   2   9 -0.5800 1.52000   1
   0   2   9 0.05000 1.08000   1
   0  -2  -9 -0.1400 1.08000   1
   0   3   8 65.9000 10.0600   1
   0   3   8 78.4900 8.12000   1
   0   3   8 86.8000 8.40000   1
   0  -3  -8 84.4200 8.15000   1
  -3   1  -4 31.5000 4.01000   1
   3  -1   4 30.9600 3.68000   1
   3  -1   4 30.2000 3.57000   1
  -3   1  -4 34.9400 4.44000   1
   0   0  -9 24.8400 5.23000   1
   0   0  -9 24.1900 4.10000   1
   0   0  -9 25.9500 3.20000   1
   0   0  -9 21.6200 2.61000   1
   0   0   9 27.1100 5.80000   1
  -1  -1  -9 0.55000 1.21000   1
  -1  -1  -9 1.27000 1.15000   1
  -1  -1  -9 0.47000 0.98000   1
   1   1   9 0.59000 1.21000   1
   1   1   9 0.33000 2.33000   1
   2  -1  -8 27.2200 4.73000   1
   2  -1  -8 36.3900 3.83000   1
   2  -1  -8 29.7300 3.05000   1
   2  -1  -8 27.4700 3.20000   1
   2  -1  -8 32.7200 4.40000   1
   1  -1  -9 151.770 14.9000   1
   1  -1  -9 140.520 11.6000   1
   1  -1  -9 142.660 12.7500   1
   1  -1  -9 140.370 12.1100   1
   1   4   6 134.360 12.7600   1
  -1  -4  -6 137.000 12.9600   1
   1   4   6 149.960 14.3500   1
   1   4   6 146.210 16.3000   1
  -4   0   2 52.7700 6.06000   1
  -4   0   2 66.9900 8.59000   1
   4   0  -2 60.0700 7.94000   1
  -4   0   2 65.7900 6.99000   1
   4   0   1 0.13000 1.68000   1
   4   0   1 0.28000 1.42000   1
  -4   0  -1 0.08000 1.19000   1
  -4   0  -1 -0.5000 1.69000   1
   0  -2   7 40.6400 10.4100   1
   0   2  -7 53.4000 6.48000   1
   0   2  -7 63.7900 14.2800   1
   0   2  -7 48.9500 6.66000   1
   0   2  -7 56.3000 6.03000   1
   3  -1  -6 42.6200 4.53000   1
  -3   1   6 43.3600 5.94000   1
   3  -1  -6 44.0300 6.82000   1
   3  -1  -6 48.9500 6.63000   1
  -3   1   6 52.0500 4.90000   1
   3  -1  -6 44.1100 4.75000   1
  -2   3  -1 61.1800 4.74000   1
  -2   3  -1 47.0800 4.09000   1
   2  -3   1 45.9000 4.50000   1
   2  -3   1 61.1700 17.6400   1
   0   3  -5 24.0300 4.20000   1
   0  -3   5 19.3400 2.66000   1
   0  -3   5 19.2800 9.78000   1
   0  -3   5 17.3200 2.42000   1
   0   3  -5 19.6300 4.16000   1
   0   3  -5 28.9700 11.4400   1
   4   1  -3 0.30000 1.94000   1
  -4  -1   3 -0.3200 1.99000   1
  -4  -1   3 -0.1500 1.35000   1
  -4  -1   3 -0.1700 1.46000   1
  -4  -1  -3 139.870 14.3100   1
   4   1   3 141.770 13.7900   1
   4   1   3 156.280 15.9700   1
  -1  -2  -9 1505.09 149.170   1
   1   2   9 1322.70 131.090   1
   1   2   9 1443.76 142.400   1
  -1  -2  -9 1297.04 129.160   1
  -1  -2  -9 1460.71 147.160   1
   4   2  -2 25.3200 5.26000   1
  -4  -2   2 23.5500 3.80000   1
  -4  -2   2 19.1300 3.92000   1
  -4  -2   2 20.3200 4.06000   1
  -4  -2  -3 46.4500 5.98000   1
   4   2   3 45.2800 7.05000   1
  -3   2  -1 65.0600 5.24000   1
   3  -2   1 96.6300 7.14000   1
  -3   2  -1 70.0000 5.69000   1
   3  -2   1 99.1900 8.51000   1
   1   0  -9 10.1800 2.62000   1
   1   0  -9 8.88000 1.60000   1
   1   0  -9 8.39000 2.40000   1
   1   0  -9 15.0000 4.29000   1
   3  -2  -4 88.1000 8.04000   1
   3  -2  -4 96.7700 8.89000   1
   3  -2  -4 118.590 12.6600   1
  -2  -3   5 120.200 10.8200   1
  -2  -3   5 123.710 11.8000   1
  -2  -3   5 123.220 14.8800   1
  -2  -3   5 122.120 11.8200   1
   2   3  -5 119.870 14.8200   1
   2   3  -5 119.710 12.0300   1
   2  -3  -5 0.55000 0.83000   1
   2  -3  -5 0.26000 0.67000   1
   2  -3  -5 0.18000 1.48000   1
   2  -3  -5 -0.3400 5.05000   1
  -2   3   5 -0.4100 1.57000   1
   2  -3  -5 0.25000 0.60000   1
  -1   3  -4 27.0200 3.10000   1
  -1   3  -4 39.7700 5.05000   1
   1  -3   4 39.4900 15.6200   1
   2   4  -2 24.1800 3.81000   1
  -2  -4   2 20.2100 3.12000   1
  -2  -4   2 22.2400 3.92000   1
  -2  -4   2 20.5000 3.31000   1
   2   4  -2 34.4400 7.07000   1
  -2  -4   2 25.7400 7.12000   1
   3   4   2 45.6600 6.18000   1
   3   4   2 47.8500 7.03000   1
  -3  -3  -6 339.890 30.4200   1
   3   3   6 311.160 28.9600   1
   3   4   1 18.9000 4.68000   1
   3   4   1 16.8500 4.98000   1
  -3  -4  -1 12.2900 3.35000   1
  -1   4   2 48.1900 4.98000   1
   1  -4  -2 44.1400 9.14000   1
   1  -4  -2 29.1600 3.04000   1
  -1   4   2 42.0400 3.77000   1
  -4   0   3 144.850 14.8800   1
   4   0  -3 133.350 13.9000   1
  -4   0   3 113.190 11.6300   1
  -4   0   3 142.630 13.2300   1
   0   4   6 291.610 26.1000   1
   0   4   6 270.800 32.6700   1
   0  -4  -6 279.130 27.1800   1
   0   4   6 298.690 27.4600   1
  -1   4   3 6.61000 1.52000   1
   1  -4  -3 4.85000 6.91000   1
  -1   4   3 9.40000 2.57000   1
  -3   0  -6 51.1400 5.55000   1
   3   0   6 47.7100 5.59000   1
   3   0   6 45.4000 4.94000   1
   3   0   6 42.1400 3.40000   1
  -3   0  -6 47.9600 5.26000   1
  -4   0  -2 74.5300 7.78000   1
   4   0   2 80.2100 8.74000   1
   4   0   2 89.8100 8.62000   1
   3   4   3 103.680 10.6100   1
   3   4   3 100.920 10.4700   1
  -3  -4  -3 99.2200 10.2600   1
   1  -4  -1 0.31000 0.79000   1
   1  -4  -1 2.88000 4.48000   1
  -1   4   1 0.34000 1.40000   1
  -1   1  -8 69.1800 7.52000   1
  -1   1  -8 77.4200 6.43000   1
  -1   1  -8 71.1300 8.11000   1
   1  -1   8 72.7700 18.5300   1
  -1   1  -8 68.0000 5.39000   1
  -1   1  -8 74.8900 6.70000   1
   0  -4   2 1631.99 168.670   1
   0  -4   2 1539.95 154.380   1
   0  -4   2 1502.96 151.970   1
   0   4  -2 2004.45 229.440   1
   2   1  -8 13.8100 3.99000   1
  -2  -1   8 17.8700 3.32000   1
  -2  -1   8 14.1600 2.46000   1
   2   1  -8 15.7000 4.28000   1
   2   1  -8 16.7400 3.98000   1
   2   1  -8 15.7300 5.11000   1
   2  -2   5 41.1100 18.5500   1
  -2   2  -5 30.9600 3.39000   1
  -2   2  -5 34.3100 3.22000   1
  -2   2  -5 45.1500 4.49000   1
  -2   2  -5 38.9200 4.63000   1
  -2  -4  -6 38.7200 4.65000   1
   2   4   6 40.2600 6.28000   1
   2   4   6 40.6200 6.15000   1
   2   4   6 38.8000 5.24000   1
  -3  -4   0 876.630 87.6800   1
   3   4   0 926.450 89.3700   1
   3   4   0 867.520 88.2600   1
   2   2  -7 80.2900 8.86000   1
   2   2  -7 78.3200 8.26000   1
   2   2  -7 76.4800 8.97000   1
   2   2  -7 80.1100 10.3900   1
  -2  -2   7 69.8800 6.91000   1
  -2  -2   7 89.8600 8.39000   1
  -2  -2   7 79.1500 9.39000   1
  -3  -2  -7 91.7100 8.77000   1
   3   2   7 107.590 10.4900   1
   3   2   7 109.990 10.5900   1
   3   2   7 100.410 9.02000   1
  -3  -2  -7 111.210 10.1600   1
   3   0  -7 163.540 18.2600   1
  -3   0   7 176.880 16.2600   1
   3   0  -7 155.410 15.1000   1
  -3   0   7 164.270 16.6200   1
   3   3  -4 19.9800 5.23000   1
  -3  -3   4 16.6300 2.97000   1
  -3  -3   4 19.5900 3.44000   1
  -3  -3   4 18.9800 3.36000   1
   3   3  -4 29.5400 5.83000   1
   1  -4  -4 230.610 27.5000   1
  -1   4   4 235.500 20.7200   1
   2   0   8 17.7100 2.15000   1
   2   0   8 18.3000 3.43000   1
  -2   0  -8 18.1200 2.73000   1
  -2   0  -8 16.4800 2.60000   1
  -1   0  -9 100.820 9.87000   1
  -1   0  -9 99.9400 8.18000   1
  -1   0  -9 112.750 9.59000   1
   1   0   9 95.8000 18.0700   1
  -1   0  -9 101.380 9.42000   1
  -1   2   9 32.3800 3.89000   1
   1  -2  -9 35.0300 3.77000   1
   1  -2  -9 38.5100 5.62000   1
   1  -2  -9 32.9000 3.78000   1
   4   3   1 -0.8200 2.13000   1
  -4  -3  -1 0.12000 1.74000   1
   3   1   7 -0.2500 1.34000   1
   3   1   7 -0.6600 1.49000   1
   3   1   7 -0.1700 0.77000   1
  -3  -1  -7 0.38000 1.27000   1
  -3  -1  -7 0.06000 1.16000   1
   4   2  -3 188.500 19.4200   1
  -4  -2   3 212.990 20.9800   1
  -4  -2   3 221.080 21.1300   1
  -4  -2   3 212.740 19.6500   1
   2  -3   2 89.2400 21.0900   1
  -2   3  -2 81.1400 7.72000   1
  -2   3  -2 94.3900 7.61000   1
   2  -3   2 93.0700 7.28000   1
  -3   2  -2 51.0300 4.64000   1
   3  -2   2 47.5400 4.61000   1
   3  -2   2 42.8900 3.23000   1
  -3   2  -2 35.6400 3.73000   1
   4   2   4 40.9300 6.24000   1
   4   2   4 40.3400 6.15000   1
  -4  -2  -4 36.8400 5.09000   1
   2   3   8 18.5500 3.74000   1
   2   3   8 19.0700 2.74000   1
  -2  -3  -8 17.6800 2.86000   1
  -2  -3  -8 21.7100 3.27000   1
   2   3   8 23.2200 3.48000   1
  -4  -1   4 110.910 10.8200   1
   4   1  -4 108.230 12.3800   1
  -4  -1   4 116.050 13.2300   1
  -4  -1   4 112.830 11.6100   1
  -1  -4   3 363.710 40.7000   1
  -1  -4   3 418.840 38.2500   1
   1   4  -3 428.870 47.7800   1
   1   4  -3 345.980 29.2300   1
  -1  -4   3 378.480 33.6600   1
  -1  -4   3 380.430 33.0900   1
   4   3   2 192.120 18.9900   1
   3  -2  -5 2.33000 1.91000   1
   3  -2  -5 1.75000 3.22000   1
   3  -2  -5 1.56000 1.03000   1
  -4  -3   0 56.0800 6.68000   1
   4   3   0 56.8700 8.12000   1
   4   3   0 64.4200 7.26000   1
   4   1   4 59.8900 7.53000   1
   4   1   4 58.5900 6.81000   1
  -4  -1  -4 58.2500 6.73000   1
  -2   1  -7 37.6300 3.74000   1
  -2   1  -7 37.7300 4.83000   1
  -2   1  -7 36.6800 4.21000   1
   2  -1   7 35.9300 14.7300   1
   1  -4   0 86.0400 7.14000   1
   1  -4   0 83.4300 6.54000   1
   1  -4   0 81.9400 15.9200   1
   1  -4   0 64.7200 5.15000   1
  -1   4   0 101.880 8.72000   1
   3   4   4 0.55000 2.93000   1
   3   4   4 2.38000 2.14000   1
  -3  -4  -4 1.84000 1.82000   1
   3   4   4 2.08000 2.95000   1
   1   4   7 36.5800 7.22000   1
  -1  -4  -7 36.2100 3.93000   1
   3   2  -6 3.63000 2.46000   1
   3   2  -6 2.92000 3.64000   1
   3   2  -6 5.99000 3.15000   1
  -3  -2   6 3.19000 2.02000   1
  -3  -2   6 4.58000 2.18000   1
   3   2  -6 4.83000 3.31000   1
  -4   0   4 197.180 20.4500   1
  -4   0   4 234.320 21.0900   1
   4   0  -4 183.540 16.6600   1
   4   0  -4 224.280 21.7300   1
   1  -3  -8 161.280 14.0800   1
  -1   3   8 160.630 14.9900   1
   1  -3  -8 128.400 10.9800   1
   1  -3  -8 135.940 11.8300   1
   2  -3  -6 26.0700 4.79000   1
   2  -3  -6 35.2100 3.42000   1
  -2   3   6 27.8300 4.38000   1
   2  -3  -6 25.2500 2.78000   1
   2  -3  -6 20.9800 8.82000   1
   2  -3  -6 28.1100 2.89000   1
   3  -1   5 31.7700 3.47000   1
   3  -1   5 35.7600 4.10000   1
  -3   1  -5 36.3300 4.11000   1
  -3   1  -5 36.6800 4.13000   1
  -3  -4   1 306.870 28.5800   1
   3   4  -1 309.300 28.9400   1
   3   4  -1 353.270 33.9400   1
  -3  -4   1 271.800 26.5000   1
  -1  -3   6 100.920 14.4300   1
   1   3  -6 100.300 9.18000   1
   1   3  -6 105.480 11.2100   1
   1   3  -6 101.500 14.1700   1
   1   3  -6 94.2500 10.4100   1
  -1  -3   6 105.310 9.40000   1
  -1  -3   6 91.4400 8.83000   1
  -3  -1   7 81.5400 8.08000   1
   3   1  -7 83.7600 8.72000   1
   3   1  -7 81.4800 8.89000   1
   3   1  -7 70.0200 9.02000   1
   3   1  -7 77.5000 9.07000   1
   4   0   3 107.980 10.6400   1
   4   0   3 97.1000 10.0100   1
  -4   0  -3 101.680 10.5500   1
   2  -2  -8 203.430 19.3700   1
   2  -2  -8 166.080 19.2800   1
   2  -2  -8 233.380 19.1700   1
   2  -2  -8 242.610 20.0300   1
  -4  -3  -3 111.010 11.5600   1
   4   3   3 135.720 13.6800   1
   4   3   3 140.080 14.0000   1
   4   3  -1 195.520 18.7700   1
  -4  -3   1 152.850 14.6600   1
  -4  -3   1 171.690 16.7400   1
   4   3  -1 176.960 18.2000   1
  -1   4   5 118.760 11.1700   1
  -1   4   5 100.970 8.41000   1
   1  -4  -5 99.9100 12.0700   1
   1  -4  -5 101.110 8.93000   1
  -2  -4   3 95.8400 13.8500   1
   2   4  -3 97.2800 9.40000   1
   2   4  -3 92.9700 12.4400   1
  -2  -4   3 104.120 10.0100   1
  -2  -4   3 100.830 9.93000   1
  -2  -4   3 98.2400 9.61000   1
  -3   1   7 1.88000 1.69000   1
   3  -1  -7 2.55000 2.75000   1
   3  -1  -7 2.56000 1.98000   1
   3  -1  -7 1.83000 3.15000   1
   3  -1  -7 3.61000 1.30000   1
  -3   1   7 1.20000 1.47000   1
   4  -1  -1 17.8800 2.96000   1
  -4   1   1 13.0400 2.19000   1
  -4   1   1 17.5800 3.05000   1
   4  -1  -1 14.6200 3.68000   1
   0  -1 -10 9.56000 2.08000   1
   0   1  10 8.42000 2.36000   1
   0  -1 -10 6.98000 1.49000   1
   0  -1 -10 9.60000 3.14000   1
   0  -1 -10 8.37000 2.68000   1
  -1  -3  -9 85.1700 8.42000   1
   1   3   9 95.9400 8.72000   1
  -1  -3  -9 90.3100 8.67000   1
   1   3   9 99.4200 9.41000   1
   1   3   9 90.1600 8.96000   1
   0  -4  -7 1.68000 2.08000   1
   0   4   7 -0.4800 5.30000   1
   0   4   7 0.44000 2.39000   1
   0   4   7 1.68000 1.78000   1
   0  -4  -7 1.42000 1.50000   1
  -1   2  -7 35.0800 3.82000   1
   1  -2   7 39.3200 13.5800   1
  -1   2  -7 27.6500 2.36000   1
  -1   2  -7 29.7400 4.94000   1
  -1   2  -7 30.1600 4.36000   1
  -1   2  -7 32.3500 2.45000   1
  -4   1   2 26.8800 3.25000   1
   4  -1  -2 45.6300 5.87000   1
  -4   1   2 42.5200 4.81000   1
   4  -1  -2 31.8400 3.26000   1
   0   3   9 42.3700 5.21000   1
   0   3   9 41.8900 5.40000   1
   0  -3  -9 36.6200 4.65000   1
   0  -3  -9 37.3600 3.82000   1
   1   1  -9 170.800 15.8700   1
   1   1  -9 164.210 13.6200   1
  -1  -1   9 149.620 14.8600   1
   1   1  -9 143.680 14.0100   1
   1   1  -9 148.980 18.8700   1
   4  -1   0 10.8700 3.00000   1
   4  -1   0 8.60000 2.05000   1
  -4   1   0 12.6800 3.57000   1
  -4   1   0 8.58000 2.25000   1
   0   1  -9 77.6600 8.98000   1
   0   1  -9 81.0300 7.66000   1
   0   1  -9 77.6700 6.65000   1
   0  -1   9 78.1700 11.6300   1
   0   1  -9 80.8000 9.01000   1
  -2  -2  -9 15.3500 2.81000   1
   2   2   9 17.0100 2.64000   1
   2   2   9 17.2500 3.84000   1
  -2  -2  -9 20.0000 3.19000   1
  -1   4  -1 214.610 17.7700   1
   1  -4   1 202.420 16.7600   1
   1  -4   1 208.490 27.8200   1
   1  -4   1 179.780 14.0600   1
   3   3   7 51.0500 6.97000   1
   3   3   7 50.6600 6.10000   1
   3   3   7 46.9700 5.36000   1
  -3  -3  -7 57.3600 6.22000   1
   3   4   5 354.300 33.2900   1
   3   4   5 361.340 35.1100   1
  -3  -4  -5 318.340 30.5900   1
   3   4   5 364.890 35.2100   1
  -2  -1  -9 6.30000 1.88000   1
  -2  -1  -9 4.03000 2.08000   1
   2   1   9 5.44000 1.45000   1
   2   1   9 5.21000 2.03000   1
   2   0  -9 -0.3000 1.87000   1
   2   0  -9 -0.1900 1.63000   1
   2   0  -9 -0.4200 1.51000   1
   2   0  -9 -0.1500 1.11000   1
   0   4  -3 74.4700 16.8100   1
   0  -4   3 51.0300 5.22000   1
   0  -4   3 53.1700 12.1400   1
   0  -4   3 55.6100 5.52000   1
   2  -1  -9 13.7000 3.25000   1
   2  -1  -9 12.8600 2.19000   1
   2  -1  -9 14.8300 2.59000   1
   2  -1  -9 16.4200 3.53000   1
   2  -1  -9 16.9000 2.78000   1
   0   3  -6 3.87000 2.56000   1
   0  -3   6 4.76000 1.51000   1
   0  -3   6 6.22000 6.89000   1
   0  -3   6 1.49000 1.28000   1
   0   3  -6 4.86000 2.51000   1
   0   3  -6 3.59000 0.77000   1
   0   3  -6 3.62000 6.41000   1
   1   2  -8 77.3400 8.88000   1
   1   2  -8 75.5800 8.62000   1
  -1  -2   8 71.7100 10.9000   1
  -1  -2   8 72.0600 6.97000   1
  -1  -2   8 73.2100 7.27000   1
   1   2  -8 84.2900 13.4500   1
   1   2  -8 75.6900 9.42000   1
  -1   3  -5 11.8100 3.45000   1
  -1   3  -5 14.1300 2.57000   1
  -1   3  -5 15.4500 2.60000   1
   1  -3   5 15.5700 12.0800   1
  -2  -4  -7 37.3700 4.27000   1
   2   4   7 41.4300 4.82000   1
   2   4   7 40.5400 5.85000   1
   2   4   7 43.2500 6.44000   1
  -4  -2   4 40.4100 6.19000   1
  -4  -2   4 36.4900 4.96000   1
   4   2  -4 39.2900 4.20000   1
  -4  -2   4 37.8300 5.11000   1
   4   2  -4 32.0300 7.23000   1
  -3   2  -3 4.89000 1.74000   1
  -3   2  -3 9.72000 1.79000   1
  -3   2  -3 5.39000 1.03000   1
   3  -2   3 9.47000 1.77000   1
   4   2   5 3.35000 2.47000   1
   4   2   5 1.46000 1.92000   1
  -4  -2  -5 1.32000 2.14000   1
  -2  -3   6 131.110 12.0100   1
  -2  -3   6 124.780 15.3100   1
   2   3  -6 133.780 13.3600   1
   2   3  -6 144.210 14.8100   1
   2   3  -6 135.620 14.1200   1
   2   3  -6 135.450 16.7800   1
  -2  -3   6 125.800 12.2400   1
   4  -1  -3 24.9200 2.64000   1
  -4   1   3 20.5400 2.81000   1
   4  -1  -3 20.6200 4.79000   1
  -4   1   3 20.4600 3.35000   1
   4   3   4 36.3500 5.15000   1
   4   3   4 32.5800 4.92000   1
  -4  -3  -4 26.7300 4.45000   1
   0  -2 -10 188.670 16.9300   1
   0   2  10 209.210 17.8200   1
   0  -2 -10 184.730 15.7200   1
  -2   3  -3 12.5100 2.60000   1
  -2   3  -3 11.7900 1.78000   1
   2  -3   3 8.52000 14.3400   1
   4   3  -2 0.22000 1.81000   1
   4   3  -2 2.08000 3.18000   1
  -4  -3   2 1.29000 1.90000   1
  -4  -3   2 1.08000 1.92000   1
  -4  -3   2 0.18000 2.02000   1
   3  -2  -6 110.480 9.44000   1
   3  -2  -6 112.590 12.2900   1
   3  -2  -6 123.860 10.6100   1
   3  -2  -6 127.090 10.4700   1
   3  -2  -6 115.930 11.3600   1
  -4   1  -1 24.8200 3.36000   1
   4  -1   1 30.4900 4.58000   1
   4  -1   1 32.0500 3.91000   1
  -4   1  -1 27.4200 4.82000   1
   3   4  -2 199.020 20.4200   1
  -3  -4   2 181.110 17.6100   1
  -3  -4   2 194.620 17.6500   1
   3   4  -2 188.850 18.0700   1
  -3  -4   2 174.530 17.0600   1
  -4  -1   5 1.59000 2.03000   1
   4   1  -5 0.55000 3.40000   1
  -4  -1   5 0.02000 1.71000   1
   4   1  -5 1.03000 1.96000   1
   1  -1 -10 11.0900 3.05000   1
   1  -1 -10 7.95000 2.00000   1
   1  -1 -10 8.40000 1.84000   1
   1  -1 -10 13.3800 3.81000   1
  -4  -1  -5 143.380 14.8000   1
   4   1   5 159.310 14.8300   1
   4   1   5 171.580 16.3900   1
  -4   0   5 11.1300 2.79000   1
   4   0  -5 13.5200 4.42000   1
  -4   0   5 10.1500 2.44000   1
   4   0  -5 11.4200 3.82000   1
   0   2  -8 18.1800 3.37000   1
   0   2  -8 15.5100 3.82000   1
   0  -2   8 13.2800 7.47000   1
   0   2  -8 12.8800 2.49000   1
   0   2  -8 13.8900 1.80000   1
   0   2  -8 15.5600 3.67000   1
  -1  -1 -10 14.7400 2.34000   1
  -1  -1 -10 16.7400 2.33000   1
   1   1  10 15.3700 2.55000   1
   1   1  10 13.0700 2.59000   1
   1   1  10 13.4100 8.00000   1
  -1  -1 -10 15.1500 2.12000   1
  -3  -3   5 82.2700 8.46000   1
  -3  -3   5 72.7700 7.34000   1
  -3  -3   5 86.8900 9.52000   1
   3   3  -5 76.3400 9.49000   1
   3   3  -5 81.6300 10.5400   1
  -1   4   6 12.5300 2.44000   1
  -1   4   6 14.9300 3.60000   1
   1  -4  -6 13.2200 1.90000   1
   1  -4  -6 19.3400 4.38000   1
   3   0   7 359.010 31.0400   1
   3   0   7 311.180 25.2600   1
  -3   0  -7 331.160 29.9700   1
   3   0   7 337.230 29.9700   1
  -3   0  -7 373.430 33.4500   1
   0   0 -10 77.4800 7.17000   1
   0   0  10 79.0900 9.62000   1
   0   0 -10 72.3500 6.28000   1
   0   0 -10 81.9300 9.87000   1
   0   0 -10 81.1000 7.88000   1
  -4   0  -4 -0.3200 1.63000   1
   4   0   4 0.17000 1.76000   1
   4   0   4 1.35000 1.68000   1
   1   2  10 35.3600 4.98000   1
   1   2  10 38.8200 4.21000   1
  -1  -2 -10 38.7900 4.67000   1
  -1  -2 -10 42.7500 4.81000   1
  -1  -2 -10 39.3300 4.08000   1
  -1  -4   4 9.80000 6.80000   1
   1   4  -4 7.62000 1.82000   1
   1   4  -4 10.3200 7.61000   1
  -1  -4   4 9.06000 2.22000   1
  -1  -4   4 12.8300 2.52000   1
  -1  -4   4 7.07000 2.00000   1
  -2   3   7 68.7400 7.38000   1
   2  -3  -7 61.8900 7.67000   1
   2  -3  -7 79.6700 6.82000   1
   2  -3  -7 53.6600 5.44000   1
   2  -3  -7 64.9700 6.09000   1
   2  -3  -7 58.8700 9.59000   1
  -2   2  -6 44.0100 3.81000   1
  -2   2  -6 42.9400 4.70000   1
  -2   2  -6 48.8800 5.34000   1
   2  -2   6 43.0300 15.5100   1
  -2   2  -6 45.7000 5.73000   1
   3   2   8 141.040 11.9800   1
  -3  -2  -8 124.370 11.4300   1
  -3  -2  -8 114.350 11.7400   1
   3   2   8 132.900 12.9800   1
  -1  -4  -8 41.2300 4.32000   1
  -1  -4  -8 43.9800 5.49000   1
   1   4   8 52.1900 6.63000   1
   1   4   8 48.5600 7.43000   1
   1   4   8 48.6600 5.48000   1
   1   0 -10 130.760 11.3900   1
   1   0 -10 133.550 11.5300   1
   1   0 -10 121.680 13.0200   1
   1   0 -10 120.250 11.9300   1
   3   0  -8 12.5800 4.68000   1
  -3   0   8 15.4400 2.57000   1
  -3   0   8 13.0600 3.33000   1
   3   0  -8 10.0800 3.54000   1
   3   0  -8 11.8900 2.63000   1
   3   0  -8 9.18000 2.31000   1
   3   0  -8 12.4800 3.27000   1
  -1  -5  -2 40.2300 4.44000   1
  -1  -5  -2 47.7700 7.80000   1
   1   5   2 55.3000 10.9500   1
  -1  -5  -3 43.8600 4.74000   1
  -1  -5  -3 38.1800 7.37000   1
   1   5   3 52.1900 6.36000   1
   1   5   3 50.1000 10.8800   1
  -4   1   4 3.17000 1.44000   1
  -4   1   4 4.91000 2.19000   1
   4  -1  -4 4.11000 1.44000   1
   4  -1  -4 2.78000 2.80000   1
   4  -1  -4 3.70000 2.34000   1
   1  -4   2 30.5500 10.6500   1
  -1   4  -2 23.0600 3.02000   1
   1  -4   2 26.4400 2.88000   1
  -4   1  -2 18.5500 3.58000   1
   4  -1   2 16.2800 3.32000   1
   4  -1   2 14.8400 2.55000   1
  -4   1  -2 13.3100 2.57000   1
  -3  -4  -6 172.890 15.9600   1
   3   4   6 170.840 17.5100   1
   3   4   6 180.460 17.8300   1
   3   4   6 185.390 18.3800   1
   2   4  -4 3.48000 2.09000   1
  -2  -4   4 1.85000 1.84000   1
  -2  -4   4 2.70000 1.91000   1
  -2  -4   4 1.60000 1.96000   1
   2   4  -4 3.18000 4.57000   1
  -2  -4   4 3.99000 4.78000   1
   2   3   9 49.8200 5.44000   1
   2   3   9 48.3400 4.89000   1
   2   3   9 49.0700 5.97000   1
  -2  -3  -9 50.7800 5.41000   1
  -2  -3  -9 42.4500 4.74000   1
   3   1   8 6.62000 1.42000   1
  -3  -1  -8 6.98000 2.47000   1
  -3  -1  -8 6.41000 2.09000   1
   3   1   8 6.10000 1.97000   1
  -1  -5  -1 11.0400 2.06000   1
  -1  -5  -1 11.8600 2.96000   1
  -1  -5  -1 12.3500 4.81000   1
   1   5   1 14.0300 7.84000   1
   2   2  -8 107.230 12.5000   1
  -2  -2   8 128.050 12.0400   1
  -2  -2   8 96.6200 9.22000   1
  -2  -2   8 106.520 12.3900   1
   2   2  -8 105.580 14.1400   1
   2   2  -8 107.070 11.3800   1
   2   2  -8 117.190 12.1300   1
  -1  -5  -4 2.50000 3.07000   1
   1   5   4 3.47000 2.90000   1
   1   5   4 6.24000 6.27000   1
  -1  -5  -4 4.99000 1.74000   1
   2   5   2 9.10000 3.25000   1
   2   5   2 11.7400 4.48000   1
  -2  -5  -2 7.31000 2.11000   1
  -2  -5  -2 11.0000 4.48000   1
  -3   1  -6 176.240 15.6000   1
  -3   1  -6 178.490 15.5800   1
   3  -1   6 160.980 14.4500   1
   3  -1   6 161.560 13.4400   1
   2   1  -9 192.280 20.1600   1
  -2  -1   9 216.090 20.0400   1
   2   1  -9 235.870 22.0400   1
   2   1  -9 184.180 19.6400   1
  -2  -1   9 218.270 19.4400   1
   2   1  -9 211.420 20.9200   1
   2   1  -9 225.380 18.9800   1
   4   3   5 131.440 13.2200   1
  -4  -3  -5 126.430 12.2900   1
   4   3   5 133.860 13.5700   1
   2   5   3 -2.0300 3.63000   1
   2   5   3 1.30000 1.70000   1
  -2  -5  -3 0.54000 2.31000   1
  -2  -5  -3 0.58000 1.39000   1
  -4  -3   3 33.1100 4.79000   1
  -4  -3   3 34.4600 5.46000   1
   4   3  -3 32.7600 5.63000   1
  -4  -3   3 35.4400 4.74000   1
   4   3  -3 31.3600 5.41000   1
   0   4   8 20.5000 3.73000   1
   0  -4  -8 7.88000 3.01000   1
   0  -4  -8 16.4500 2.98000   1
   0  -4  -8 15.7300 2.24000   1
   0   4   8 18.4200 6.77000   1
   0   4   8 16.6100 3.34000   1
  -1   1  -9 57.3400 4.84000   1
  -1   1  -9 59.2600 7.43000   1
  -1   1  -9 62.4000 5.63000   1
  -1   1  -9 60.4400 7.47000   1
  -1   1  -9 58.0500 5.49000   1
   1  -1   9 55.7900 14.4500   1
   1  -3  -9 0.67000 0.81000   1
  -1   3   9 -0.2000 1.50000   1
   1  -3  -9 0.14000 0.75000   1
   1  -3  -9 0.81000 1.13000   1
   1  -2 -10 97.1400 8.74000   1
  -1   2  10 109.980 10.4600   1
   1  -2 -10 112.150 10.1500   1
   1  -2 -10 119.550 11.3400   1
   1  -2 -10 101.780 11.0800   1
  -3  -2   7 21.5400 3.52000   1
   3   2  -7 24.0900 5.54000   1
   3   2  -7 18.4100 3.70000   1
   3   2  -7 16.2500 4.75000   1
   3   2  -7 17.2100 4.82000   1
  -3  -2   7 20.7700 3.33000   1
   2   0   9 77.7900 8.57000   1
   2   0   9 79.6300 6.76000   1
  -2   0  -9 77.8000 8.11000   1
  -2   0  -9 76.6700 6.97000   1
  -2  -5  -1 114.950 14.1900   1
   2   5   1 119.330 13.9900   1
  -2  -5  -1 90.8200 9.09000   1
   2   5   1 100.990 10.0700   1
   2  -2  -9 88.6600 9.23000   1
   2  -2  -9 92.0700 8.02000   1
   2  -2  -9 79.3900 7.23000   1
   2  -2  -9 63.6700 7.01000   1
   2  -2  -9 84.8400 9.44000   1
   3  -1  -8 70.1500 7.80000   1
   3  -1  -8 74.3500 7.52000   1
   3  -1  -8 55.6800 8.56000   1
   3  -1  -8 88.0300 7.80000   1
  -3  -4   3 32.7800 4.53000   1
   3   4  -3 26.2300 5.53000   1
   3   4  -3 25.3600 4.80000   1
  -3  -4   3 25.5600 4.30000   1
  -3  -4   3 24.9500 4.09000   1
  -3  -4   3 30.2400 4.40000   1
  -2   1  -8 49.9500 5.71000   1
  -2   1  -8 43.9400 4.20000   1
  -2   1  -8 47.4000 5.22000   1
   2  -1   8 49.2700 16.5600   1
   3  -3  -2 88.4100 7.61000   1
   3  -3  -2 87.4200 8.94000   1
   3  -3  -2 86.8800 21.7100   1
  -3   2  -4 256.530 22.3300   1
  -3   2  -4 263.810 23.0800   1
   3  -2   4 256.910 20.8700   1
  -3   2  -4 285.090 24.2100   1
  -4  -2   5 70.2600 7.45000   1
  -4  -2   5 62.2900 8.19000   1
  -4  -2   5 60.9200 7.44000   1
   4   2  -5 59.9300 9.41000   1
   4   2  -5 61.0000 7.06000   1
   0  -4   4 57.0300 5.41000   1
   0  -4   4 56.6400 5.64000   1
   0  -4   4 54.0000 13.8200   1
   0   4  -4 60.3700 7.16000   1
   0   4  -4 42.5400 14.1800   1
   2   5   4 134.350 13.5400   1
   2   5   4 129.810 16.0200   1
  -2  -5  -4 117.020 12.3800   1
  -2  -5  -4 116.450 10.8600   1
   3   1  -8 79.1500 9.62000   1
  -3  -1   8 88.1300 9.41000   1
  -3  -1   8 88.6400 8.51000   1
   3   1  -8 85.1500 9.30000   1
   3   1  -8 81.9700 8.79000   1
   3   1  -8 68.8400 9.89000   1
   4   2   6 84.7900 9.49000   1
  -4  -2  -6 75.9800 8.12000   1
   4   2   6 95.9900 9.91000   1
   3  -3  -1 87.6200 8.44000   1
   3  -3  -1 92.7500 7.56000   1
   3  -3  -1 70.2800 18.7900   1
   1   0  10 8.80000 8.69000   1
  -1   0 -10 10.1700 2.10000   1
  -1   0 -10 9.55000 2.35000   1
  -1   0 -10 5.73000 3.20000   1
  -1   0 -10 9.23000 2.80000   1
  -1   0 -10 8.93000 1.57000   1
   3  -3  -3 0.32000 0.98000   1
   3  -3  -3 0.48000 0.79000   1
   3  -3  -3 -7.6200 7.61000   1
   3  -3  -3 -0.4800 1.77000   1
   1   3  -7 0.23000 2.01000   1
   1   3  -7 -0.5900 1.37000   1
  -1  -3   7 0.69000 2.93000   1
   1   3  -7 0.93000 2.19000   1
   1   3  -7 -0.8300 4.83000   1
  -1  -3   7 -0.2300 1.23000   1
  -1  -3   7 -0.4100 1.34000   1
   1  -4  -7 -0.8400 1.95000   1
  -1   4   7 1.21000 1.85000   1
   1  -4  -7 0.34000 0.81000   1
   1  -4  -7 0.34000 1.12000   1
  -1   4   7 0.91000 1.49000   1
   3  -2  -7 36.6000 4.82000   1
   3  -2  -7 34.3100 3.88000   1
   3  -2  -7 40.7900 4.13000   1
   3  -2  -7 41.1400 3.77000   1
   1   5   0 188.810 24.9800   1
  -1  -5   0 188.270 17.4000   1
  -1  -5   0 172.610 20.7300   1
  -1  -5   0 154.200 13.6500   1
   2   4   8 14.8800 3.86000   1
  -2  -4  -8 12.2100 2.41000   1
   2   4   8 13.9600 4.36000   1
   2   4   8 14.9200 3.29000   1
   1   5   5 1.34000 5.27000   1
   1   5   5 2.15000 2.31000   1
   1   5   5 0.23000 2.48000   1
  -1  -5  -5 1.88000 3.09000   1
  -1  -5  -5 1.90000 1.16000   1
   2  -3   4 44.1800 17.9600   1
  -2   3  -4 29.7300 4.23000   1
  -2   3  -4 28.4500 3.22000   1
   3   3   8 13.8700 2.87000   1
   3   3   8 17.0700 3.73000   1
  -3  -3  -8 11.9300 2.64000   1
  -3  -3  -8 13.5700 2.62000   1
   4   0  -6 158.910 15.8200   1
   4   0  -6 166.940 16.0500   1
  -4   0   6 166.750 17.2200   1
  -4   0   6 167.100 16.2300   1
   4  -1  -5 65.2500 7.99000   1
   4  -1  -5 70.5800 7.93000   1
  -4   1   5 67.1900 7.65000   1
   4  -1  -5 63.2800 6.29000   1
  -4   1   5 62.7000 6.80000   1
  -4  -1   6 97.2800 9.98000   1
   4   1  -6 98.6800 10.0100   1
   4   1  -6 82.1500 10.2300   1
  -4  -1   6 100.310 10.6000   1
  -4  -4  -2 0.64000 1.80000   1
   4   4   2 1.32000 1.82000   1
   4   4   2 -0.7200 2.25000   1
  -4  -4  -1 30.0800 4.39000   1
   4   4   1 39.1100 5.92000   1
   0  -5  -3 32.0300 3.58000   1
   0   5   3 40.2300 4.86000   1
   0   5   3 41.8100 13.9300   1
   0   5   3 39.8200 5.42000   1
   0  -5  -3 40.9900 8.02000   1
  -2  -5   0 53.5600 8.06000   1
   2   5   0 57.6400 10.9600   1
   2   5   0 64.0300 6.64000   1
  -2  -5   0 51.2300 5.58000   1
  -2  -5   0 65.1800 8.90000   1
   0   5   2 40.5900 5.19000   1
   0   5   2 45.7900 12.8300   1
   0  -5  -2 34.8500 3.63000   1
   0  -5  -2 41.0400 4.84000   1
   0  -5  -2 35.7000 7.09000   1
   4   1   6 27.3800 5.14000   1
  -4  -1  -6 24.3500 3.74000   1
  -4  -1  -6 22.0400 3.32000   1
   4   1   6 28.7700 4.03000   1
   2  -4  -2 0.80000 0.76000   1
  -2   4   2 1.28000 1.69000   1
   2  -4  -2 -0.0300 5.31000   1
   4   0   5 65.5700 7.43000   1
   4   0   5 61.5000 6.65000   1
  -4   0  -5 62.4500 6.90000   1
  -4   0  -5 60.9500 6.39000   1
  -1  -3 -10 7.29000 1.79000   1
  -1  -3 -10 4.33000 1.90000   1
   1   3  10 6.45000 1.92000   1
   1   3  10 2.28000 2.16000   1
   1   3  10 5.35000 2.35000   1
   4  -1   3 33.5700 4.08000   1
  -4   1  -3 31.8000 4.56000   1
   4  -1   3 32.4500 4.44000   1
   2  -4  -3 156.660 21.7400   1
  -2   4   3 128.260 13.8600   1
   2  -4  -3 145.210 12.6900   1
   2  -4  -3 121.840 10.7700   1
   0   3  10 121.460 11.2700   1
   0  -3 -10 104.700 9.40000   1
   0   3  10 140.390 14.0500   1
   0  -3 -10 99.3200 9.88000   1
   3  -3   0 8.73000 12.2200   1
   3  -3   0 3.43000 1.00000   1
   3  -3   0 5.88000 1.85000   1
   3  -3  -4 86.5400 7.34000   1
   3  -3  -4 49.0500 14.6200   1
   3  -3  -4 85.2600 9.23000   1
   3  -3  -4 91.3900 8.06000   1
  -1   3  -6 1.35000 2.64000   1
   1  -3   6 2.67000 6.61000   1
  -1   3  -6 2.65000 1.32000   1
  -1   3  -6 3.00000 1.76000   1
  -2  -5  -5 50.0900 5.55000   1
   2   5   5 64.2600 9.59000   1
   2   5   5 56.7900 8.20000   1
   2   5   5 53.6000 7.31000   1
   0   5   4 8.68000 9.40000   1
   0  -5  -4 9.98000 3.99000   1
   0   5   4 7.00000 2.38000   1
   0  -5  -4 8.66000 1.73000   1
   0   5   4 10.6600 3.27000   1
  -4  -4  -3 34.4700 4.92000   1
   4   4   3 39.0300 6.94000   1
   4   4   3 40.3400 6.10000   1
  -1   2  -8 3.43000 1.51000   1
  -1   2  -8 1.36000 2.28000   1
   1  -2   8 3.11000 8.62000   1
  -1   2  -8 0.83000 2.66000   1
  -1   2  -8 2.19000 0.96000   1
  -1   2  -8 3.05000 0.64000   1
  -4  -4   0 91.0300 9.38000   1
   4   4   0 101.560 11.8300   1
   4   4   0 100.420 10.8000   1
  -2   4   1 -0.2700 1.34000   1
   2  -4  -1 1.15000 1.59000   1
   2  -4  -1 2.78000 6.43000   1
   0  -5  -1 34.4900 7.86000   1
   0  -5  -1 21.8800 3.28000   1
   0  -5  -1 16.6300 2.21000   1
   0   5   1 34.8600 12.9600   1
   0   5   1 20.9400 3.75000   1
   2  -3  -8 0.41000 0.89000   1
   2  -3  -8 0.27000 0.99000   1
   2  -3  -8 0.49000 2.80000   1
  -2   3   8 1.01000 1.97000   1
   2  -3  -8 0.59000 1.13000   1
   2  -3  -8 1.52000 2.18000   1
  -1   4  -3 47.0500 5.58000   1
  -1   4  -3 37.2300 3.83000   1
   1  -4   3 33.3300 12.3800   1
   1  -4   3 37.0300 3.62000   1
   2   2  10 115.140 10.0200   1
  -2  -2 -10 98.0400 9.53000   1
  -2  -2 -10 131.410 12.0000   1
   2   2  10 106.630 10.6100   1
   3   3  -6 6.71000 4.10000   1
   3   3  -6 6.72000 3.92000   1
  -3  -3   6 10.0100 2.60000   1
  -3  -3   6 5.52000 2.06000   1
   2  -4  -4 15.1000 2.69000   1
   2  -4  -4 20.2700 7.52000   1
  -2   4   4 17.9900 3.68000   1
   2  -4  -4 17.3100 2.31000   1
   0  -3   7 127.010 11.5900   1
   0  -3   7 121.400 18.7500   1
   0   3  -7 148.430 14.1000   1
   0   3  -7 140.780 11.0100   1
   0   3  -7 151.150 24.8100   1
   0   3  -7 140.810 14.3500   1
  -2  -3   7 7.00000 2.10000   1
  -2  -3   7 12.4600 2.76000   1
   2   3  -7 9.35000 3.56000   1
   2   3  -7 9.94000 3.69000   1
   2   3  -7 11.7200 3.76000   1
   2   3  -7 19.8900 6.45000   1
  -2  -3   7 3.63000 4.88000   1
   3   4   7 13.7000 3.28000   1
  -3  -4  -7 9.69000 2.41000   1
   3   4   7 15.7100 3.30000   1
   3   4   7 10.6200 3.65000   1
   3   4   7 12.7500 2.95000   1
  -1  -4   5 0.59000 1.19000   1
   1   4  -5 0.21000 4.81000   1
   1   4  -5 -0.5600 2.42000   1
  -1  -4   5 -0.5900 4.16000   1
  -1  -4   5 -0.0800 1.12000   1
   1   4  -5 0.28000 0.98000   1
   4   3   6 51.4300 6.99000   1
   4   3   6 56.7300 7.43000   1
  -4  -3  -6 55.3600 6.42000   1
  -4  -3   4 28.9000 4.81000   1
  -4  -3   4 30.4500 5.55000   1
  -4  -3   4 26.1100 4.30000   1
   4   3  -4 26.5700 4.51000   1
   4   3  -4 29.9900 6.06000   1
   2  -1 -10 15.5700 2.37000   1
   2  -1 -10 15.2100 3.54000   1
   2  -1 -10 16.0800 2.48000   1
   2  -1 -10 15.2200 3.77000   1
  -1  -5   1 0.51000 1.08000   1
  -1  -5   1 0.11000 1.19000   1
  -1  -5   1 0.66000 1.47000   1
   1   5  -1 0.64000 5.74000   1
  -1  -5   1 -1.4100 3.95000   1
   0  -1 -11 128.640 11.1600   1
   0  -1 -11 134.670 11.8600   1
   0  -1 -11 142.590 13.6500   1
   0  -1 -11 138.900 14.9500   1
   2   1  10 29.2600 4.51000   1
   2   1  10 31.5300 3.80000   1
  -2  -1 -10 35.4300 4.18000   1
  -2  -1 -10 33.3600 4.36000   1
   2   0 -10 11.2900 3.40000   1
   2   0 -10 11.5200 2.46000   1
   2   0 -10 7.62000 3.74000   1
   2   0 -10 13.5500 4.15000   1
   1   5   6 17.9100 7.26000   1
   1   5   6 12.4800 3.85000   1
   1   5   6 18.6200 3.50000   1
  -1  -5  -6 13.3400 2.37000   1
  -1  -5  -6 9.26000 3.62000   1
  -1  -1  10 197.310 19.4400   1
   1   1 -10 204.220 18.0900   1
   1   1 -10 188.110 18.3100   1
   1   1 -10 235.820 22.0800   1
   1   1 -10 215.100 26.6900   1
   1   1 -10 222.270 19.3200   1
  -1  -4  -9 43.2700 5.28000   1
  -1  -4  -9 50.8000 5.06000   1
   1   4   9 58.2200 6.17000   1
   1   4   9 48.9000 7.23000   1
   1   4   9 53.0700 6.23000   1
   0   1 -10 244.000 22.7900   1
   0  -1  10 227.860 25.4900   1
   0   1 -10 232.790 20.3700   1
   0   1 -10 213.080 18.0700   1
   0   1 -10 227.130 21.5500   1
   0  -5  -5 191.570 20.5500   1
   0   5   5 190.860 18.0100   1
   0   5   5 196.210 17.5400   1
   0  -5  -5 154.910 14.3200   1
   0   5   5 150.030 25.8900   1
   3   0   8 366.570 33.3500   1
   3   0   8 351.520 28.8500   1
  -3   0  -8 378.610 33.7000   1
  -3   0  -8 353.640 33.3300   1
  -2  -5   1 12.5500 2.48000   1
   2   5  -1 19.9100 7.55000   1
  -2  -5   1 13.0200 2.93000   1
  -2  -5   1 17.2100 3.74000   1
  -2  -5   1 15.5600 5.89000   1
   2   5  -1 15.6700 3.15000   1
  -4  -4  -4 120.070 12.0500   1
   4   4   4 137.030 14.1100   1
   4   4   4 148.850 16.7000   1
   4   4   4 154.690 15.4900   1
  -1  -2   9 140.950 12.6800   1
   1   2  -9 159.970 16.1100   1
   1   2  -9 153.170 21.6000   1
   1   2  -9 152.100 15.6000   1
  -1  -2   9 125.810 15.7600   1
   1   2  -9 149.710 15.0400   1
   3  -3   1 131.790 11.3100   1
   3  -3   1 114.540 25.5200   1
   2  -4   0 30.3900 12.5400   1
  -2   4   0 15.6900 2.73000   1
   2  -4   0 21.9500 3.12000   1
   3  -3  -5 73.2000 15.3000   1
   3  -3  -5 78.7700 7.12000   1
   3  -3  -5 74.2700 7.40000   1
   3  -3  -5 78.6400 8.52000   1
  -4  -4   1 119.030 11.9300   1
  -4  -4   1 101.740 10.5800   1
  -4  -4   1 123.170 12.1500   1
   4   4  -1 116.930 12.6900   1
   4   4  -1 105.300 11.2400   1
  -5  -1   0 17.8700 4.00000   1
   5   1   0 17.6700 4.45000   1
  -5  -1   0 17.7800 4.84000   1
   2   4  -5 4.02000 2.30000   1
  -2  -4   5 8.01000 5.48000   1
  -2  -4   5 2.65000 2.05000   1
  -2  -4   5 1.79000 2.05000   1
  -2  -4   5 2.06000 1.93000   1
   2   4  -5 15.4100 4.93000   1
   0   5   0 10.5500 2.54000   1
   0   5   0 4.68000 10.9900   1
   0  -5   0 7.78000 1.43000   1
   0  -5   0 12.0600 6.80000   1
   0  -5   0 6.73000 2.14000   1
  -2   2  -7 180.360 15.9100   1
  -2   2  -7 164.580 14.6200   1
  -2   2  -7 172.530 16.1400   1
   2  -2   7 162.360 28.1300   1
  -2   2  -7 156.090 12.6000   1
  -5  -1   1 618.170 59.5300   1
   5   1  -1 534.290 54.0700   1
  -5  -1   1 623.720 61.9100   1
   0  -2 -11 2.11000 1.66000   1
   0   2  11 2.53000 1.84000   1
   0  -2 -11 4.63000 1.46000   1
  -5  -2   0 11.6700 3.51000   1
  -5  -2   0 15.6200 3.72000   1
   5   2   0 4.30000 4.13000   1
   3   5   2 33.5600 5.23000   1
   3   5   2 29.1800 5.61000   1
  -3  -5  -2 26.8500 3.97000   1
   3   4  -4 43.2700 6.50000   1
   3   4  -4 48.1300 7.26000   1
  -3  -4   4 48.2700 6.11000   1
  -3  -4   4 47.1700 5.53000   1
  -3  -4   4 51.8400 6.32000   1
  -5  -2  -1 44.3200 6.15000   1
   5   2   1 42.6900 7.29000   1
   2  -4  -5 155.650 13.7500   1
   2  -4  -5 151.020 20.0100   1
   2  -4  -5 164.030 14.0700   1
  -2   4   5 159.320 15.7800   1
   4  -2  -2 45.0300 5.67000   1
  -4   2   2 38.8600 4.39000   1
   4  -2  -2 39.2300 3.60000   1
   4  -2  -2 46.9800 4.72000   1
   3   2   9 0.22000 1.01000   1
  -3  -2  -9 1.64000 1.49000   1
   3   2   9 -0.3000 1.60000   1
  -3  -2  -9 0.22000 1.46000   1
   5   1   1 11.9600 3.70000   1
   5   1   1 8.53000 3.84000   1
  -5  -1  -1 12.4800 3.31000   1
  -5  -1  -1 8.42000 2.57000   1
  -3  -5  -3 67.0600 7.22000   1
   3   5   3 78.8200 9.15000   1
   3   5   3 78.5000 10.3800   1
   4  -2  -1 64.8800 5.44000   1
  -4   2   1 71.8700 6.54000   1
   4  -2  -1 72.5200 7.24000   1
   4  -2  -1 71.1800 7.17000   1
  -2  -5  -6 17.6800 2.97000   1
   2   5   6 18.8700 5.57000   1
   2   5   6 16.9400 4.10000   1
   2   5   6 15.8900 4.43000   1
   0  -4  -9 20.8200 2.55000   1
   0  -4  -9 21.5600 3.90000   1
   0   4   9 29.8400 4.33000   1
   0   4   9 23.7900 7.42000   1
   0   4   9 32.6900 4.25000   1
  -3  -5  -1 7.97000 2.49000   1
   3   5   1 11.1300 3.97000   1
   3   5   1 6.61000 3.59000   1
   4  -1  -6 10.6500 4.20000   1
   4  -1  -6 8.05000 3.23000   1
  -4   1   6 7.57000 2.75000   1
  -4   1   6 7.30000 1.86000   1
   4  -1  -6 8.36000 1.87000   1
   0  -2   9 105.660 16.6300   1
   0   2  -9 113.790 11.4300   1
   0   2  -9 116.950 11.4400   1
   0   2  -9 127.030 11.6800   1
   0   2  -9 106.800 11.0600   1
   0   2  -9 108.080 9.00000   1
  -3   0   9 23.3900 3.71000   1
   3   0  -9 21.1000 5.89000   1
   3   0  -9 20.5700 3.37000   1
   3   0  -9 25.6800 3.41000   1
   3   0  -9 29.5000 4.52000   1
   3   0  -9 23.9800 5.26000   1
  -3   0   9 26.3500 3.52000   1
  -5  -2   1 659.830 64.7700   1
  -1   4   8 35.3200 5.21000   1
   1  -4  -8 40.0900 4.71000   1
   1  -4  -8 33.2100 3.81000   1
   1  -4  -8 36.4700 4.79000   1
   1  -1 -11 6.72000 3.83000   1
   1  -1 -11 7.60000 2.70000   1
   1  -1 -11 5.05000 1.44000   1
   1  -1 -11 4.71000 1.48000   1
   3  -2   5 -0.1700 0.70000   1
  -3   2  -5 0.25000 1.40000   1
  -3   2  -5 -0.1900 1.10000   1
  -3   2  -5 -0.5500 1.05000   1
  -4   2   3 54.2000 6.22000   1
   4  -2  -3 64.2100 6.00000   1
   4  -2  -3 56.1100 7.39000   1
   4  -2  -3 65.7700 5.63000   1
  -4  -2   6 0.46000 1.66000   1
   4   2  -6 0.19000 2.82000   1
  -4  -2   6 1.18000 1.62000   1
   4   2  -6 -0.9800 1.94000   1
   4   2   7 -0.6300 1.98000   1
  -4  -2  -7 0.69000 1.40000   1
   4   2   7 1.84000 1.71000   1
   5   2   2 50.9800 7.93000   1
  -5  -2  -2 34.5100 5.70000   1
   5   2   2 46.6000 6.93000   1
  -5  -1   2 34.4400 5.09000   1
  -5  -1   2 44.2900 7.02000   1
   5   1  -2 39.1300 6.08000   1
  -5  -1   2 42.3000 6.12000   1
  -1  -2 -11 1.41000 1.77000   1
  -1  -2 -11 3.47000 1.16000   1
  -1  -2 -11 3.76000 1.83000   1
   1   2  11 0.94000 1.40000   1
   1   2  11 6.32000 3.25000   1
   1   1  11 40.7700 4.58000   1
  -1  -1 -11 38.2700 4.21000   1
  -1  -1 -11 45.6300 4.94000   1
  -1  -1 -11 39.7800 4.05000   1
   1   1  11 45.5300 11.1900   1
  -3   1  -7 12.5600 3.02000   1
  -3   1  -7 16.9500 2.92000   1
   3  -1   7 14.7000 3.83000   1
   4  -2   0 0.67000 1.29000   1
   4  -2   0 -0.2600 0.62000   1
  -4   2   0 0.69000 0.86000   1
   4  -2   0 -0.0800 0.65000   1
   4  -1   4 135.620 12.3000   1
   4  -1   4 127.190 11.5500   1
  -4   1  -4 136.190 13.0900   1
  -3  -5  -4 11.1100 2.52000   1
   3   5   4 17.0100 4.19000   1
   3   5   4 15.5300 4.23000   1
   3   5   4 15.4800 5.54000   1
   3  -2  -8 60.5600 5.73000   1
   3  -2  -8 68.4700 6.67000   1
   3  -2  -8 66.3500 5.86000   1
   3  -2  -8 63.6700 7.74000   1
   2   3  10 40.8600 6.34000   1
   2   3  10 47.1700 4.70000   1
  -2  -3 -10 47.4100 5.41000   1
   2   3  10 51.3700 5.47000   1
  -2  -3 -10 40.2000 5.09000   1
   0  -4   5 59.9700 5.69000   1
   0  -4   5 64.1400 6.12000   1
   0  -4   5 58.2400 11.9000   1
   0   4  -5 73.5800 8.34000   1
   0   4  -5 62.6400 15.1200   1
  -3  -1  -9 13.4900 2.55000   1
  -3  -1  -9 12.1400 2.72000   1
   3   1   9 11.6500 1.83000   1
   3   1   9 11.1500 3.26000   1
   5   1   2 0.57000 2.14000   1
   5   1   2 -1.5800 2.10000   1
  -5  -1  -2 -0.2400 1.99000   1
   1  -3 -10 2.93000 2.19000   1
   1  -3 -10 2.77000 1.51000   1
  -1   3  10 2.76000 2.00000   1
   1  -3 -10 2.14000 1.14000   1
   1  -3 -10 1.10000 1.76000   1
   0   0 -11 90.0200 8.29000   1
   0   0 -11 97.8800 11.5700   1
   0   0  11 98.6800 11.4000   1
   0   0 -11 84.3200 7.70000   1
   0   0 -11 93.6500 9.85000   1
  -4   0   7 0.32000 1.83000   1
  -4   0   7 0.87000 1.55000   1
   4   0  -7 2.49000 2.13000   1
   4   0  -7 1.16000 2.89000   1
   0   5   6 36.4300 12.2300   1
   0  -5  -6 34.0700 4.18000   1
   0  -5  -6 38.3800 6.65000   1
   0   5   6 39.7800 5.67000   1
   0   5   6 46.5800 6.13000   1
   2  -3   5 6.65000 10.4100   1
  -2   3  -5 7.82000 2.57000   1
  -2   3  -5 4.82000 1.73000   1
   2  -4   1 98.9900 8.19000   1
  -2   4  -1 89.0400 8.00000   1
   2  -4   1 96.2900 18.4500   1
  -2   4  -1 130.740 9.86000   1
   4   4   5 79.4700 8.74000   1
   4   4   5 79.1400 9.77000   1
  -4  -4  -5 75.0300 7.91000   1
   4   4   5 75.1000 9.04000   1
  -3  -5   0 0.86000 1.66000   1
   3   5   0 -0.4800 3.12000   1
  -3  -5   0 0.94000 1.52000   1
  -3  -5   0 1.48000 1.78000   1
   3   5   0 0.92000 2.38000   1
   3  -1  -9 0.91000 1.95000   1
   3  -1  -9 0.69000 2.16000   1
   3  -1  -9 2.65000 3.53000   1
   3  -1  -9 0.94000 1.41000   1
   3   2  -8 98.4400 10.7700   1
   3   2  -8 104.820 11.3300   1
   3   2  -8 92.1300 11.5300   1
   3   2  -8 99.8100 11.7900   1
  -3  -2   8 109.090 10.9800   1
  -3  -2   8 96.0300 9.38000   1
  -2  -4  -9 60.1200 6.48000   1
   2   4   9 68.1800 8.44000   1
  -2  -4  -9 63.7400 7.10000   1
   2   4   9 67.1800 7.81000   1
   2   4   9 68.4400 7.15000   1
   4   4  -2 -0.0400 2.00000   1
   4   4  -2 -0.7800 1.61000   1
  -4  -4   2 -0.1600 1.56000   1
  -4  -4   2 0.00000 1.16000   1
  -4  -4   2 0.50000 1.23000   1
   1   5  -2 -0.5000 5.40000   1
  -1  -5   2 1.63000 1.73000   1
  -1  -5   2 0.62000 3.94000   1
  -1  -5   2 0.11000 1.36000   1
  -1  -5   2 1.22000 1.21000   1
  -5  -2   2 131.930 13.4200   1
  -5  -2   2 139.490 14.3500   1
  -5  -2   2 122.160 13.7800   1
   5   2  -2 124.260 13.5500   1
  -4  -1   7 12.1000 2.83000   1
   4   1  -7 16.3400 3.37000   1
   4   1  -7 15.6700 3.88000   1
   4   1  -7 19.9500 6.14000   1
  -4  -1   7 18.2300 4.01000   1
  -4   0  -6 314.450 30.0500   1
  -4   0  -6 319.280 30.6500   1
   4   0   6 333.240 30.8200   1
   4   0   6 319.910 28.9600   1
  -3   3  -2 125.150 10.0500   1
  -3   3  -2 83.3600 7.40000   1
   3  -3   2 101.650 23.1600   1
   3  -3   2 123.780 9.87000   1
   1   5   7 0.19000 1.51000   1
   1   5   7 0.77000 1.72000   1
   1   5   7 -0.0600 3.17000   1
  -1  -5  -7 -0.1900 1.71000   1
  -1  -5  -7 -0.1600 0.72000   1
   0  -5   1 55.0300 5.64000   1
   0  -5   1 44.4600 4.69000   1
   0  -5   1 54.4800 10.1600   1
   0  -5   1 46.7800 4.18000   1
   0   5  -1 85.1700 17.7900   1
   0   5  -1 52.3500 5.74000   1
  -2  -2   9 669.660 65.1500   1
  -2  -2   9 780.790 77.6100   1
   2   2  -9 774.540 75.7800   1
   2   2  -9 714.330 77.3100   1
   2   2  -9 763.540 73.6500   1
   2   2  -9 717.610 70.9900   1
  -2  -2   9 868.450 85.9000   1
   2  -2 -10 21.0900 4.73000   1
   2  -2 -10 22.1200 3.53000   1
   2  -2 -10 19.2300 2.64000   1
   2  -2 -10 19.7200 2.62000   1
  -4   2   4 8.39000 2.23000   1
   4  -2  -4 10.9300 1.94000   1
   4  -2  -4 12.4900 2.75000   1
   4  -2  -4 12.4500 3.30000   1
   3  -3  -6 0.06000 0.55000   1
   3  -3  -6 0.03000 4.61000   1
   3  -3  -6 0.34000 0.78000   1
   3  -3  -6 -0.2000 1.24000   1
   3  -3  -6 0.00000 0.55000   1
   1   0 -11 632.740 60.0200   1
   1   0 -11 539.140 50.9800   1
   1   0 -11 574.410 53.5800   1
  -2  -5   2 102.080 10.6700   1
  -2  -5   2 99.6700 14.9800   1
  -2  -5   2 100.930 9.47000   1
   2   5  -2 127.340 17.8900   1
   2   5  -2 100.640 9.47000   1
  -2  -5   2 128.650 12.7900   1
   3   3   9 84.3300 8.12000   1
  -3  -3  -9 76.8900 7.57000   1
  -3  -3  -9 57.2700 6.52000   1
   3   3   9 62.7200 7.71000   1
   4   1   7 3.14000 2.42000   1
   4   1   7 5.22000 2.38000   1
  -4  -1  -7 1.16000 2.16000   1
  -4  -1  -7 4.98000 2.41000   1
   2  -4  -6 6.73000 2.16000   1
  -2   4   6 4.55000 2.83000   1
   2  -4  -6 4.03000 0.91000   1
   2  -4  -6 5.04000 4.97000   1
   2  -4  -6 4.14000 1.50000   1
   5   2   3 -0.4200 2.87000   1
   5   2   3 1.28000 2.08000   1
  -5  -2  -3 0.94000 1.89000   1
  -4   2  -1 3.57000 1.34000   1
   4  -2   1 7.16000 2.35000   1
   4  -2   1 4.31000 1.19000   1
   4  -2   1 6.85000 1.23000   1
   1  -4   4 39.6900 14.7700   1
  -1   4  -4 34.4600 5.18000   1
  -1   4  -4 33.4600 3.24000   1
  -1   2  11 6.80000 1.93000   1
   1  -2 -11 7.93000 1.98000   1
   1  -2 -11 7.02000 2.22000   1
   1  -2 -11 12.5200 3.79000   1
   1  -2 -11 5.86000 1.84000   1
   5   1  -3 17.6600 5.43000   1
  -5  -1   3 21.4100 5.68000   1
  -5  -1   3 28.6900 4.75000   1
  -5  -1   3 21.1000 3.93000   1
  -2  -1  10 104.310 9.98000   1
   2   1 -10 99.5500 11.1000   1
   2   1 -10 90.8100 10.7500   1
   2   1 -10 107.570 9.72000   1
   2   1 -10 110.140 11.5800   1
   2   1 -10 92.4300 12.2900   1
  -5   0   1 12.9800 4.47000   1
  -5   0   1 13.9900 3.12000   1
   5   0  -1 10.0200 3.41000   1
   3   1  -9 8.75000 3.33000   1
   3   1  -9 5.13000 3.62000   1
   3   1  -9 5.42000 3.00000   1
   3   1  -9 5.48000 3.21000   1
  -3  -1   9 7.74000 2.21000   1
  -3  -1   9 1.07000 2.38000   1
  -3  -5  -5 1.16000 1.55000   1
   3   5   5 -0.2600 2.71000   1
   3   5   5 0.85000 2.16000   1
   3   5   5 -0.0100 3.06000   1
   5   0   0 67.5500 8.28000   1
  -5   0   0 66.8600 7.81000   1
   5   0   0 89.1900 9.19000   1
  -5   0   0 64.9600 8.21000   1
   4   3   7 4.01000 2.58000   1
   4   3   7 7.20000 3.21000   1
  -4  -3  -7 3.62000 2.46000   1
   3   4   8 16.4300 4.35000   1
   3   4   8 11.8200 2.99000   1
  -3  -4  -8 5.53000 2.49000   1
   3   4   8 9.70000 2.94000   1
  -4  -3   5 2.34000 2.28000   1
  -4  -3   5 1.61000 2.05000   1
  -4  -3   5 0.99000 2.45000   1
   4   3  -5 -0.0700 2.16000   1
   4   3  -5 2.18000 3.35000   1
  -2   1  -9 11.3800 2.82000   1
  -2   1  -9 16.1000 2.26000   1
  -2   1  -9 18.3900 3.49000   1
  -2   1  -9 14.1400 3.66000   1
   2  -1   9 13.1100 12.6000   1
   2   0  10 1.59000 11.9100   1
  -2   0 -10 6.27000 2.23000   1
  -2   0 -10 9.80000 1.93000   1
  -1   1 -10 28.2200 3.41000   1
  -1   1 -10 29.6400 3.39000   1
   1  -1  10 26.9600 11.4900   1
  -1   1 -10 25.1800 5.27000   1
  -1   1 -10 25.9300 2.63000   1
  -1   1 -10 28.8300 5.47000   1
   2  -3  -9 0.17000 0.87000   1
   2  -3  -9 0.60000 1.96000   1
   2  -3  -9 -0.7800 1.21000   1
   2  -3  -9 0.67000 1.87000   1
  -2   3   9 0.44000 1.54000   1
   2  -3  -9 0.22000 0.77000   1
  -1  -3   8 497.540 47.1300   1
  -1  -3   8 467.450 44.0800   1
   1   3  -8 470.660 44.4700   1
   1   3  -8 487.200 46.9500   1
   1   3  -8 542.890 62.1400   1
   1   3  -8 457.550 41.5000   1
  -1  -3   8 442.350 46.1100   1
  -5   0   2 1.82000 2.00000   1
  -5   0   2 1.57000 2.92000   1
   5   0  -2 0.37000 2.30000   1
  -5   0   2 0.50000 1.62000   1
  -5  -3  -1 61.4400 7.42000   1
   5   3   1 66.3500 8.95000   1
   5   1   3 55.0700 6.86000   1
  -5  -1  -3 56.1100 6.87000   1
   5   1   3 66.2100 8.03000   1
  -2  -5  -7 0.31000 1.05000   1
   2   5   7 -0.1900 2.45000   1
   2   5   7 0.34000 1.77000   1
   2   5   7 0.07000 2.21000   1
  -5  -3   0 16.1700 3.55000   1
  -5  -3   0 15.7900 3.77000   1
   5   3   0 17.1900 4.93000   1
   3   5  -1 27.4000 7.32000   1
   3   5  -1 18.8300 4.27000   1
  -3  -5   1 17.8100 3.62000   1
  -3  -5   1 19.3100 3.41000   1
  -3  -5   1 22.3500 5.87000   1
  -5   0  -1 91.3900 10.4500   1
   5   0   1 79.0500 8.62000   1
   5   0   1 109.600 10.4800   1
  -5   0  -1 72.8200 8.41000   1
   1  -5  -3 16.4900 5.47000   1
  -1   5   3 7.16000 2.38000   1
  -1   5   3 3.78000 1.26000   1
   1  -5  -3 4.86000 0.99000   1
   1  -5  -3 3.94000 1.22000   1
   5   3   2 190.450 19.1700   1
  -5  -3  -2 172.120 17.5500   1
  -1   3  -7 237.930 18.4900   1
  -1   3  -7 265.760 25.3400   1
  -1   3  -7 264.060 23.0800   1
  -1   3  -7 258.120 23.0400   1
   1  -3   7 254.800 35.8100   1
  -1   5   2 7.90000 2.38000   1
  -1   5   2 5.28000 1.64000   1
   1  -5  -2 6.82000 1.27000   1
   1  -5  -2 15.7700 6.35000   1
   1  -5  -2 4.32000 1.37000   1
  -5  -2   3 248.900 24.7600   1
  -5  -2   3 199.200 18.9500   1
  -5  -2   3 218.200 21.2900   1
  -3  -3   7 177.480 17.3200   1
  -3  -3   7 158.520 15.2100   1
   3   3  -7 174.560 16.7200   1
   3   3  -7 178.470 18.0600   1
   3   3  -7 162.720 17.0000   1
   3   3  -7 168.200 18.9400   1
  -1  -4   6 51.5100 11.0300   1
   1   4  -6 52.7400 7.65000   1
   1   4  -6 64.2100 14.7800   1
   1   4  -6 45.2700 4.52000   1
  -1  -4   6 52.3600 5.66000   1
  -1  -4   6 49.1300 5.64000   1
   0   3  11 20.9300 4.68000   1
   0   3  11 35.8100 4.53000   1
   0  -3 -11 28.1100 3.43000   1
   0  -3 -11 26.6400 3.89000   1
   1   3  11 21.3600 3.90000   1
   1   3  11 15.7900 2.83000   1
  -1  -3 -11 23.6800 3.07000   1
  -1  -3 -11 16.5500 3.24000   1
   1   3  11 19.6300 3.56000   1
   4  -2  -5 137.950 12.5600   1
   4  -2  -5 127.240 13.9000   1
   4  -2  -5 127.610 12.1800   1
   1  -5  -4 36.8600 7.55000   1
  -1   5   4 23.9900 3.96000   1
  -1   5   4 16.7800 2.23000   1
   0   5   7 21.5700 4.89000   1
   0   5   7 32.2700 4.98000   1
   0   5   7 23.4000 11.1500   1
   0  -5  -7 30.6600 4.81000   1
   0  -5  -7 24.5100 3.34000   1
   4  -1  -7 42.2100 4.50000   1
   4  -1  -7 41.0600 5.94000   1
  -4   1   7 36.4300 5.79000   1
  -4   1   7 39.6300 4.37000   1
   4  -1  -7 32.7600 7.04000   1
   1   0  11 24.2500 9.54000   1
  -1   0 -11 15.7400 2.26000   1
  -1   0 -11 19.4200 4.28000   1
  -1   0 -11 17.3600 3.91000   1
  -1   0 -11 16.8200 2.77000   1
  -1   0 -11 16.9700 3.16000   1
  -2   4  -2 -0.0200 0.76000   1
  -2   4  -2 0.92000 0.82000   1
   2  -4   2 2.14000 6.32000   1
  -3  -4   5 65.7000 7.49000   1
   3   4  -5 72.2100 8.37000   1
  -3  -4   5 66.4900 7.24000   1
   3   4  -5 75.7600 11.3500   1
  -3  -4   5 70.3800 8.24000   1
  -3  -4   5 70.1400 9.95000   1
   4   4   6 68.3000 7.20000   1
   4   4   6 61.8300 9.44000   1
  -4  -4  -6 54.9900 6.44000   1
   4   4   6 58.6200 7.84000   1
  -5   0   3 246.190 23.9600   1
   5   0  -3 248.400 23.9100   1
  -5   0   3 215.160 20.6500   1
  -5  -3   1 56.2200 7.48000   1
   5   3  -1 56.9400 8.51000   1
  -5  -3   1 62.4300 7.45000   1
  -5  -2  -4 68.3900 8.19000   1
   5   2   4 83.5800 9.74000   1
   5   2   4 63.5600 8.01000   1
   1   4  10 11.9400 3.49000   1
   1   4  10 8.91000 2.93000   1
  -1  -4 -10 10.1300 2.34000   1
  -1  -4 -10 6.17000 2.13000   1
   1   4  10 12.5900 3.95000   1
   4  -2   2 7.50000 2.15000   1
   4  -2   2 5.84000 1.04000   1
   4  -2   2 3.80000 1.41000   1
  -4   2  -2 3.98000 1.19000   1
   4   4  -3 98.8600 11.4000   1
  -4  -4   3 74.8600 8.13000   1
  -4  -4   3 87.0300 10.2100   1
  -4  -4   3 94.8000 10.2400   1
  -1   5   1 159.060 13.7600   1
   1  -5  -1 124.640 10.2000   1
   1  -5  -1 109.810 9.62000   1
   1  -5  -1 165.860 22.2000   1
  -5  -3  -3 2.05000 2.60000   1
   5   3   3 4.59000 3.15000   1
   5   3   3 0.05000 2.83000   1
  -2  -3   8 49.6400 5.67000   1
   2   3  -8 51.5000 8.02000   1
  -2  -3   8 45.8800 5.44000   1
   2   3  -8 45.0400 10.2300   1
   2   3  -8 49.8600 7.22000   1
   2   3  -8 44.5900 6.05000   1
  -2  -3   8 45.6700 8.50000   1
  -5  -1   4 59.9400 7.62000   1
  -5  -1   4 57.2100 6.91000   1
   5   1  -4 62.0800 9.06000   1
  -5  -1   4 68.2400 9.58000   1
  -4   1  -5 287.520 26.0100   1
  -4   1  -5 272.600 26.0300   1
   4  -1   5 267.750 24.0100   1
   4  -1   5 270.100 24.0700   1
   0  -5   2 1.10000 0.81000   1
   0   5  -2 5.17000 8.63000   1
   0  -5   2 1.00000 1.37000   1
   0  -5   2 0.60000 1.33000   1
   0  -5   2 0.91000 5.24000   1
   0   3  -8 -0.2300 0.74000   1
   0   3  -8 0.77000 1.61000   1
   0   3  -8 -0.5200 1.73000   1
   0  -3   8 3.10000 4.23000   1
  -2  -4   6 21.8100 7.60000   1
   2   4  -6 22.3600 4.82000   1
  -2  -4   6 18.7100 3.40000   1
  -2  -4   6 24.9100 3.64000   1
   2   4  -6 31.3200 9.24000   1
   1  -4  -9 398.300 36.5500   1
   1  -4  -9 432.350 40.4700   1
   1  -4  -9 310.520 28.5800   1
  -1   2  -9 87.9100 9.60000   1
  -1   2  -9 84.1300 6.85000   1
  -1   2  -9 81.2200 6.23000   1
  -1   2  -9 78.8000 7.98000   1
   1  -2   9 79.2600 16.9900   1
  -1   2  -9 91.0700 9.59000   1
   3   5   6 19.2800 4.00000   1
   3   5   6 17.7600 5.65000   1
   3   5   6 18.6500 4.86000   1
  -3  -5  -6 21.1000 3.34000   1
   5   0   2 19.3900 3.74000   1
  -5   0  -2 17.0500 3.77000   1
   5   0   2 16.7600 3.89000   1
  -5   0  -2 24.9600 4.80000   1
  -3   3  -3 105.480 9.07000   1
   3  -3   3 93.1400 23.5500   1
   3  -3   3 103.000 8.05000   1
  -3   3  -3 93.4200 9.03000   1
   2  -4  -7 1.15000 1.96000   1
   2  -4  -7 1.25000 1.05000   1
   2  -4  -7 1.51000 1.01000   1
   2  -4  -7 3.71000 3.88000   1
   2  -4  -7 0.61000 1.02000   1
  -2   4   7 1.54000 2.23000   1
   3  -3  -7 27.6800 3.27000   1
   3  -3  -7 29.0200 3.02000   1
   3  -3  -7 25.2600 4.06000   1
   3  -3  -7 30.4300 10.3300   1
   3  -3  -7 26.0100 2.94000   1
  -1  -5   3 0.91000 1.32000   1
  -1  -5   3 2.83000 5.86000   1
  -1  -5   3 1.61000 1.64000   1
   1   5  -3 1.92000 6.98000   1
  -1  -5   3 6.03000 1.92000   1
   2   2  11 7.50000 1.86000   1
   2   2  11 8.97000 2.72000   1
  -2  -2 -11 11.4700 2.42000   1
  -2  -2 -11 6.92000 2.02000   1
  -1   5   5 35.4700 4.95000   1
  -1   5   5 24.1600 3.00000   1
   1  -5  -5 38.0100 7.31000   1
   1   5   8 32.4800 4.64000   1
   1   5   8 29.8000 8.04000   1
   1   5   8 26.2500 5.42000   1
  -1  -5  -8 23.5600 3.37000   1
   0   4  10 0.70000 1.96000   1
   0  -4 -10 0.57000 1.08000   1
   0   4  10 1.17000 1.52000   1
   0  -4 -10 0.62000 1.49000   1
   2   5  -3 21.7800 3.58000   1
  -2  -5   3 19.9800 3.57000   1
  -2  -5   3 24.1800 7.32000   1
  -2  -5   3 21.6800 3.50000   1
  -2  -5   3 21.7500 3.85000   1
   2   5  -3 31.7300 8.06000   1
  -3   2  -6 799.620 73.0900   1
  -3   2  -6 817.030 77.6400   1
   3  -2   6 831.170 107.050   1
  -3   2  -6 606.230 85.8800   1
  -3   2  -6 617.100 57.0900   1
  -4  -2   7 2.76000 2.28000   1
   4   2  -7 3.88000 2.91000   1
   4   2  -7 3.50000 3.70000   1
   4   2  -7 8.20000 2.78000   1
  -4  -2   7 1.90000 2.94000   1
  -3   0  -9 340.530 31.8200   1
  -3   0  -9 328.970 30.4900   1
   3   0   9 327.340 27.3800   1
   3   0   9 344.440 31.0800   1
   4   2   8 105.750 9.26000   1
  -4  -2  -8 82.0100 9.42000   1
  -4  -2  -8 108.460 10.6900   1
   4   2   8 93.6300 10.0000   1
   4   2   8 98.0900 9.96000   1
   2  -1 -11 2.20000 2.38000   1
   2  -1 -11 1.47000 1.18000   1
   2  -1 -11 2.37000 1.21000   1
   2  -1 -11 2.52000 2.87000   1
   5   1   4 52.4400 7.07000   1
  -5  -1  -4 49.2600 6.61000   1
   5   1   4 56.2600 6.55000   1
   3  -2  -9 1.80000 1.05000   1
   3  -2  -9 0.72000 1.12000   1
   3  -2  -9 1.26000 1.64000   1
   3  -2  -9 1.53000 2.45000   1
   5   3  -2 32.4600 4.71000   1
   5   3  -2 32.6200 6.44000   1
  -5  -3   2 30.4600 5.03000   1
  -5  -3   2 35.3800 6.05000   1
  -5  -3   2 26.7800 4.20000   1
  -2   2  -8 10.1700 2.79000   1
  -2   2  -8 9.55000 1.59000   1
  -2   2  -8 10.6700 3.35000   1
   2  -2   8 14.8700 13.5800   1
  -3  -5   2 32.3500 4.98000   1
  -3  -5   2 35.1200 6.04000   1
  -3  -5   2 31.0900 4.35000   1
   3   5  -2 39.7000 8.67000   1
   3   5  -2 37.3700 5.45000   1
  -3  -5   2 32.5400 4.50000   1
  -1   5   0 23.4300 3.84000   1
   1  -5   0 25.0700 2.79000   1
   1  -5   0 24.1400 2.30000   1
   1  -5   0 16.3600 1.91000   1
   2   0 -11 16.9200 3.15000   1
   2   0 -11 16.8600 4.76000   1
   2   0 -11 14.7800 2.63000   1
   2   0 -11 21.6100 5.36000   1
   2   0 -11 14.4700 3.55000   1
  -2  -1 -11 201.910 18.2700   1
  -2  -1 -11 168.520 15.8600   1
   2   1  11 187.680 18.1900   1
   2   1  11 182.710 17.7700   1
   4   0  -8 29.7500 6.95000   1
  -4   0   8 38.3900 5.61000   1
   4   0  -8 41.5400 5.41000   1
   4   0  -8 45.4900 4.80000   1
  -4   0   8 41.7500 4.81000   1
   4   0  -8 35.7600 6.11000   1
   3   2  10 23.9100 3.72000   1
   3   2  10 19.1200 3.08000   1
  -3  -2 -10 19.5100 3.65000   1
  -3  -2 -10 21.2700 3.71000   1
   5   0  -4 229.040 22.5900   1
  -5   0   4 190.350 19.0500   1
  -5   0   4 254.490 23.9000   1
   0   4  -6 86.4600 9.86000   1
   0  -4   6 82.4500 7.51000   1
   0   4  -6 92.6500 17.8900   1
   0  -4   6 80.6700 7.20000   1
   0  -4   6 83.0100 15.2300   1
   5   2  -4 142.120 16.7200   1
  -5  -2   4 143.140 14.4800   1
  -5  -2   4 163.410 16.9400   1
  -5  -2   4 142.920 15.6700   1
  -5  -3  -4 1.47000 2.49000   1
   5   3   4 1.11000 3.11000   1
   5   3   4 2.57000 2.91000   1
  -2   3  -6 -0.0200 0.94000   1
  -2   3  -6 -0.1300 0.70000   1
   2  -3   6 -0.0100 7.23000   1
  -2   3  -6 0.24000 1.54000   1
   0  -1 -12 288.520 26.6500   1
   0  -1 -12 330.360 31.2100   1
   0  -1 -12 301.020 27.3600   1
  -1  -2  10 214.060 23.9900   1
   1   2 -10 240.200 22.8800   1
   1   2 -10 228.570 21.6800   1
   1   2 -10 238.480 22.7300   1
   1   2 -10 209.740 26.7800   1
   1   2 -10 224.980 19.5600   1
   1   1 -11 33.5100 5.86000   1
  -1  -1  11 23.8500 4.85000   1
   1   1 -11 30.9300 5.27000   1
   1   1 -11 27.3000 3.65000   1
   1   1 -11 34.3000 4.41000   1
  -3   1  -8 350.480 30.8900   1
  -3   1  -8 224.100 32.4100   1
   4  -2  -6 29.1700 6.15000   1
   4  -2  -6 31.4400 4.82000   1
   4  -2  -6 34.0400 3.79000   1
  -4   0  -7 30.4400 4.17000   1
   4   0   7 29.8200 2.51000   1
   4   0   7 32.1100 4.05000   1
  -4   0  -7 22.9800 4.06000   1
   4   0   7 26.0600 4.70000   1
   2   5   8 2.13000 1.66000   1
   2   5   8 -0.1000 2.78000   1
  -2  -5  -8 -0.0400 1.23000   1
   2   5   8 1.12000 2.65000   1
   3   0 -10 0.51000 2.29000   1
   3   0 -10 0.39000 3.96000   1
  -3   0  10 0.51000 1.63000   1
   3   0 -10 1.33000 1.25000   1
   3   0 -10 2.46000 2.36000   1
   3   0 -10 1.81000 1.85000   1
  -2  -4 -10 10.8900 3.00000   1
   2   4  10 12.8400 3.37000   1
   2   4  10 13.8800 2.82000   1
   2   4  10 9.98000 3.54000   1
  -2  -4 -10 14.2900 2.95000   1
   0   1 -11 5.67000 1.57000   1
   0  -1  11 5.45000 4.67000   1
   0   1 -11 4.35000 2.80000   1
   0   1 -11 3.46000 2.59000   1
   0   1 -11 4.01000 1.30000   1
   4   1  -8 2.50000 2.56000   1
  -4  -1   8 2.68000 2.70000   1
  -4  -1   8 1.82000 1.98000   1
   4   1  -8 0.36000 2.11000   1
   4   1  -8 3.62000 2.58000   1
   4   1  -8 2.45000 3.11000   1
   1  -4   5 9.36000 10.1100   1
  -1   4  -5 8.00000 1.38000   1
  -1   4  -5 9.49000 1.97000   1
  -1   4  -5 8.64000 2.97000   1
   0   2  12 0.99000 1.31000   1
   0  -2 -12 2.45000 1.69000   1
   0  -2 -12 1.00000 1.05000   1
   0  -2 -12 0.72000 1.19000   1
  -4  -3  -8 83.3400 8.66000   1
   4   3   8 78.2900 8.94000   1
   4   3   8 76.3000 8.69000   1
  -1   5   6 4.54000 1.71000   1
  -1   5   6 7.83000 3.04000   1
   1  -5  -6 14.8400 4.51000   1
   5   0   3 52.0900 7.70000   1
   5   0   3 70.2000 7.80000   1
  -5   0  -3 55.8100 7.26000   1
   4   3  -6 63.2800 9.08000   1
   4   3  -6 77.7500 9.52000   1
  -4  -3   6 82.2500 8.87000   1
  -4  -3   6 88.0700 9.75000   1
  -4  -3   6 69.6300 9.29000   1
   4  -2   3 222.690 17.2800   1
   4  -2   3 268.850 22.8700   1
   4  -2   3 215.160 18.5800   1
   5   2   5 18.7900 4.65000   1
   5   2   5 16.5700 3.99000   1
  -5  -2  -5 15.5800 3.77000   1
   4   1   8 150.260 12.4600   1
  -4  -1  -8 144.940 14.4900   1
  -4  -1  -8 139.950 13.9000   1
   4   1   8 154.910 15.4600   1
   4   1   8 153.930 14.8500   1
   1  -3 -11 1.18000 1.61000   1
   1  -3 -11 2.78000 2.35000   1
   1  -3 -11 0.97000 1.30000   1
   1  -3 -11 0.27000 1.02000   1
  -1   3  11 1.67000 1.80000   1
  -3  -4  -9 2.49000 2.05000   1
   3   4   9 8.08000 2.57000   1
   3   4   9 5.62000 3.73000   1
   3   4   9 6.25000 2.09000   1
   2   3  11 11.5800 3.60000   1
   2   3  11 9.85000 2.02000   1
  -2  -3 -11 11.5800 2.21000   1
   2   3  11 9.64000 2.11000   1
  -2  -3 -11 8.50000 2.21000   1
   0  -5  -8 18.4700 2.68000   1
   0   5   8 15.5000 3.94000   1
   0   5   8 27.0800 9.50000   1
   0  -5  -8 17.6000 3.96000   1
   0   5   8 18.8100 3.74000   1
   3  -1 -10 104.730 11.7000   1
   3  -1 -10 96.6200 8.49000   1
   3  -1 -10 76.5300 7.60000   1
   3  -1 -10 101.950 10.0800   1
   3  -1 -10 104.720 9.84000   1
  -2   4  -3 44.6900 5.51000   1
   2  -4   3 46.9100 12.7500   1
  -2   4  -3 46.9900 4.55000   1
   4   5   2 42.9100 7.91000   1
  -4  -5  -2 36.2900 5.24000   1
   4   5   2 43.9400 6.30000   1
  -5  -1   5 95.5000 10.2900   1
   5   1  -5 86.7500 10.9300   1
  -5  -1   5 87.2600 9.75000   1
   4   4   7 3.38000 2.34000   1
  -4  -4  -7 0.41000 1.61000   1
   4   4   7 1.51000 1.77000   1
   4   4   7 2.78000 3.34000   1
  -3  -1 -10 0.49000 1.51000   1
   3   1  10 1.33000 0.87000   1
   3   1  10 0.37000 1.62000   1
  -3  -1 -10 0.13000 1.27000   1
   0   2 -10 66.1400 8.13000   1
   0   2 -10 71.8400 6.07000   1
   0   2 -10 64.2800 7.84000   1
   0   2 -10 71.3100 6.95000   1
   0   2 -10 76.1000 8.15000   1
   0  -2  10 64.3800 11.8800   1
   3   5   7 35.8300 5.89000   1
   3   5   7 40.2500 5.84000   1
   3   5   7 38.8000 5.33000   1
  -3  -5  -7 29.9400 4.30000   1
   4   5   3 62.9300 8.55000   1
   4   5   3 45.3100 6.82000   1
  -4  -5  -3 48.3300 6.12000   1
  -3  -2   9 41.1700 5.84000   1
   3   2  -9 41.5500 7.05000   1
   3   2  -9 42.4900 6.00000   1
   3   2  -9 42.8600 8.05000   1
  -3  -2   9 40.3800 4.81000   1
   3   2  -9 39.8800 7.38000   1
  -3  -3 -10 -0.3600 1.09000   1
   3   3  10 0.80000 1.68000   1
   3   3  10 0.05000 1.14000   1
  -3  -3 -10 0.38000 1.18000   1
   4   5   1 15.3100 5.22000   1
  -4  -5  -1 15.6700 3.35000   1
  -4  -4   4 9.85000 3.34000   1
   4   4  -4 9.39000 3.54000   1
  -4  -4   4 13.7400 3.67000   1
   4   4  -4 13.7300 4.47000   1
  -4  -4   4 9.87000 3.09000   1
   1  -1 -12 0.34000 1.09000   1
   1  -1 -12 0.31000 1.29000   1
   1  -1 -12 -0.5000 2.57000   1
   1  -1 -12 2.19000 2.11000   1
  -1  -2 -12 36.2500 4.13000   1
   1   2  12 24.1400 6.04000   1
  -1  -2 -12 43.6700 4.90000   1
   1   2  12 41.2600 4.98000   1
   1   2  12 36.8400 6.11000   1
  -1  -2 -12 38.1600 4.69000   1
  -2   3  10 -0.3600 1.42000   1
   2  -3 -10 -0.6900 1.81000   1
   2  -3 -10 0.06000 0.94000   1
   2  -3 -10 0.26000 0.98000   1
   2  -3 -10 0.21000 0.98000   1
   2  -3 -10 1.20000 1.32000   1
   5   3  -3 0.40000 2.17000   1
  -5  -3   3 0.67000 1.66000   1
   5   3  -3 2.09000 2.72000   1
  -5  -3   3 -0.1500 2.41000   1
  -5  -3   3 0.49000 2.35000   1
   0  -5   3 1.73000 1.28000   1
   0  -5   3 1.95000 6.56000   1
   0  -5   3 1.30000 1.55000   1
  -5   1   1 26.4300 3.51000   1
  -5   1   1 31.8900 4.41000   1
   5  -1  -1 36.3500 3.85000   1
   5  -1  -1 35.1400 4.91000   1
   5  -1  -1 38.5700 5.40000   1
   2  -2 -11 36.3100 4.02000   1
   2  -2 -11 41.5300 6.06000   1
   2  -2 -11 42.9200 5.56000   1
   2  -2 -11 44.6300 4.68000   1
   1  -5   1 6.65000 5.91000   1
   1  -5   1 2.16000 0.63000   1
   1  -5   1 0.87000 1.17000   1
  -1   5  -1 4.69000 1.59000   1
  -5   1   2 0.23000 1.03000   1
  -5   1   2 -0.4800 1.22000   1
   5  -1  -2 -0.1700 1.29000   1
   5  -1  -2 0.32000 1.95000   1
   5  -1  -2 0.39000 0.83000   1
  -1  -1 -12 12.6900 2.30000   1
  -1  -1 -12 14.6900 3.46000   1
   1   1  12 9.74000 6.80000   1
  -1  -1 -12 14.4500 2.60000   1
  -1  -1 -12 9.57000 2.09000   1
   1   1  12 11.0200 2.41000   1
   4  -1  -8 1.84000 2.46000   1
  -4   1   8 0.91000 2.06000   1
   4  -1  -8 2.27000 3.38000   1
   4  -1  -8 0.60000 1.73000   1
   4  -1  -8 1.18000 1.31000   1
   2  -4  -8 1.08000 1.02000   1
   2  -4  -8 0.69000 2.13000   1
   2  -4  -8 1.69000 1.14000   1
   2  -4  -8 1.89000 3.35000   1
   2  -4  -8 0.58000 1.26000   1
  -2   4   8 1.40000 1.90000   1
   3  -3   4 24.2100 16.6400   1
   3  -3   4 21.2400 1.79000   1
  -3   3  -4 25.1500 2.98000   1
  -3   3  -4 17.0400 3.35000   1
   5  -1   0 62.5600 5.80000   1
   5  -1   0 72.6400 7.11000   1
   5  -1   0 69.1200 8.23000   1
  -5   1   0 67.5200 8.56000   1
  -5   1   0 64.5500 7.18000   1
  -5  -1  -5 -0.6200 2.03000   1
   5   1   5 0.89000 1.64000   1
   5   1   5 1.01000 2.18000   1
   4   5   4 79.4200 9.60000   1
   4   5   4 90.8700 12.1200   1
   4   5   4 82.9600 10.4700   1
   5   0  -5 475.580 47.7700   1
  -5   0   5 429.300 42.6200   1
  -5   0   5 485.320 49.8200   1
   3  -3  -8 81.4900 7.61000   1
   3  -3  -8 55.9100 13.8700   1
   3  -3  -8 73.2900 7.34000   1
   3  -3  -8 85.2800 9.34000   1
   3  -3  -8 82.4700 7.71000   1
   5   3   5 8.38000 3.22000   1
   5   3   5 9.07000 3.79000   1
  -5  -3  -5 3.81000 3.07000   1
   4   5   0 -0.1600 2.37000   1
   4   5   0 0.33000 3.11000   1
  -4  -5   0 0.52000 1.51000   1
  -2  -2  10 895.330 90.2500   1
   2   2 -10 810.500 80.3900   1
  -2  -2  10 715.900 71.0100   1
  -2  -2  10 799.080 79.6400   1
   2   2 -10 860.860 83.3300   1
   2   2 -10 774.670 86.6000   1
   2   2 -10 859.140 85.5000   1
  -3  -4   6 9.18000 3.81000   1
  -3  -4   6 11.9200 3.09000   1
  -3  -4   6 10.6900 2.65000   1
   3   4  -6 9.93000 3.48000   1
  -3  -4   6 10.1000 3.31000   1
   3   5  -3 8.42000 3.17000   1
  -3  -5   3 7.04000 2.63000   1
  -3  -5   3 9.93000 2.69000   1
  -3  -5   3 3.42000 2.53000   1
  -3  -5   3 7.13000 3.64000   1
   3   1 -10 303.190 31.3700   1
   3   1 -10 388.290 35.7100   1
  -3  -1  10 386.510 37.8200   1
  -3  -1  10 380.370 35.3200   1
   3   1 -10 373.760 35.3400   1
   3   1 -10 331.890 32.7600   1
   3   1 -10 327.100 32.9900   1
   4  -1   6 -0.0100 1.13000   1
  -4   1  -6 0.12000 1.17000   1
  -4   1  -6 -0.4300 1.30000   1
   4  -1   6 0.07000 0.89000   1
  -1  -5   4 59.0800 6.62000   1
  -1  -5   4 55.4200 5.21000   1
   1   5  -4 57.6900 5.10000   1
   1   5  -4 64.8200 15.0100   1
  -1  -5   4 73.9700 12.9600   1
  -1  -5   4 60.2300 6.90000   1
   0   0 -12 31.7100 5.76000   1
   0   0 -12 26.2000 3.30000   1
   0   0 -12 30.1600 3.86000   1
   0   0 -12 33.6200 4.80000   1
   0   0  12 34.9600 5.57000   1
   5  -1  -3 142.260 13.4700   1
   5  -1  -3 134.800 13.6300   1
  -5   1   3 142.420 13.6300   1
  -5   1   3 104.200 9.85000   1
   5   4   1 44.6200 7.03000   1
   5   4   1 44.4700 6.89000   1
  -5  -4  -1 46.4500 6.34000   1
   2   5  -4 0.50000 7.11000   1
  -2  -5   4 0.75000 1.77000   1
  -2  -5   4 2.98000 2.52000   1
  -2  -5   4 5.71000 1.98000   1
   2   5  -4 3.24000 1.94000   1
  -2  -5   4 1.57000 5.30000   1
   5   4   2 53.8100 6.88000   1
   5   4   2 52.4400 7.68000   1
  -5  -4  -2 53.9300 7.18000   1
   1  -2 -12 37.0400 5.20000   1
   1  -2 -12 30.3200 3.50000   1
   1  -2 -12 27.2700 3.41000   1
   1  -2 -12 40.1500 5.50000   1
  -1  -5  -9 7.53000 2.12000   1
   1   5   9 10.1100 3.48000   1
   1   5   9 6.54000 5.29000   1
   1   5   9 10.6000 3.06000   1
   1   4  -7 156.500 24.8800   1
   1   4  -7 123.700 10.4600   1
   1   4  -7 135.100 14.0400   1
  -1  -4   7 130.230 18.7800   1
  -1  -4   7 129.940 12.8400   1
  -1  -4   7 135.650 12.8800   1
   3  -4  -2 1.72000 2.11000   1
   3  -4  -2 -1.5000 8.23000   1
   3  -4  -2 0.79000 0.89000   1
   3  -4  -3 9.65000 10.7600   1
   3  -4  -3 13.6200 3.47000   1
   3  -4  -3 10.7800 1.67000   1
   3  -4  -3 6.94000 1.70000   1
   1  -5  -7 20.4900 4.51000   1
  -1   5   7 15.0900 3.91000   1
  -1   5   7 9.41000 2.55000   1
  -5  -2   5 8.88000 3.55000   1
  -5  -2   5 3.65000 3.89000   1
   5   2  -5 8.58000 4.45000   1
   5   2  -5 10.9500 2.16000   1
  -5  -2   5 7.74000 2.55000   1
   3   3  -8 293.410 32.6500   1
  -3  -3   8 317.020 30.5300   1
  -3  -3   8 279.320 26.4600   1
   3   3  -8 292.370 28.9100   1
   3   3  -8 324.460 30.3900   1
   3   3  -8 321.560 30.8300   1
  -1  -3   9 5.95000 2.20000   1
  -1  -3   9 5.32000 5.88000   1
   1   3  -9 3.53000 7.04000   1
   1   3  -9 6.21000 3.95000   1
   1   3  -9 10.9000 3.04000   1
   1   3  -9 8.17000 2.60000   1
   1  -4 -10 0.28000 1.10000   1
   1  -4 -10 0.56000 1.22000   1
   1  -4 -10 0.56000 1.14000   1
  -1   4  10 0.18000 2.43000   1
   1   0 -12 46.1100 6.90000   1
   1   0 -12 45.2100 5.07000   1
   1   0 -12 57.3800 6.43000   1
   1   0 -12 47.9000 4.92000   1
   2   1 -11 1.18000 2.26000   1
   2   1 -11 1.01000 1.42000   1
   2   1 -11 2.10000 3.45000   1
   2   1 -11 -0.1800 2.63000   1
   2   1 -11 0.15000 4.07000   1
  -2   1 -10 73.1700 9.08000   1
  -2   1 -10 78.2400 7.44000   1
  -2   1 -10 74.0600 6.86000   1
   2  -1  10 81.4500 19.6600   1
  -2   1 -10 73.8100 8.27000   1
   5  -1   1 13.5400 1.80000   1
   5  -1   1 15.3200 3.48000   1
   5  -1   1 14.1000 2.96000   1
  -5   1  -1 16.4100 4.45000   1
  -5   1  -1 10.3800 2.75000   1
   1  -3   8 60.1400 15.9300   1
  -1   3  -8 54.4300 6.50000   1
  -1   3  -8 48.7600 5.36000   1
  -1   3  -8 48.9900 3.56000   1
  -1   3  -8 53.3200 6.29000   1
   5   4   0 260.810 26.6400   1
  -5  -4   0 256.700 25.4300   1
   5   4   0 300.610 29.8500   1
   5   0   4 63.1700 7.36000   1
  -5   0  -4 52.2900 6.98000   1
   5   0   4 54.2300 6.86000   1
   4  -2  -7 282.940 28.8500   1
   4  -2  -7 284.810 26.7700   1
   4  -2  -7 316.420 29.6300   1
   5   4   3 1.02000 3.02000   1
   5   4   3 1.74000 1.95000   1
   5   4   3 -0.9800 2.40000   1
  -5  -4  -3 0.17000 1.74000   1
   2   0  11 4.61000 9.39000   1
  -2   0 -11 5.27000 1.95000   1
  -2   0 -11 6.32000 1.80000   1
  -2   0 -11 4.00000 3.33000   1
   1   4  11 36.2100 5.90000   1
   1   4  11 41.4400 5.22000   1
   1   4  11 38.1000 6.14000   1
  -1  -4 -11 40.9900 4.59000   1
  -1  -4 -11 33.2700 4.89000   1
   3  -4  -1 81.5100 20.2300   1
   3  -4  -1 84.6600 8.67000   1
   3  -4  -4 0.68000 2.18000   1
   3  -4  -4 0.47000 6.82000   1
   3  -4  -4 0.45000 0.95000   1
   3  -4  -4 0.78000 1.17000   1
  -2  -4   7 1148.45 125.940   1
   2   4  -7 1349.73 157.400   1
  -2  -4   7 1158.91 123.890   1
  -2  -4   7 1114.61 117.580   1
   2   4  -7 1202.81 118.950   1
   2   4  -7 1278.12 129.840   1
  -4  -5  -5 0.26000 1.75000   1
   4   5   5 -0.4600 2.05000   1
   4   5   5 0.89000 2.55000   1
   4   5   5 0.91000 2.95000   1
   2   6   3 0.18000 6.31000   1
  -2  -6  -3 2.55000 1.67000   1
  -2  -6  -3 3.06000 3.38000   1
   1   6   3 25.3600 5.63000   1
  -1  -6  -3 18.0500 3.02000   1
   1   6   3 21.1300 11.1500   1
  -1  -6  -3 21.8100 5.04000   1
   1   6   3 25.4400 4.27000   1
  -1   1 -11 33.1000 3.25000   1
  -1   1 -11 24.8600 4.37000   1
  -1   1 -11 35.3200 6.16000   1
   1  -1  11 46.4300 11.2700   1
  -1   1 -11 37.8100 5.47000   1
  -1   1 -11 37.6600 4.05000   1
   4   5  -1 24.3500 5.63000   1
   4   5  -1 31.2400 5.69000   1
  -4  -5   1 19.8500 4.17000   1
  -4  -5   1 19.1000 3.72000   1
  -4  -5   1 21.2000 3.89000   1
   4  -2   4 1.86000 1.41000   1
  -4   2  -4 1.89000 1.54000   1
  -4   2  -4 0.35000 1.44000   1
  -4   2  -4 1.40000 1.95000   1
  -4   2  -4 1.58000 0.97000   1
  -2  -6  -2 14.8600 2.76000   1
  -2  -6  -2 22.4100 5.51000   1
   2   6   2 15.5100 7.33000   1
   0  -3 -12 54.6100 5.68000   1
   0   3  12 58.4800 6.64000   1
   0  -3 -12 43.5800 6.22000   1
   5   2   6 115.460 12.2400   1
   5   2   6 114.150 13.0100   1
  -5  -2  -6 102.610 11.2000   1
   1   3  12 4.11000 1.41000   1
  -1  -3 -12 2.47000 1.56000   1
  -1  -3 -12 5.47000 1.76000   1
   1   3  12 5.42000 1.89000   1
  -1  -3 -12 2.48000 1.90000   1
   1   3  12 8.18000 3.22000   1
   1   6   2 60.2700 13.6900   1
  -1  -6  -2 32.5100 7.84000   1
  -1  -6  -2 59.7100 10.9500   1
  -1  -6  -2 55.7500 5.75000   1
   1   6   2 64.6300 6.84000   1
  -3   2  -7 26.8500 3.77000   1
  -3   2  -7 31.5900 3.55000   1
   3  -2   7 47.2600 19.7000   1
  -3   2  -7 39.8300 5.74000   1
  -3   2  -7 33.9700 4.73000   1
  -1  -6  -4 6.34000 1.96000   1
   1   6   4 6.53000 3.42000   1
   1   6   4 9.32000 3.52000   1
   1   6   4 11.3400 8.86000   1
  -1  -6  -4 8.52000 4.21000   1
   5  -1  -4 509.380 48.3200   1
  -5   1   4 490.560 49.8400   1
  -5   1   4 369.100 35.9400   1
   5  -1  -4 415.280 43.3000   1
   2   5   9 93.6100 12.7300   1
   2   5   9 97.4300 11.7500   1
   2   5   9 94.1500 9.50000   1
  -2  -5  -9 90.4900 8.94000   1
  -2  -6  -4 1.01000 2.44000   1
   2   6   4 0.64000 3.00000   1
   2   6   4 4.22000 4.53000   1
  -2  -6  -4 0.52000 1.43000   1
  -4  -2   8 69.6400 8.18000   1
   4   2  -8 59.6100 7.90000   1
   4   2  -8 47.9400 5.75000   1
  -4  -2   8 63.8100 7.36000   1
   4   2  -8 62.4300 8.17000   1
   4   2  -8 56.2500 8.79000   1
   4  -3  -2 22.8000 3.94000   1
   4  -3  -2 19.1600 2.82000   1
   4   2   9 214.640 21.1100   1
  -4  -2  -9 167.400 17.0000   1
  -4  -2  -9 224.270 21.2100   1
   4   2   9 235.530 20.0200   1
   4   2   9 218.840 21.5600   1
   0  -4 -11 4.96000 1.67000   1
   0   4  11 7.92000 2.82000   1
   0  -4 -11 2.65000 1.76000   1
   0   4  11 6.73000 2.79000   1
   1  -5   2 10.2200 7.36000   1
  -1   5  -2 11.0500 2.25000   1
   1  -5   2 9.51000 1.80000   1
  -5  -3   4 0.21000 2.92000   1
  -5  -3   4 0.72000 2.00000   1
  -5  -3   4 0.93000 1.85000   1
   5   3  -4 0.42000 2.59000   1
   5   3  -4 -0.1700 1.66000   1
   4  -3  -3 4.44000 1.42000   1
   4  -3  -3 8.52000 2.51000   1
  -5  -4   1 85.2100 9.68000   1
  -5  -4   1 118.820 12.6800   1
  -5  -4   1 112.270 12.3400   1
   5   4  -1 120.090 13.8400   1
   5   4  -1 124.840 13.3900   1
  -5  -1   6 23.7500 4.52000   1
   5   1  -6 18.0600 4.65000   1
  -5  -1   6 20.0100 3.89000   1
  -2  -3   9 1.28000 3.63000   1
   2   3  -9 -0.3400 5.79000   1
   2   3  -9 2.09000 3.41000   1
   2   3  -9 2.07000 2.25000   1
   2   3  -9 1.15000 2.64000   1
   3  -2 -10 29.6500 4.94000   1
   3  -2 -10 28.6400 3.08000   1
   3  -2 -10 24.0800 4.01000   1
   3  -2 -10 19.9100 2.76000   1
   4  -3  -1 1.48000 1.08000   1
   4  -3  -1 2.19000 1.69000   1
   3   5   8 -0.9300 2.90000   1
   3   5   8 0.78000 1.97000   1
   3   5   8 0.60000 2.10000   1
  -3  -5  -8 0.98000 1.64000   1
   0   5   9 9.88000 3.20000   1
   0   5   9 13.8900 3.68000   1
   0  -5  -9 12.1800 2.73000   1
   0  -5  -9 6.80000 1.85000   1
   0   5   9 4.76000 7.00000   1
   2  -4   4 516.810 64.9100   1
  -2   4  -4 544.050 53.3700   1
  -2   4  -4 583.140 53.9200   1
   4   0  -9 12.3800 3.72000   1
  -4   0   9 11.0500 2.61000   1
  -4   0   9 10.1100 3.24000   1
   4   0  -9 9.66000 5.91000   1
   4   0  -9 13.9100 3.36000   1
   4   0  -9 13.9100 2.33000   1
   4   0  -9 11.5900 2.72000   1
   5   4   4 59.9000 7.69000   1
   5   4   4 57.7500 7.52000   1
   5   4   4 58.7600 6.45000   1
   0   3  -9 49.5800 4.17000   1
   0   3  -9 59.1700 6.79000   1
   0   3  -9 51.9100 4.64000   1
   0   3  -9 48.7100 5.57000   1
   0   3  -9 52.6100 7.54000   1
   0  -3   9 50.6000 11.4300   1
  -2  -6  -1 11.9100 3.89000   1
  -2  -6  -1 14.7600 2.72000   1
   2   6   1 15.4700 8.81000   1
  -2  -6  -1 16.3700 5.17000   1
   3  -4   0 1.78000 8.64000   1
   3  -4   0 0.66000 1.31000   1
   3  -4  -5 61.4500 12.6800   1
   3  -4  -5 53.5300 5.51000   1
   3  -4  -5 46.2300 5.40000   1
   4   4   8 8.29000 3.35000   1
   4   4   8 10.1700 2.53000   1
  -4  -4  -8 8.45000 2.41000   1
   4   4   8 6.54000 4.23000   1
   5  -1   2 7.75000 2.55000   1
  -5   1  -2 6.64000 1.97000   1
   5  -1   2 5.49000 1.27000   1
  -5   1  -2 4.30000 3.52000   1
   5  -1   2 5.46000 1.93000   1
   1   6   1 7.60000 9.12000   1
  -1  -6  -1 17.9000 5.47000   1
  -1  -6  -1 17.5800 3.43000   1
  -1  -6  -1 11.3200 2.23000   1
   1   6   5 103.640 11.2100   1
  -1  -6  -5 97.1000 11.8500   1
  -1  -6  -5 74.5400 8.01000   1
   1   6   5 97.8900 18.5900   1
   1   6   5 67.2000 11.5200   1
  -4  -4   5 67.5200 8.97000   1
  -4  -4   5 72.0400 8.54000   1
   4   4  -5 73.1000 9.16000   1
   4   4  -5 64.5000 10.4600   1
   2   6   5 53.5200 7.64000   1
   2   6   5 47.8200 7.06000   1
  -2  -6  -5 43.9600 5.92000   1
   2   6   5 49.5100 11.3900   1
  -2  -6  -5 40.3600 5.55000   1
   5   3   6 30.2200 5.06000   1
   5   3   6 19.7900 4.21000   1
  -5  -3  -6 16.3500 4.22000   1
  -1   0 -12 27.6700 6.25000   1
  -1   0 -12 28.7600 3.24000   1
  -1   0 -12 34.0000 5.29000   1
  -1   0 -12 32.2000 4.06000   1
   1   0  12 37.7700 9.56000   1
   5   0  -6 34.2300 6.34000   1
  -5   0   6 40.2500 5.99000   1
  -5   0   6 36.0100 4.52000   1
  -2   3  -7 147.250 14.4300   1
  -2   3  -7 134.200 13.8100   1
  -2   3  -7 126.680 11.0100   1
   2  -3   7 160.230 28.9200   1
  -1   2 -10 102.160 8.41000   1
  -1   2 -10 102.360 10.2300   1
  -1   2 -10 114.450 12.2600   1
  -1   2 -10 112.690 11.5500   1
  -1   2 -10 96.9900 7.62000   1
   1  -2  10 124.300 20.1300   1
   4  -3  -4 8.19000 1.86000   1
   4  -3  -4 15.9500 3.37000   1
   4  -3  -4 11.6900 2.30000   1
   4   0   8 303.400 28.1700   1
   4   0   8 330.010 29.0200   1
   4   0   8 267.120 21.5700   1
  -4   0  -8 287.320 28.5800   1
  -4   0  -8 196.120 27.2200   1
   4   3   9 67.9400 7.08000   1
   4   3   9 63.0700 8.82000   1
  -4  -3  -9 60.6100 6.99000   1
   4   3   9 69.1600 7.84000   1
   0  -4   7 57.5000 6.03000   1
   0  -4   7 62.6900 13.4400   1
   0   4  -7 78.5400 18.0500   1
   0   4  -7 62.1900 8.20000   1
  -1   4  -6 79.2300 6.21000   1
  -1   4  -6 83.1200 9.00000   1
  -1   4  -6 79.9100 7.44000   1
   1  -4   6 79.4700 18.7400   1
  -4  -3   7 31.5100 4.71000   1
  -4  -3   7 32.5500 4.76000   1
   4   3  -7 27.3100 6.59000   1
   4   3  -7 31.2600 6.70000   1
   3   0  10 1.08000 0.81000   1
   3   0  10 2.09000 2.61000   1
  -3   0 -10 -0.1300 1.66000   1
  -3   0 -10 0.19000 1.43000   1
   0  -5   4 47.1700 4.96000   1
   0  -5   4 64.3700 12.1300   1
   0  -5   4 56.3300 5.71000   1
   0   5  -4 61.1100 18.7900   1
   4  -3   0 44.2400 4.12000   1
   4  -3   0 46.8900 5.24000   1
  -2  -2 -12 11.1800 2.49000   1
   2   2  12 14.4800 2.57000   1
   2   2  12 13.8500 3.68000   1
  -2   2  -9 195.780 18.8700   1
  -2   2  -9 107.330 17.3100   1
  -2   2  -9 191.780 17.6500   1
  -2   2  -9 151.920 12.2400   1
   2  -2   9 191.060 28.4300   1
  -5  -1  -6 1.23000 2.32000   1
   5   1   6 1.23000 2.55000   1
   5   1   6 1.83000 2.23000   1
   3   4  10 32.2600 4.58000   1
   3   4  10 25.9300 4.91000   1
   3   4  10 34.6900 4.40000   1
  -3  -4 -10 31.3500 4.33000   1
  -3  -4 -10 17.4000 3.33000   1
  -2   4   9 -0.5900 1.73000   1
   2  -4  -9 0.29000 0.99000   1
   2  -4  -9 0.83000 1.75000   1
   2  -4  -9 -0.5700 0.84000   1
   2  -4  -9 0.27000 0.89000   1
   2  -4  -9 0.86000 1.82000   1
   4   1  -9 19.3300 3.76000   1
  -4  -1   9 14.8300 2.93000   1
   4   1  -9 18.6900 4.87000   1
   4   1  -9 17.6500 6.13000   1
   4   1  -9 16.1500 4.17000   1
   2   4  11 314.500 29.0700   1
   2   4  11 334.730 30.6800   1
   2   4  11 289.420 28.7000   1
  -2  -4 -11 239.900 23.6800   1
   4   5   6 18.8200 4.56000   1
   4   5   6 18.9700 4.65000   1
   4   5   6 20.7400 5.98000   1
   2  -5  -3 120.480 10.6500   1
   2  -5  -3 187.450 25.3200   1
  -2   5   3 158.450 16.1900   1
  -3  -2 -11 393.000 38.1700   1
   3   2  11 305.220 31.4200   1
   3   2  11 318.420 29.7300   1
  -1   5   8 21.2600 4.16000   1
  -1   5   8 15.2600 3.19000   1
   1  -5  -8 21.9000 4.23000   1
   1  -5  -8 14.7600 2.50000   1
   2  -1 -12 287.690 28.1000   1
   2  -1 -12 319.380 30.9500   1
   2  -1 -12 316.970 29.2100   1
   2  -1 -12 340.340 31.6900   1
  -3  -5   4 39.0600 5.44000   1
  -3  -5   4 32.7400 5.24000   1
  -3  -5   4 31.7100 5.22000   1
  -3  -5   4 36.2100 9.02000   1
   3   5  -4 33.7300 9.59000   1
   3   5  -4 37.5500 5.27000   1
   3  -1   9 207.320 37.2100   1
  -3   1  -9 138.100 20.4900   1
  -3   1  -9 200.020 17.3900   1
  -3   1  -9 219.220 21.1300   1
   2  -5  -2 33.2200 11.2200   1
  -2   5   2 18.2700 4.18000   1
   4   1   9 36.7600 5.51000   1
   4   1   9 30.4200 3.13000   1
  -4  -1  -9 29.4700 4.16000   1
  -4  -1  -9 23.3900 4.66000   1
  -4  -5   2 1.27000 2.28000   1
   4   5  -2 0.56000 2.83000   1
  -4  -5   2 0.67000 2.24000   1
   5  -1  -5 16.9400 4.44000   1
  -5   1   5 9.64000 1.96000   1
  -5   1   5 10.2900 3.33000   1
   5  -1  -5 9.43000 2.13000   1
   3  -3   5 16.2600 18.3400   1
  -3   3  -5 17.7800 2.80000   1
  -3   3  -5 14.5300 3.26000   1
   5   4  -2 14.7500 5.27000   1
   5   4  -2 14.3500 4.71000   1
  -5  -4   2 13.0000 3.86000   1
  -2  -6   0 15.9700 5.22000   1
  -2  -6   0 11.1300 3.26000   1
  -2  -6   0 16.7900 2.84000   1
   2   6   0 17.8300 2.87000   1
  -2   5   4 10.9900 3.75000   1
   2  -5  -4 21.0200 8.55000   1
   2  -5  -4 11.2700 2.42000   1
   3  -3  -9 0.17000 1.01000   1
   3  -3  -9 -0.6500 1.63000   1
   3  -3  -9 -0.1300 0.78000   1
   3  -3  -9 0.10000 3.33000   1
   3  -3  -9 0.20000 0.69000   1
   5   0   5 31.2000 4.81000   1
  -5   0  -5 28.2600 4.99000   1
   5   0   5 33.8900 4.76000   1
   4  -1  -9 19.7000 3.71000   1
   4  -1  -9 23.8900 5.73000   1
   4  -1  -9 20.0500 4.54000   1
  -1  -6   0 247.120 27.3100   1
  -1  -6   0 220.040 23.2700   1
  -1  -6   0 203.230 19.8200   1
   3   0 -11 35.2200 5.46000   1
   3   0 -11 37.9100 4.85000   1
   3   0 -11 45.6600 6.19000   1
   3   0 -11 34.3000 6.78000   1
   3   0 -11 43.3200 7.13000   1
   1   6   6 5.88000 8.38000   1
   1   6   6 9.18000 4.13000   1
  -1  -6  -6 3.98000 2.12000   1
  -1  -6  -6 8.95000 3.31000   1
   1   6   6 7.00000 3.39000   1
   5   2  -6 0.95000 2.97000   1
  -5  -2   6 0.45000 1.45000   1
   5   2  -6 -0.2600 1.38000   1
   5   4   5 19.9800 4.05000   1
   5   4   5 16.1400 4.25000   1
   3  -4   1 125.610 27.0800   1
   3  -4   1 135.660 11.7100   1
   3  -4  -6 67.5700 6.97000   1
   3  -4  -6 67.1800 14.8200   1
   3  -4  -6 58.3100 6.64000   1
   2   0 -12 1156.77 122.110   1
   2   0 -12 1228.98 126.070   1
   2   0 -12 1307.03 136.380   1
   2   0 -12 1077.06 113.070   1
   4  -3  -5 87.7900 7.98000   1
   4  -3  -5 107.150 10.2300   1
   4  -3  -5 95.2500 10.7000   1
   2   1  12 0.21000 1.15000   1
   2   1  12 -0.1700 1.05000   1
  -2  -1 -12 0.69000 1.27000   1
   2   1  12 2.27000 6.15000   1
   3   6   3 78.2300 12.6200   1
  -3  -6  -3 66.0900 7.66000   1
   3   6   3 79.2600 9.20000   1
   2   6   6 458.930 51.7700   1
  -2  -6  -6 476.000 46.6700   1
   2   6   6 527.250 51.2300   1
   2   6   6 542.510 53.8200   1
  -2  -6  -6 429.710 42.3500   1
   1   5  -5 222.670 18.7300   1
   1   5  -5 280.450 37.3100   1
  -1  -5   5 267.340 24.9700   1
  -1  -5   5 246.300 24.6200   1
  -1  -5   5 255.640 31.2000   1
   0  -6  -3 26.5700 5.89000   1
   0   6   3 37.2600 15.3000   1
   0  -6  -3 19.2700 3.28000   1
   0   6   3 27.5900 4.48000   1
   0  -6  -3 23.5800 3.13000   1
   0   6   3 19.2800 4.17000   1
   3  -1 -11 3.09000 2.63000   1
   3  -1 -11 4.85000 2.27000   1
   3  -1 -11 1.25000 1.46000   1
   3   6   2 336.700 31.3400   1
   3   6   2 283.640 32.4600   1
  -3  -6  -2 229.980 25.3200   1
   1  -3 -12 54.5300 6.15000   1
   1  -3 -12 44.4000 6.97000   1
   1  -3 -12 29.0000 4.25000   1
  -1   3  12 37.8300 4.84000   1
   4  -2  -8 78.6000 7.35000   1
   4  -2  -8 73.2100 7.14000   1
   4  -2  -8 80.0700 10.8700   1
   4  -2  -8 74.2800 8.67000   1
   4  -2  -8 74.0000 7.62000   1
   2  -5  -1 46.9400 10.3000   1
  -2   5   1 33.9000 4.69000   1
   2  -5  -1 37.6100 4.80000   1
   2   5  -5 7.63000 2.10000   1
  -2  -5   5 7.63000 4.76000   1
  -2  -5   5 2.77000 2.39000   1
  -2  -5   5 4.84000 2.45000   1
  -2  -5   5 6.35000 2.36000   1
   2  -3 -11 3.38000 2.83000   1
   2  -3 -11 1.57000 1.22000   1
   2  -3 -11 0.52000 1.79000   1
   3   3  11 2.64000 2.68000   1
  -3  -3 -11 0.28000 1.97000   1
   3   3  11 1.85000 1.57000   1
   0   6   4 3.84000 2.52000   1
   0   6   4 0.63000 9.94000   1
   0  -6  -4 2.07000 1.36000   1
   0  -6  -4 3.04000 3.28000   1
   0   6   4 2.32000 1.93000   1
   4  -3   1 33.3800 3.17000   1
   4  -3   1 39.4300 4.36000   1
   1   5  10 18.6000 3.73000   1
   1   5  10 12.1900 4.09000   1
   1   5  10 19.7600 6.38000   1
   5  -1   3 -0.3000 1.52000   1
   5  -1   3 -0.0300 1.25000   1
   5  -1   3 0.44000 0.62000   1
  -5   1  -3 -0.6000 1.26000   1
  -5   1  -3 -0.2200 2.02000   1
   2   3  12 4.33000 1.81000   1
   2   3  12 3.81000 3.12000   1
  -2  -3 -12 1.63000 2.04000   1
   2   3  12 6.70000 1.89000   1
  -4   1  -7 9.72000 2.35000   1
   4  -1   7 8.70000 2.62000   1
   4  -1   7 7.23000 1.87000   1
  -4   1  -7 6.87000 2.41000   1
   2  -5  -5 6.15000 2.18000   1
  -2   5   5 5.34000 3.02000   1
   2  -5  -5 19.2600 5.37000   1
  -3  -6  -4 0.88000 1.63000   1
   3   6   4 0.03000 4.13000   1
   3   6   4 1.22000 3.20000   1
   3   6   4 0.37000 2.61000   1
   0  -6  -2 27.5900 7.35000   1
   0  -6  -2 20.3000 3.21000   1
   0  -6  -2 20.3000 2.65000   1
   0   6   2 9.83000 15.5400   1
   0   6   2 25.5500 4.22000   1
   1   2 -11 3.62000 3.08000   1
  -1  -2  11 4.81000 4.44000   1
   1   2 -11 6.92000 3.46000   1
   1   2 -11 4.19000 1.50000   1
   1   2 -11 8.44000 3.01000   1
  -3  -4   7 75.1100 9.20000   1
  -3  -4   7 59.6300 7.56000   1
   3   4  -7 71.1200 9.00000   1
   3   4  -7 73.0500 14.1000   1
   0  -1 -13 28.5800 4.94000   1
   0  -1 -13 25.1000 3.24000   1
   0  -1 -13 30.4800 6.39000   1
   1  -5   3 4.89000 1.49000   1
   1  -5   3 1.46000 7.00000   1
  -1   5  -3 3.99000 1.73000   1
   3   2 -10 143.550 18.0900   1
   3   2 -10 149.410 15.6000   1
   3   2 -10 125.560 15.0200   1
   3   2 -10 153.120 16.9900   1
   1   1 -12 1.08000 2.14000   1
  -1  -1  12 0.76000 1.81000   1
   1   1 -12 0.31000 1.16000   1
   1   1 -12 1.24000 1.86000   1
   3   1  11 181.810 17.7400   1
  -3  -1 -11 242.990 21.8200   1
   3   1  11 163.110 19.2800   1
   3   6   1 27.5900 4.85000   1
  -3  -6  -1 36.2700 6.10000   1
  -3  -6  -1 20.4300 3.88000   1
  -3  -6  -1 18.2900 4.25000   1
   5   3  -5 20.9700 5.07000   1
  -5  -3   5 24.4900 3.98000   1
  -5  -3   5 22.6600 6.41000   1
   5   3  -5 23.9300 6.47000   1
   0  -2 -13 82.2000 9.99000   1
   0  -2 -13 76.5500 7.44000   1
   0  -2 -13 77.2900 8.24000   1
   0  -2 -13 87.2800 9.10000   1
   0   2  13 80.1000 8.08000   1
  -4   2  -5 68.5500 7.27000   1
  -4   2  -5 68.2800 7.20000   1
  -4   2  -5 69.5300 7.25000   1
   4  -2   5 69.4200 6.29000   1
   5   2   7 31.4000 5.34000   1
  -5  -2  -7 27.0700 4.45000   1
   5   2   7 32.2900 6.18000   1
   0   1 -12 5.36000 1.38000   1
   0   1 -12 8.39000 2.98000   1
   0   1 -12 10.2700 3.16000   1
   0  -1  12 7.08000 4.48000   1
   0  -6  -5 19.6400 5.38000   1
   0   6   5 8.05000 2.69000   1
   0   6   5 13.6600 3.68000   1
   0   6   5 9.07000 11.7500   1
   0  -6  -5 7.13000 1.98000   1
   2  -2 -12 31.8700 4.13000   1
   2  -2 -12 39.1700 6.57000   1
   2  -2 -12 37.1600 5.33000   1
   1  -4 -11 3.12000 1.76000   1
  -1   4  11 7.42000 3.08000   1
   0  -6  -1 162.650 14.3800   1
   0   6   1 193.100 18.7000   1
   0  -6  -1 165.270 15.9500   1
   0  -6  -1 188.740 22.9500   1
  -2  -6   1 -2.1700 2.17000   1
   2   6  -1 0.55000 1.11000   1
  -2  -6   1 0.45000 1.29000   1
  -2  -6   1 -0.0100 1.54000   1
  -2  -6   1 -0.2900 0.98000   1
   0   2 -11 101.450 10.1400   1
   0  -2  11 77.8700 13.4400   1
   0   2 -11 81.6100 7.02000   1
   0   2 -11 90.2700 10.4700   1
   0   2 -11 83.9500 9.72000   1
   3   6   5 6.13000 4.21000   1
   3   6   5 5.79000 4.72000   1
  -3  -6  -5 6.49000 2.02000   1
  -5  -1   7 -0.4200 1.37000   1
   5   1  -7 0.09000 3.51000   1
   2  -5   0 7.43000 1.96000   1
   2  -5   0 5.09000 7.93000   1
  -2   5   0 -0.5900 1.94000   1
   2  -5   0 6.09000 1.08000   1
   3   5   9 70.1300 7.66000   1
   3   5   9 48.9100 6.91000   1
   3   5   9 60.5600 8.10000   1
   2   5  10 0.90000 3.34000   1
   2   5  10 2.34000 2.12000   1
   2   5  10 2.85000 2.33000   1
   4   5   7 4.39000 3.70000   1
   4   5   7 4.78000 3.39000   1
   4   5   7 4.43000 3.02000   1
   5   4  -3 1.64000 3.18000   1
  -5  -4   3 0.32000 2.93000   1
   5   3   7 61.4700 7.46000   1
   5   3   7 53.9500 7.76000   1
  -1  -6   1 70.1700 6.98000   1
  -1  -6   1 80.6900 11.7500   1
  -1  -6   1 69.3900 9.74000   1
  -1  -6   1 77.7100 7.91000   1
  -1  -2 -13 49.2400 5.39000   1
   1   2  13 29.0800 4.70000   1
   1   2  13 46.3400 3.82000   1
   1   2  13 45.8100 5.17000   1
  -1  -2 -13 70.0000 6.86000   1
  -1  -6  -7 1292.94 141.580   1
  -1  -6  -7 1435.72 151.680   1
   1   6   7 1607.18 168.810   1
   1   6   7 1410.50 185.490   1
   1   6   7 1547.58 162.370   1
   5   0  -7 9.06000 3.19000   1
  -5   0   7 2.63000 3.32000   1
  -5   0   7 1.12000 2.19000   1
   5   0  -7 11.6600 4.12000   1
   5  -1  -6 155.990 16.7500   1
   5  -1  -6 159.090 14.4700   1
   5  -1  -6 159.670 15.4500   1
  -5   1   6 121.810 12.9800   1
  -5   1   6 131.060 14.8400   1
   1   4  -8 1.72000 8.40000   1
  -1  -4   8 6.86000 2.39000   1
  -1  -4   8 4.58000 6.19000   1
  -1  -4   8 3.62000 2.35000   1
   1   4  -8 4.87000 3.76000   1
   1   4  -8 5.84000 1.56000   1
   4  -3  -6 37.5100 3.32000   1
   4  -3  -6 55.6900 6.33000   1
   4  -3  -6 46.2600 4.54000   1
   4  -3  -6 58.0700 7.94000   1
   1  -1 -13 50.8800 6.28000   1
   1  -1 -13 57.5400 7.88000   1
   1  -1 -13 41.5500 5.03000   1
  -2   4  -5 14.2200 3.09000   1
  -2   4  -5 12.9800 2.19000   1
   2  -4   5 11.3200 11.3500   1
   0   5  10 144.810 14.5300   1
   0  -5 -10 67.0400 13.2100   1
   0   5  10 139.400 14.0800   1
  -2   5   6 64.4400 9.00000   1
   2  -5  -6 112.750 14.7600   1
   2  -5  -6 61.1300 7.55000   1
   4   5  -3 63.0800 8.12000   1
  -4  -5   3 53.4600 7.48000   1
  -4  -5   3 56.4900 7.60000   1
  -3  -3   9 1.06000 2.32000   1
   3   3  -9 0.76000 2.61000   1
   3   3  -9 1.49000 3.25000   1
   3   3  -9 -0.2900 2.28000   1
   3   3  -9 1.77000 4.80000   1
  -3  -6   0 0.07000 1.71000   1
  -3  -6   0 -0.2900 1.38000   1
  -3  -6   0 -1.3300 1.99000   1
   3   6   0 0.82000 1.67000   1
  -2  -6  -7 0.56000 1.55000   1
   2   6   7 -0.0800 4.22000   1
   2   6   7 1.18000 2.59000   1
   2   6   7 1.33000 2.33000   1
   3   1 -11 37.4000 7.09000   1
   3   1 -11 30.5700 6.87000   1
   3   1 -11 38.7500 5.88000   1
   3   1 -11 33.9300 4.26000   1
   3   1 -11 35.3100 7.16000   1
   3  -4   2 53.5600 4.45000   1
   3  -4   2 44.4100 14.3000   1
  -3   4  -2 43.7700 3.87000   1
   3  -4  -7 8.42000 2.41000   1
   3  -4  -7 5.19000 1.66000   1
   3  -4  -7 2.15000 7.48000   1
   4   4   9 49.0300 5.84000   1
   4   4   9 41.9400 6.88000   1
   5   4   6 62.2600 8.49000   1
   5   4   6 55.6900 8.53000   1
   2   2 -11 267.850 24.6200   1
   2   2 -11 242.650 29.3500   1
   2   2 -11 271.550 26.4200   1
  -2  -2  11 227.400 24.7100   1
   2   2 -11 264.250 25.8000   1
   2   2 -11 316.540 30.1400   1
   4  -3   2 39.2400 19.5800   1
   4  -3   2 55.3200 5.49000   1
   1   1  13 5.42000 4.78000   1
  -1  -1 -13 7.65000 1.85000   1
  -1  -1 -13 9.18000 2.76000   1
  -1  -1 -13 5.32000 1.57000   1
  -1  -1 -13 3.30000 2.97000   1
   0   6   6 -0.2700 1.49000   1
   0  -6  -6 -0.2000 0.96000   1
   0   6   6 0.78000 6.69000   1
   0  -6  -6 2.16000 1.91000   1
   0   6   6 -0.1700 1.47000   1
   1   4  12 353.570 31.3500   1
   1   4  12 207.850 21.1600   1
   1   4  12 321.210 29.7000   1
  -1  -4 -12 155.240 23.7900   1
   2   4  -8 39.3700 6.51000   1
   2   4  -8 34.6600 12.6200   1
  -2  -4   8 35.6700 7.47000   1
   2   4  -8 43.7000 5.68000   1
   4   4  -6 37.8500 6.26000   1
  -4  -4   6 32.3900 6.36000   1
  -6  -2   0 17.5000 3.81000   1
   6   2   0 16.2000 4.34000   1
  -1   5   9 3.60000 2.87000   1
   1  -5  -9 8.50000 2.91000   1
  -1   3  -9 11.7300 3.10000   1
  -1   3  -9 10.8700 2.16000   1
   1  -3   9 19.4100 7.82000   1
  -1   3  -9 12.8500 3.95000   1
  -1   3  -9 9.59000 1.03000   1
  -3   2  -8 0.25000 1.28000   1
  -3   2  -8 0.18000 0.92000   1
  -3   2  -8 0.10000 1.46000   1
  -3   2  -8 0.24000 1.80000   1
   3  -2   8 14.9800 9.84000   1
   6   2   1 144.490 15.5000   1
  -6  -2  -1 87.1400 10.3500   1
   6   2   1 95.9900 11.1700   1
  -5   2   2 6.83000 2.11000   1
   5  -2  -2 6.15000 1.61000   1
   5  -2  -2 4.54000 1.39000   1
   5  -2  -2 9.01000 2.75000   1
   4   2  -9 123.450 14.5200   1
   4   2  -9 131.950 13.7700   1
   4   2  -9 115.360 13.8100   1
   4   2  -9 115.360 13.8900   1
   1  -2 -13 0.81000 2.79000   1
   1  -2 -13 0.38000 2.18000   1
   1  -2 -13 0.95000 1.36000   1
   5  -2  -1 6.78000 1.56000   1
   5  -2  -1 3.48000 1.14000   1
   5  -2  -1 8.88000 2.46000   1
  -5   2   1 4.79000 1.72000   1
  -5   2   1 3.26000 0.84000   1
  -4  -2 -10 284.310 28.6200   1
   4   2  10 303.900 26.4000   1
   4   2  10 260.100 25.4600   1
   5   1   7 147.140 21.5600   1
   5   1   7 211.140 20.2200   1
  -5  -1  -7 205.470 21.2300   1
   1   3 -10 6.46000 9.53000   1
   1   3 -10 7.27000 3.40000   1
   1   3 -10 8.37000 3.56000   1
  -1  -3  10 4.97000 5.12000   1
   1   3 -10 8.56000 2.71000   1
   0  -5   5 42.7500 11.1100   1
   0  -5   5 30.6600 3.94000   1
   0  -5   5 28.2200 3.29000   1
   0  -6   0 188.950 22.9400   1
   0  -6   0 178.620 17.3000   1
   0  -6   0 166.880 14.9000   1
   0  -6   0 172.730 18.6200   1
   0   6   0 211.540 19.4000   1
  -6  -2   1 56.2600 6.56000   1
  -6  -2   1 78.4300 9.41000   1
   6   2  -1 69.8500 8.87000   1
   6   1   0 11.7300 3.60000   1
   6   1   0 10.5800 4.21000   1
  -6  -1   0 12.7400 3.57000   1
   3   6   6 99.6700 12.3200   1
  -3  -6  -6 68.3400 7.95000   1
   3   6   6 75.1600 11.2000   1
   5  -1   4 227.420 21.3700   1
  -5   1  -4 220.730 22.8300   1
   5  -1   4 202.200 18.6200   1
   5  -1   4 241.450 19.9600   1
   3  -2 -11 7.28000 1.79000   1
   3  -2 -11 5.59000 3.08000   1
   3  -2 -11 8.55000 2.79000   1
   3  -2 -11 6.83000 1.15000   1
   3  -2 -11 10.3400 3.50000   1
   5  -2  -3 53.6500 6.07000   1
  -5   2   3 52.7100 6.06000   1
   5  -2  -3 49.1200 4.46000   1
   2  -4 -10 327.800 32.9100   1
  -2   4  10 291.610 29.7600   1
   2  -4 -10 358.370 32.7800   1
   2  -4 -10 293.730 34.8300   1
   2  -4 -10 260.010 28.7600   1
   3   5  -5 202.010 19.0100   1
  -3  -5   5 212.560 21.2500   1
  -3  -5   5 185.710 19.8200   1
  -3  -5   5 213.440 23.4700   1
   2  -1  11 32.9500 14.9600   1
  -2   1 -11 25.8500 3.92000   1
  -2   1 -11 29.9500 3.44000   1
  -2   1 -11 35.0300 5.64000   1
  -2   1 -11 28.8800 5.45000   1
   0   4  12 4.39000 3.61000   1
   0   4  12 7.79000 2.65000   1
   0  -4 -12 1.46000 1.91000   1
   6   1  -1 16.5700 4.40000   1
  -6  -1   1 14.5500 3.86000   1
  -6  -1   1 11.2800 3.10000   1
   4   0 -10 71.0000 7.93000   1
   4   0 -10 69.1600 8.97000   1
   4   0 -10 58.9100 8.89000   1
   4   0 -10 57.3000 6.40000   1
  -4   0  10 60.6500 6.48000   1
  -5   0  -6 47.4800 6.16000   1
   5   0   6 33.6500 6.59000   1
   5   0   6 64.9100 6.63000   1
   0   0 -13 0.59000 2.17000   1
   0   0  13 1.10000 1.94000   1
   0   0 -13 0.77000 2.82000   1
   0   0 -13 0.99000 1.11000   1
   2   1 -12 -0.5200 1.85000   1
   2   1 -12 0.30000 3.99000   1
   2   1 -12 -0.3800 2.20000   1
   2   1 -12 0.28000 1.20000   1
   2   1 -12 -1.8600 2.61000   1
   6   2   2 12.9700 5.08000   1
   6   2   2 18.1200 4.48000   1
   4   3  10 42.1100 5.93000   1
   4   3  10 44.8800 5.42000   1
   2  -5   1 -0.6700 4.50000   1
  -2   5  -1 0.44000 0.54000   1
  -2   5  -1 -0.6200 1.04000   1
   5  -2   0 9.67000 2.82000   1
   5  -2   0 5.20000 1.47000   1
   5  -2   0 3.91000 1.19000   1
  -5   2   0 6.73000 1.79000   1
  -5   2   0 3.35000 1.11000   1
  -6  -1  -1 15.1200 4.11000   1
  -6  -1  -1 16.2600 4.52000   1
   6   1   1 24.1400 4.80000   1
   6   1   1 21.1400 4.67000   1
   4   3  -8 22.4400 5.06000   1
   4   3  -8 16.0900 6.23000   1
  -1   4  -7 60.9400 7.41000   1
   1  -4   7 60.3200 15.2100   1
  -1   4  -7 55.5400 5.80000   1
   0  -3 -13 31.7900 4.41000   1
   0   3  13 43.9400 5.26000   1
  -3   3  -6 568.080 52.4800   1
   3  -3   6 563.830 79.5600   1
  -3   3  -6 380.120 56.0000   1
   1   0 -13 139.450 16.3500   1
   1   0 -13 221.030 22.0200   1
   1   0 -13 238.570 21.8600   1
   2   0  12 111.960 21.2300   1
  -2   0 -12 101.110 11.6000   1
  -2   0 -12 117.890 10.9900   1
   5   2  -7 15.8800 4.75000   1
   5   2  -7 6.55000 3.45000   1
  -5  -2   7 9.04000 3.06000   1
  -4   0  -9 20.2800 3.55000   1
  -4   0  -9 8.69000 3.49000   1
   4   0   9 12.7000 1.49000   1
   4   0   9 17.3200 3.89000   1
   1   3  13 7.24000 3.91000   1
  -1  -3 -13 7.42000 1.82000   1
   1   3  13 7.73000 2.44000   1
  -6  -1   2 415.550 42.8900   1
  -6  -1   2 383.210 37.4600   1
   6   1  -2 411.810 41.2100   1
   3  -3 -10 17.6700 3.23000   1
   3  -3 -10 23.9400 4.74000   1
   3  -3 -10 20.6600 5.92000   1
   5   5   2 68.5100 9.66000   1
   6   2  -2 112.570 12.4800   1
  -6  -2   2 95.2800 10.4000   1
  -2  -6   2 5.51000 3.94000   1
  -2  -6   2 2.90000 2.00000   1
  -2  -6   2 2.62000 1.79000   1
   2   6  -2 1.93000 1.70000   1
  -2   3  -8 2.53000 2.28000   1
  -2   3  -8 0.57000 1.37000   1
   2  -3   8 -4.1000 9.08000   1
  -2   3  -8 1.03000 1.56000   1
   3   6  -1 7.73000 2.70000   1
  -3  -6   1 4.27000 2.32000   1
  -3  -6   1 3.17000 2.07000   1
  -3  -6   1 5.08000 2.88000   1
  -3  -6   1 2.15000 2.83000   1
   2  -5  -7 45.3800 6.28000   1
   2  -5  -7 53.4700 8.35000   1
  -2   5   7 54.6300 7.35000   1
   2   3 -10 6.39000 3.70000   1
  -2  -3  10 4.23000 2.76000   1
  -2  -3  10 5.57000 4.04000   1
   2   3 -10 4.37000 3.22000   1
   2   3 -10 6.78000 4.05000   1
   2   3 -10 2.30000 7.86000   1
   3   4  11 121.740 11.7500   1
   3   4  11 97.8900 11.1400   1
   3   4  11 120.710 12.2000   1
   0  -4   8 6.25000 7.28000   1
   0   4  -8 8.94000 3.64000   1
   0   4  -8 8.95000 2.55000   1
   4  -2  -9 25.3500 2.97000   1
   4  -2  -9 28.6100 3.81000   1
   4  -2  -9 25.8400 4.18000   1
   4  -2  -9 26.9400 6.67000   1
   5  -2  -4 35.8000 3.68000   1
   5  -2  -4 31.4000 3.93000   1
  -5   2   4 30.4200 4.41000   1
   5  -2  -4 35.2400 6.04000   1
   5   5   1 14.9600 4.39000   1
  -1   1 -12 40.7800 4.29000   1
  -1   1 -12 38.3300 6.80000   1
  -1   1 -12 37.9300 6.43000   1
  -1   1 -12 33.7800 3.34000   1
   5   5   3 1.86000 3.12000   1
   5   5   3 -0.5200 3.17000   1
   1  -5   4 137.330 24.7700   1
  -1   5  -4 137.960 11.6800   1
  -1  -6   2 49.7800 4.99000   1
  -1  -6   2 63.6400 11.4700   1
  -1  -6   2 54.5600 7.33000   1
  -1  -6   2 59.8100 7.11000   1
   0   6   7 1.45000 6.28000   1
   0   6   7 -0.3800 1.59000   1
   0   6   7 -1.8900 2.16000   1
   0  -6  -7 0.19000 1.99000   1
   0  -6  -7 0.23000 1.03000   1
   4  -3  -7 -0.2900 0.98000   1
   4  -3  -7 1.45000 2.86000   1
   4  -3  -7 0.33000 0.59000   1
   4  -3  -7 0.38000 1.67000   1
  -1  -6  -8 24.4100 4.19000   1
   1   6   8 29.6900 9.80000   1
   1   6   8 12.5100 5.10000   1
   1   6   8 27.2200 5.77000   1
  -1  -6  -8 19.2200 3.41000   1
   6   3   1 460.670 45.9800   1
   4   1 -10 55.8100 9.20000   1
   4   1 -10 60.6100 7.85000   1
  -4  -1  10 57.7700 6.82000   1
   4   1 -10 50.0100 7.72000   1
   4   1 -10 55.1700 7.27000   1
   0  -3  10 45.5300 10.8100   1
   0   3 -10 37.0900 5.50000   1
   0   3 -10 38.3500 4.33000   1
   0   3 -10 36.8900 5.54000   1
   0   3 -10 36.3200 3.36000   1
   5   3  -6 202.870 21.9200   1
   5   3  -6 172.130 19.9200   1
  -6  -1  -2 13.0000 4.21000   1
   6   1   2 16.4300 4.64000   1
   6   1   2 17.6100 3.72000   1
  -6  -1  -2 13.2500 3.72000   1
   4  -1 -10 122.260 13.4600   1
   4  -1 -10 101.800 14.1100   1
   4  -1 -10 125.600 12.3300   1
   6   3   0 106.830 12.7100   1
   1   5  -6 20.2100 1.94000   1
  -1  -5   6 21.3800 7.61000   1
  -1  -5   6 25.1400 3.98000   1
  -1  -5   6 26.0000 4.05000   1
   2   4  12 58.6600 7.89000   1
   2   4  12 56.4800 6.15000   1
   2   4  12 50.3000 5.58000   1
   2   5  -6 157.770 13.6900   1
  -2  -5   6 140.800 19.3200   1
  -2  -5   6 127.070 14.0000   1
   6   2   3 0.05000 2.89000   1
   6   2   3 1.41000 2.14000   1
   2   6   8 29.6200 6.20000   1
   2   6   8 33.3300 5.58000   1
   2   6   8 26.2400 7.64000   1
   5  -2   1 206.220 18.4500   1
  -5   2  -1 139.840 12.3000   1
   5  -2   1 194.400 17.2000   1
   5  -2   1 137.720 11.7700   1
   4   5   8 191.270 19.1000   1
   4   5   8 178.750 20.4200   1
   4   5   8 206.200 19.8500   1
   4   1  10 278.870 28.2200   1
   4   1  10 224.550 23.7600   1
  -4  -1 -10 297.560 28.9900   1
   5  -1  -7 9.14000 3.68000   1
  -5   1   7 10.8500 3.55000   1
  -5   1   7 9.47000 2.28000   1
   5  -1  -7 9.86000 3.69000   1
   6   3   2 1.81000 3.31000   1
   6   3   2 0.73000 3.00000   1
   4  -2   6 59.1800 5.15000   1
  -4   2  -6 58.5000 6.15000   1
  -4   2  -6 55.9100 6.59000   1
  -4   2  -6 33.0700 6.27000   1
   5   5   0 4.99000 3.43000   1
   1   5  11 25.6900 4.38000   1
  -1  -5 -11 12.6200 3.95000   1
   1   5  11 28.2000 4.79000   1
   1   5  11 22.9700 6.35000   1
   0   6  -1 80.4400 8.12000   1
   0  -6   1 66.2500 6.85000   1
   0  -6   1 78.1300 12.3100   1
   0  -6   1 54.8000 5.15000   1
   0  -6   1 56.5000 6.17000   1
  -3   0 -11 35.6500 4.21000   1
   5   2   8 14.6800 3.86000   1
   5   2   8 11.9300 3.67000   1
  -5  -2  -8 9.87000 3.13000   1
  -4   3  -3 56.4700 5.71000   1
   4  -3   3 101.470 8.26000   1
   4  -3   3 84.6100 28.9200   1
  -3   4  -3 235.730 20.5300   1
  -3   4  -3 240.270 20.7200   1
   3  -4   3 219.470 33.8000   1
   3  -4  -8 17.7400 3.50000   1
   3  -4  -8 12.0500 1.68000   1
   3  -4  -8 14.0000 1.89000   1
   3  -4  -8 18.1400 7.60000   1
   6   1  -3 26.6300 5.44000   1
  -6  -1   3 16.3500 3.88000   1
  -6  -1   3 17.5200 4.58000   1
   5   5   4 7.54000 4.36000   1
   5   5   4 6.26000 4.02000   1
  -2   2 -10 3.67000 2.84000   1
  -2   2 -10 0.06000 1.41000   1
  -2   2 -10 0.51000 2.37000   1
   2  -2  10 -3.9800 9.46000   1
  -2   2 -10 3.08000 0.93000   1
   5   4   7 -2.0700 2.46000   1
   5   4   7 -0.5600 2.82000   1
   4   5  -4 -0.2800 1.95000   1
  -4  -5   4 0.42000 2.00000   1
   3   6   7 15.6200 3.79000   1
   3   6   7 11.1400 4.67000   1
   1  -2  11 28.2700 9.97000   1
  -1   2 -11 18.1800 1.95000   1
  -1   2 -11 21.4600 2.53000   1
  -1   2 -11 19.8600 4.22000   1
  -1   2 -11 25.4500 4.95000   1
   6   3  -1 6.74000 3.78000   1
  -3   1 -10 1.89000 1.93000   1
   3  -1  10 1.86000 8.32000   1
  -3   1 -10 3.77000 2.76000   1
  -4   1  -8 87.3100 8.13000   1
   4  -1   8 83.6900 9.64000   1
  -4   1  -8 51.8300 9.15000   1
   3   2  12 -0.1900 0.87000   1
   3   2  12 0.23000 1.44000   1
  -3  -2 -12 0.41000 1.29000   1
  -6  -2   3 152.950 15.5700   1
   6   2  -3 173.490 18.4700   1
   5   3   8 63.0200 8.44000   1
   5   3   8 48.4900 7.56000   1
   2   2  13 17.3800 4.36000   1
  -2  -2 -13 39.4300 4.70000   1
   2   2  13 36.6200 5.49000   1
   4   6   3 30.8900 5.79000   1
   5   1  -8 131.800 13.4200   1
   5   1  -8 139.890 14.6300   1
   5   1  -8 142.460 16.9600   1
  -5  -1   8 142.770 14.4500   1
  -5   2   5 8.73000 2.46000   1
   5  -2  -5 6.24000 1.70000   1
   5  -2  -5 12.8600 3.99000   1
   4   6   2 40.6400 6.49000   1
  -4  -6  -2 28.5500 4.79000   1
  -1   0 -13 132.820 12.4900   1
  -1   0 -13 138.630 15.0800   1
  -1   0 -13 133.450 14.0100   1
   1   0  13 130.420 17.9900   1
  -1   0 -13 106.940 9.56000   1
  -5   0   8 23.8000 3.83000   1
   5   0  -8 27.3200 5.08000   1
   5   0  -8 30.0600 4.80000   1
   2  -3 -12 24.1500 4.08000   1
   2  -3 -12 15.0200 3.28000   1
   2  -3 -12 34.0100 5.93000   1
   3   5  10 8.85000 3.14000   1
   3   5  10 7.54000 4.14000   1
   3   5  10 8.85000 2.87000   1
   1  -6  -3 12.7300 2.08000   1
   1  -6  -3 15.1000 2.08000   1
  -1   6   3 18.5700 3.69000   1
  -1   6   3 12.0400 1.95000   1
   1  -6  -3 34.2900 7.32000   1
   2  -1 -13 9.47000 4.21000   1
   2  -1 -13 9.26000 3.68000   1
   6   3   3 74.4300 8.97000   1
   6   3   3 81.2600 11.5200   1
  -3  -4   8 655.740 64.6400   1
   3   4  -8 605.880 59.6800   1
   3   4  -8 428.810 67.2200   1
  -3  -4   8 560.240 57.0600   1
  -2   5  -2 19.3700 2.08000   1
  -2   5  -2 10.0500 2.10000   1
   1  -6  -4 1.32000 3.99000   1
   1  -6  -4 0.29000 0.88000   1
   1  -6  -4 0.45000 0.93000   1
  -1   6   4 0.19000 0.77000   1
  -1   6   4 2.63000 1.74000   1
  -6   0   1 20.3900 3.86000   1
   6   0  -1 31.2200 5.73000   1
   6   0  -1 25.4000 5.42000   1
  -6   0   1 28.9600 4.90000   1
   3   0 -12 37.7200 7.35000   1
   3   0 -12 41.2000 6.26000   1
   3   0 -12 41.3300 6.35000   1
   3   0 -12 26.0200 5.66000   1
   3  -1 -12 3.06000 1.56000   1
   3  -1 -12 7.97000 2.81000   1
   3  -1 -12 9.74000 2.87000   1
   3  -1 -12 2.17000 1.70000   1
   6   1   3 60.2700 7.34000   1
   6   1   3 62.6100 7.65000   1
  -6  -1  -3 57.2000 8.30000   1
   4   6   4 28.5000 7.13000   1
   4   6   4 33.7000 6.01000   1
   3   3  12 1.56000 2.89000   1
   3   3  12 2.42000 1.54000   1
  -6   0   0 0.10000 1.87000   1
  -6   0   0 0.33000 3.39000   1
   6   0   0 0.32000 2.15000   1
   6   0   0 0.95000 1.73000   1
  -1   6   2 5.10000 1.52000   1
   1  -6  -2 7.90000 5.77000   1
   1  -6  -2 5.51000 1.24000   1
  -1   6   2 8.84000 2.35000   1
   1  -6  -2 2.66000 1.38000   1
   2   5  11 4.78000 3.43000   1
   2   5  11 4.97000 2.72000   1
   2   5  11 12.1900 2.90000   1
   5   5  -1 -0.4800 2.83000   1
   1  -3 -13 2.82000 1.72000   1
   1  -3 -13 10.6400 2.87000   1
  -1   3  13 7.14000 2.24000   1
   1  -3 -13 11.5400 3.54000   1
  -4  -6  -1 138.530 14.6200   1
   4   6   1 162.080 16.1400   1
   3   6  -2 1.08000 1.86000   1
  -3  -6   2 0.18000 3.58000   1
  -3  -6   2 0.52000 2.06000   1
   5  -1   5 4.36000 2.09000   1
   5  -1   5 7.14000 2.25000   1
   5  -1   5 8.34000 1.02000   1
  -5   1  -5 4.85000 3.18000   1
   1  -5 -10 1.34000 1.54000   1
  -1   5  10 0.79000 2.01000   1
   1  -5 -10 0.09000 1.55000   1
  -2   4  -6 29.4400 3.56000   1
  -2   4  -6 28.8800 4.41000   1
   2  -4   6 39.2100 15.0100   1
   0   5  11 1.21000 1.77000   1
   0   5  11 -0.5900 2.10000   1
  -6   0   2 70.4500 7.81000   1
  -6   0   2 75.6400 8.75000   1
   6   0  -2 93.7800 10.3000   1
   6   2   4 159.050 17.3700   1
   6   2   4 157.050 16.9400   1
   6   3  -2 105.440 12.6400   1
   5   5   5 56.6100 9.96000   1
   5   5   5 70.0900 9.01000   1
   5  -2   2 0.28000 0.66000   1
   5  -2   2 0.45000 1.28000   1
   5  -2   2 -0.2000 0.52000   1
   1  -4 -12 0.01000 1.25000   1
  -1   4  12 0.17000 1.28000   1
   1  -4 -12 -0.3000 1.09000   1
   1  -4 -12 0.15000 1.61000   1
  -2   5   8 16.9700 4.28000   1
   2  -5  -8 19.0000 5.21000   1
   2  -5  -8 17.1600 3.62000   1
   1  -6  -5 71.8500 7.82000   1
  -1   6   5 98.2500 10.0500   1
   1  -6  -5 112.420 14.8700   1
   4   4  10 23.5300 3.57000   1
   4   4  10 14.1800 5.84000   1
   2   3  13 0.83000 1.28000   1
   2   3  13 0.25000 1.88000   1
   2   3  13 0.59000 0.89000   1
   0   6   8 107.360 23.0100   1
   0  -6  -8 139.590 13.5200   1
   0   6   8 188.850 17.9700   1
   0   6   8 162.570 15.9600   1
   0  -6  -8 166.890 18.0100   1
   6   1  -4 38.6000 6.03000   1
  -6  -1   4 31.4500 4.92000   1
   2   0 -13 13.3100 3.70000   1
   2   0 -13 8.72000 4.51000   1
  -2  -6   3 0.76000 1.85000   1
  -2  -6   3 1.12000 2.68000   1
   2   6  -3 2.90000 1.43000   1
  -2  -6   3 1.11000 2.24000   1
  -2  -6   3 5.98000 5.13000   1
  -2  -1 -13 6.92000 2.25000   1
   2   1  13 3.85000 1.84000   1
   2   1  13 2.66000 8.12000   1
   6   0   1 97.8400 17.1400   1
   6   0   1 189.380 18.1200   1
  -6   0  -1 154.360 15.3800   1
  -6   0  -1 158.550 16.8400   1
   4   4  -7 0.25000 4.79000   1
   4   4  -7 1.03000 2.87000   1
   3   2 -11 24.4800 8.41000   1
   3   2 -11 27.8200 5.68000   1
   3   2 -11 30.2000 5.38000   1
   3   2 -11 25.3800 5.94000   1
   5   1   8 5.73000 1.31000   1
  -5  -1  -8 9.15000 3.03000   1
   5   1   8 3.01000 2.75000   1
   5   1   8 7.42000 2.50000   1
  -3  -1 -12 50.4600 5.62000   1
   3   1  12 39.5900 5.76000   1
   3   1  12 35.5900 4.84000   1
   4   6   5 17.8800 5.09000   1
   4   6   5 15.8500 4.78000   1
   1  -6  -1 0.00000 0.71000   1
   1  -6  -1 0.27000 0.91000   1
   1  -6  -1 0.15000 0.76000   1
  -1   6   1 0.57000 1.31000   1
   1  -6  -1 1.00000 4.24000   1
   5   0   7 4.10000 2.29000   1
   5   0   7 5.30000 0.88000   1
   5   0   7 4.20000 2.24000   1
  -5   0  -7 2.94000 2.66000   1
  -6   0   3 0.08000 1.50000   1
  -6   0   3 0.53000 1.98000   1
   6   0  -3 0.24000 2.37000   1
   4  -3  -8 76.7000 8.53000   1
   4  -3  -8 83.9100 10.5300   1
   4  -3  -8 52.9100 5.40000   1
   4  -3  -8 49.9600 16.5000   1
  -1  -6   3 29.6000 3.44000   1
  -1  -6   3 37.3000 5.29000   1
  -1  -6   3 34.3700 5.01000   1
  -1  -6   3 45.9600 10.8300   1
   0  -5   6 24.7300 3.56000   1
   0   5  -6 31.2800 5.40000   1
   0  -5   6 27.3900 8.71000   1
   6   3   4 2.46000 2.74000   1
   6   3   4 7.30000 3.50000   1
   4   6   0 126.550 13.7900   1
  -3  -5   6 24.8800 4.77000   1
   3   5  -6 32.9100 4.98000   1
  -3  -5   6 26.9900 6.75000   1
  -3  -5   6 24.3700 4.61000   1
   2  -2 -13 8.17000 2.68000   1
   2  -2 -13 15.2000 4.12000   1
   2  -2 -13 7.40000 2.12000   1
   1   6   9 5.27000 5.75000   1
   1   6   9 -1.2000 1.99000   1
   1   6   9 -0.3200 1.85000   1
  -6  -2   4 247.910 24.7500   1
  -1  -2  12 1.88000 3.51000   1
   1   2 -12 7.61000 3.58000   1
   1   2 -12 5.03000 1.68000   1
   1   2 -12 3.82000 3.34000   1
   1   2 -12 9.25000 3.24000   1
   0  -6   2 23.0300 6.37000   1
   0   6  -2 20.2900 3.48000   1
   0  -6   2 18.2300 3.19000   1
   2  -4 -11 0.65000 1.27000   1
   2  -4 -11 3.38000 2.57000   1
  -2   4  11 0.09000 2.38000   1
   2  -4 -11 0.87000 1.23000   1
   2  -4 -11 0.39000 1.61000   1
  -1  -4   9 4.76000 5.74000   1
   1   4  -9 3.87000 1.52000   1
   1   4  -9 4.15000 3.12000   1
   1   4  -9 1.53000 10.6800   1
   1   4  -9 4.89000 2.90000   1
   5  -2  -6 246.880 25.2500   1
   5  -2  -6 311.820 28.5300   1
   5  -2  -6 248.780 24.8400   1
   5   4  -5 1.32000 2.77000   1
   3   6   8 8.26000 4.54000   1
   3   6   8 12.2300 3.02000   1
   3   6   8 4.88000 4.57000   1
   1  -6  -6 20.8500 5.20000   1
  -1   6   6 10.1800 1.88000   1
  -1   6   6 13.1900 3.59000   1
   1  -6  -6 12.6300 2.17000   1
   0  -2 -14 56.6700 7.29000   1
   0  -2 -14 51.2100 8.43000   1
   2   6   9 2.63000 2.32000   1
   2   6   9 1.42000 2.85000   1
   2   6   9 1.15000 5.67000   1
   3   3 -10 20.6700 9.59000   1
   3   3 -10 20.0200 5.04000   1
   3   3 -10 30.6100 4.83000   1
   3   3 -10 29.5700 5.42000   1
  -1  -1  13 0.13000 1.64000   1
   1   1 -13 0.22000 0.94000   1
   1   1 -13 0.25000 2.07000   1
   1   1 -13 0.74000 2.44000   1
   0  -1 -14 10.4500 3.39000   1
   0  -1 -14 7.83000 2.87000   1
   0  -1 -14 3.34000 1.59000   1
   5   2  -8 3.54000 3.36000   1
   5   5  -2 0.93000 3.18000   1
  -4   3  -4 20.8700 2.84000   1
   4  -3   4 21.9600 2.33000   1
   4  -3   4 25.4200 19.5200   1
  -4   3  -4 13.8300 2.66000   1
  -3   2  -9 15.1100 2.08000   1
  -3   2  -9 18.3500 3.40000   1
  -3   2  -9 23.7900 4.58000   1
   3  -2   9 38.3700 14.5800   1
  -3   2  -9 13.5700 3.39000   1
  -6  -1  -4 7.91000 4.20000   1
   6   1   4 13.4000 3.74000   1
   6   1   4 9.07000 3.02000   1
   6   0   2 1.35000 2.02000   1
  -6   0  -2 1.85000 2.25000   1
  -6   0  -2 2.21000 3.41000   1
   6   0   2 0.76000 2.39000   1
  -2  -4   9 62.3700 7.45000   1
   2   4  -9 73.8100 9.55000   1
   2   4  -9 71.3400 7.71000   1
   2   4  -9 63.7800 7.23000   1
   2   4  -9 52.4300 17.2800   1
  -2  -4   9 57.4900 10.5600   1
   4   2 -10 63.9900 9.45000   1
   4   2 -10 69.6300 8.84000   1
   4   2 -10 47.1200 8.32000   1
   4   2 -10 69.4400 7.88000   1
   6   3  -3 104.500 13.0000   1
   1  -5   5 1.84000 7.12000   1
  -1   5  -5 1.56000 1.55000   1
  -1   5  -5 6.77000 2.04000   1
  -1   5  -5 1.75000 1.11000   1
   5  -1  -8 17.6800 5.65000   1
   5  -1  -8 17.7500 4.00000   1
  -5   1   8 16.2700 3.10000   1
  -5   1   8 13.4400 4.45000   1
   4   5   9 0.22000 2.41000   1
   4   5   9 -0.9000 2.20000   1
   4   5   9 0.09000 1.66000   1
  -3   4  -4 201.160 18.9600   1
  -3   4  -4 226.400 19.5200   1
   3  -4   4 212.390 35.1200   1
   3  -4  -9 40.7200 4.41000   1
   3  -4  -9 36.5800 4.26000   1
   3  -4  -9 43.0900 8.44000   1
   3  -4  -9 45.0200 6.22000   1
   0   1 -13 66.5500 9.49000   1
   0   1 -13 65.7100 8.04000   1
   0  -1  13 60.5400 9.40000   1
   0   1 -13 52.9600 5.19000   1
   1   4  13 2.18000 2.15000   1
   1   4  13 1.68000 1.72000   1
   3  -3   7 11.1800 13.4600   1
  -3   3  -7 8.49000 2.65000   1
  -3   3  -7 12.2100 3.26000   1
   4   2  11 135.810 13.8800   1
   4   2  11 110.900 13.1400   1
  -4  -2 -11 153.400 15.4600   1
   0   2 -12 2.89000 2.37000   1
   0   2 -12 -0.0200 0.83000   1
   0  -2  12 -1.2200 4.01000   1
   0   2 -12 3.21000 2.19000   1
   0   2 -12 0.61000 2.21000   1
   4  -2 -10 -0.0800 2.43000   1
   4  -2 -10 0.79000 3.68000   1
   4  -2 -10 1.12000 1.02000   1
   4  -2 -10 0.65000 1.71000   1
   5   5   6 5.82000 4.09000   1
   5   5   6 6.77000 3.75000   1
   5   4   8 1.48000 2.34000   1
   5   4   8 2.77000 2.83000   1
   5   3  -7 1.45000 4.06000   1
   5   3  -7 6.65000 4.31000   1
   3  -3 -11 9.10000 2.94000   1
   3  -3 -11 12.2100 2.12000   1
   3  -3 -11 13.1300 3.36000   1
   3   1 -12 7.55000 3.78000   1
   3   1 -12 14.5900 3.60000   1
   3   1 -12 3.12000 5.15000   1
   3   1 -12 10.5400 4.91000   1
   3  -2 -12 61.4900 7.27000   1
   3  -2 -12 49.8100 7.34000   1
   3  -2 -12 47.0600 5.11000   1
  -1   6   0 56.5000 6.27000   1
   1  -6   0 57.5700 10.2700   1
   1  -6   0 35.6200 3.32000   1
   1  -6   0 37.1300 4.15000   1
   4   3  11 0.68000 1.60000   1
   4   3  11 0.09000 1.03000   1
   4   0 -11 -0.8300 2.07000   1
  -4   0  11 0.00000 1.62000   1
   4   0 -11 -0.5000 1.87000   1
   4   0 -11 -0.0800 2.94000   1
  -4  -5   5 -0.1300 2.64000   1
   4   5  -5 1.28000 2.33000   1
   6   4   1 375.680 38.9700   1
  -6   0   4 8.79000 2.71000   1
   6   0  -4 13.4300 4.29000   1
  -6   0   4 10.4000 3.65000   1
   4   6   6 66.1700 10.4400   1
   4   6   6 76.2000 9.10000   1
  -1   3 -10 6.56000 3.45000   1
  -1   3 -10 8.07000 2.73000   1
  -1   3 -10 5.98000 0.78000   1
   1  -3  10 9.85000 7.20000   1
  -1  -2 -14 21.1200 3.52000   1
   1   2  14 16.9000 3.85000   1
  -1  -2 -14 38.5100 4.94000   1
   4   3  -9 12.4800 7.92000   1
   4   3  -9 25.4800 5.79000   1
   4   3  -9 24.2800 5.23000   1
   6   2   5 90.9900 9.95000   1
   6   2   5 82.7900 10.6500   1
   5  -2   3 16.8400 2.78000   1
   5  -2   3 9.17000 2.23000   1
   5  -2   3 13.9300 1.41000   1
  -5   2  -3 7.82000 1.58000   1
  -2   5  -3 5.93000 1.47000   1
   2  -5   3 6.03000 8.30000   1
  -2   5  -3 3.19000 0.98000   1
   0  -4 -13 19.8400 4.45000   1
   0   4  13 54.6500 6.40000   1
   6   4   2 1.05000 3.18000   1
   6   4   2 0.16000 2.73000   1
   1  -4   8 44.1700 11.9000   1
  -1   4  -8 50.6600 6.35000   1
  -1   4  -8 35.1900 4.53000   1
   1  -1 -14 7.66000 2.88000   1
   1  -1 -14 5.33000 4.55000   1
   4  -4  -3 14.3200 2.45000   1
   4  -4  -3 12.9900 13.7100   1
   4  -4  -3 25.4000 4.36000   1
  -4  -6   1 0.91000 2.33000   1
   4   6  -1 3.39000 2.75000   1
  -3  -6   3 19.2500 6.91000   1
   3   6  -3 21.9300 3.91000   1
  -3  -6   3 14.6600 3.77000   1
  -3  -6   3 15.3700 3.76000   1
   6   1  -5 0.82000 3.01000   1
  -6  -1   5 0.49000 2.07000   1
   4  -4  -2 33.3100 14.6700   1
   4  -4  -2 34.1700 4.64000   1
   4  -4  -2 17.2000 2.85000   1
   6   4   0 9.17000 4.38000   1
   2   2 -12 15.7300 4.11000   1
  -2  -2  12 10.4300 2.52000   1
   2   2 -12 17.2000 4.63000   1
   2   2 -12 15.1100 3.49000   1
   2   2 -12 11.2400 1.97000   1
   4   0  10 31.0000 4.61000   1
   4   0  10 20.5000 2.04000   1
  -4   0 -10 25.8400 3.48000   1
  -4   2  -7 1.15000 1.74000   1
  -4   2  -7 2.03000 1.68000   1
  -4   2  -7 1.29000 2.27000   1
  -4   2  -7 1.80000 1.29000   1
   4  -2   7 -0.2300 12.8400   1
   6   3   5 -0.1300 2.31000   1
   1   3 -11 167.770 16.0500   1
   1   3 -11 169.270 17.5000   1
   1   3 -11 151.680 26.9900   1
  -1  -3  11 140.850 18.9500   1
   1   3 -11 163.580 17.1700   1
   1   3 -11 143.560 12.8600   1
   5   2   9 28.4200 3.47000   1
   5   2   9 33.9200 5.18000   1
   5   2   9 29.5000 5.45000   1
   3   4  12 2.50000 2.15000   1
   3   4  12 4.85000 2.75000   1
   3   4  12 3.82000 1.95000   1
  -2  -5   7 18.6400 3.91000   1
  -2  -5   7 17.4500 7.40000   1
   2   5  -7 20.7200 3.00000   1
   4  -4  -4 -0.0500 0.83000   1
   4  -4  -4 -0.3700 6.32000   1
   1   5  -7 0.18000 1.79000   1
  -1  -5   7 0.80000 3.85000   1
  -1  -5   7 0.45000 1.44000   1
   1   5  -7 0.02000 0.37000   1
   6   4   3 0.65000 2.45000   1
   6   4   3 3.49000 2.74000   1
  -1   6   7 31.7900 5.43000   1
   1  -6  -7 43.6400 6.96000   1
  -1   6   7 19.1700 3.00000   1
   1  -2 -14 748.140 79.8300   1
   1  -2 -14 797.910 82.2400   1
   2  -3   9 1.06000 10.3500   1
  -2   3  -9 2.64000 1.87000   1
  -2   3  -9 5.58000 2.77000   1
  -2   3  -9 6.05000 1.91000   1
   3  -5  -3 2.55000 2.68000   1
   3  -5  -3 2.46000 6.07000   1
  -2   5   9 -0.4600 1.38000   1
   2  -5  -9 0.80000 2.16000   1
   2  -5  -9 0.28000 0.83000   1
   2  -5  -9 -0.3800 1.70000   1
   5   3   9 38.7800 5.00000   1
   5   3   9 52.4600 7.24000   1
   5   3   9 48.8300 6.88000   1
   1   1  14 -0.3900 2.64000   1
  -1  -1 -14 1.01000 2.44000   1
  -1  -1 -14 0.43000 1.31000   1
  -1  -1 -14 0.70000 1.56000   1
  -1  -1 -14 0.16000 1.04000   1
   0   6   9 9.73000 8.61000   1
   0   6   9 1.85000 1.94000   1
   0  -6  -9 1.22000 2.46000   1
   0   6   9 1.14000 2.21000   1
   4  -1 -11 -0.2100 1.57000   1
   4  -1 -11 -0.0900 2.85000   1
   4  -1 -11 0.52000 2.18000   1
   4  -1 -11 0.14000 1.23000   1
   4  -4  -1 51.7200 18.4100   1
   4  -4  -1 62.3000 6.81000   1
  -1  -5 -12 8.91000 3.20000   1
   1   5  12 5.92000 5.98000   1
   1   5  12 17.8800 3.03000   1
   1   5  12 14.3700 3.76000   1
   3  -5  -4 20.9900 2.45000   1
   3  -5  -4 29.5600 5.18000   1
   3  -5  -4 42.2500 10.6700   1
  -3   5   4 18.3100 3.14000   1
   3  -5  -2 38.7400 5.23000   1
   3  -5  -2 42.8100 12.8800   1
   2  -1  12 -1.3500 7.55000   1
  -2   1 -12 0.31000 2.56000   1
  -2   1 -12 1.16000 2.43000   1
  -2   1 -12 0.98000 1.27000   1
   0  -4   9 76.5800 14.1700   1
   0   4  -9 86.6900 10.0600   1
   0   4  -9 93.0000 10.0200   1
  -5   1  -6 1.60000 2.47000   1
   5  -1   6 1.40000 1.45000   1
   5  -1   6 2.11000 1.53000   1
  -5   0   9 0.01000 1.77000   1
   5   0  -9 0.98000 3.83000   1
   5   0  -9 1.16000 2.02000   1
   6   2  -5 14.6000 5.08000   1
  -6   0  -3 101.970 12.4600   1
   6   0   3 111.080 11.8900   1
   6   0   3 84.1200 11.2500   1
  -6   0  -3 89.2100 9.92000   1
   6   4  -1 554.190 56.9300   1
   5   1  -9 54.7800 7.06000   1
   5   1  -9 59.6000 8.68000   1
   5   1  -9 49.9200 6.98000   1
   0   3  14 5.64000 2.01000   1
   0  -3 -14 3.42000 2.65000   1
   0  -3 -14 -0.0200 3.49000   1
   4   1 -11 16.5900 3.64000   1
   4   1 -11 11.3700 4.54000   1
   4   1 -11 16.2800 4.06000   1
   4   1 -11 20.0000 5.45000   1
   3   5  11 0.32000 1.52000   1
   3   5  11 -0.4400 1.46000   1
   3   5  11 0.60000 1.75000   1
   5  -2  -7 0.67000 3.00000   1
   5  -2  -7 0.55000 2.02000   1
   2   6  -4 238.780 20.7400   1
  -2  -6   4 256.300 24.0400   1
  -2  -6   4 179.540 25.4700   1
  -2  -6   4 283.560 31.8000   1
   2   1 -13 1.00000 2.99000   1
   2   1 -13 1.37000 2.05000   1
   2   1 -13 -0.5800 2.39000   1
   1   3  14 49.8900 6.59000   1
   2   4  13 1.73000 1.38000   1
   2   4  13 1.08000 2.04000   1
   2   4  13 1.88000 1.90000   1
   5   5  -3 96.5400 10.9100   1
  -2  -3  11 14.1300 4.52000   1
   2   3 -11 18.6100 4.50000   1
   2   3 -11 21.6500 4.49000   1
   2   3 -11 23.0000 5.10000   1
   2   3 -11 8.18000 11.1700   1
   1  -5 -11 12.2000 2.43000   1
   1  -5 -11 8.95000 2.63000   1
  -1   5  11 11.9500 3.54000   1
   4  -4  -5 10.2600 3.52000   1
   4  -4  -5 6.06000 10.0700   1
   4  -4  -5 8.24000 2.00000   1
   4  -4  -5 5.99000 1.90000   1
  -4   1  -9 14.0900 6.47000   1
  -4   1  -9 49.9200 5.37000   1
   0   6  -3 0.45000 1.13000   1
   0  -6   3 -0.0700 3.24000   1
   0  -6   3 0.18000 1.42000   1
   0  -6   3 -0.0700 1.00000   1
   4   1  11 2.79000 1.10000   1
   4   1  11 3.97000 1.88000   1
  -4  -1 -11 2.08000 1.98000   1
   6   3  -4 9.78000 5.12000   1
   3  -5  -5 0.45000 1.10000   1
   3  -5  -5 1.76000 5.06000   1
   3  -5  -5 0.21000 0.99000   1
  -3   5   5 -0.3100 1.19000   1
   0   0 -14 48.3600 7.96000   1
   0   0  14 39.6800 5.18000   1
   0   0 -14 51.4100 5.98000   1
   0   0 -14 30.3900 4.00000   1
   3  -5  -1 3.92000 8.60000   1
   1  -6   1 44.5400 9.74000   1
   1  -6   1 28.7300 3.72000   1
  -1   6  -1 42.9600 4.77000   1
  -2   0 -13 -0.5700 2.35000   1
   2   0  13 -0.2400 6.49000   1
  -2   0 -13 0.17000 2.02000   1
  -2   0 -13 0.97000 1.36000   1
   6   0  -5 2.66000 2.60000   1
  -6   0   5 1.21000 2.06000   1
   6   4   4 92.6400 11.7600   1
   6   4   4 112.480 12.9600   1
   6   1   5 31.3300 7.82000   1
   6   1   5 57.7500 7.49000   1
   4  -3  -9 33.0700 3.75000   1
   4  -3  -9 35.3600 3.87000   1
   4  -3  -9 24.2300 10.8700   1
   4  -3  -9 55.8000 8.37000   1
   4  -3  -9 41.0500 6.00000   1
  -1  -6   4 59.6300 13.6000   1
  -1  -6   4 51.5100 7.11000   1
  -1  -6   4 51.3700 6.47000   1
   4   6   7 37.6100 5.42000   1
   4   6   7 41.2100 6.80000   1
   4  -4   0 30.7500 14.7100   1
   4  -4   0 36.7000 4.36000   1
   5   5   7 22.3200 5.46000   1
   5   5   7 20.7000 5.76000   1
   1   6  10 -1.1200 1.69000   1
   1   6  10 0.30000 1.77000   1
   1   6  10 3.10000 4.98000   1
   3   6   9 42.0800 7.90000   1
   3   6   9 49.3400 8.36000   1
   3   6   9 63.7600 7.57000   1
   1   0 -14 8.96000 2.91000   1
   1   0 -14 4.95000 2.51000   1
   1   0 -14 1.60000 1.47000   1
   0   3 -11 32.7100 5.57000   1
   0   3 -11 35.1800 4.12000   1
   0   3 -11 31.4000 2.81000   1
   0   3 -11 42.8500 6.40000   1
   0   3 -11 30.9600 3.08000   1
   0  -3  11 24.4300 8.51000   1
  -2   4  -7 7.92000 2.31000   1
  -2   4  -7 12.1400 3.52000   1
   2  -4   7 16.5100 9.03000   1
   0   5  12 36.9300 5.94000   1
   0   5  12 32.3200 4.70000   1
   0  -5 -12 16.5200 4.11000   1
   2   5  12 2.91000 2.50000   1
   2   5  12 3.57000 2.93000   1
   2   5  12 6.27000 2.21000   1
   4   6  -2 14.8200 4.02000   1
  -4  -6   2 9.41000 3.73000   1
   6  -1  -1 17.6300 2.93000   1
   6  -1  -1 20.4100 3.10000   1
   6  -1  -1 27.6300 4.43000   1
  -6   1   1 13.4800 3.55000   1
  -6   1   1 12.6000 2.52000   1
  -1   1 -13 108.300 9.92000   1
  -1   1 -13 128.950 12.2500   1
  -1   1 -13 141.180 14.6600   1
  -1   1 -13 145.930 16.5800   1
   1  -1  13 131.590 20.7100   1
   6  -1  -2 38.2200 4.16000   1
   6  -1  -2 38.8800 5.59000   1
  -6   1   2 32.7600 5.02000   1
   6  -1  -2 40.4500 4.70000   1
  -6   1   2 26.0000 3.67000   1
  -3  -4   9 122.170 13.7400   1
   3   4  -9 119.760 12.5400   1
   3   4  -9 125.600 13.8100   1
   3   4  -9 92.7100 18.5000   1
   2   6  10 5.36000 6.22000   1
   2   6  10 9.62000 3.15000   1
   2   6  10 9.34000 3.13000   1
  -3   0 -12 29.1600 3.99000   1
   3   0  12 21.2000 15.6600   1
   5   4  -6 66.2400 9.46000   1
   2  -3 -13 6.50000 2.27000   1
   2  -3 -13 15.1600 3.43000   1
   2  -3 -13 19.1100 4.67000   1
   3  -1  11 11.3100 14.3600   1
  -3   1 -11 18.0500 4.48000   1
  -3   1 -11 11.3800 3.94000   1
  -3   1 -11 14.1200 2.35000   1
   4   4  11 175.230 16.3800   1
   4   4  11 147.620 16.9800   1
  -2   2 -11 36.8000 3.45000   1
  -2   2 -11 37.5100 6.75000   1
  -2   2 -11 51.9200 7.26000   1
   2  -2  11 51.7300 16.0800   1
   6   4  -2 6.63000 4.44000   1
   5  -2   4 -0.0100 1.10000   1
  -5   2  -4 0.16000 0.76000   1
  -4   3  -5 16.0300 3.02000   1
   4  -3   5 10.5600 16.9900   1
   4  -3   5 17.2700 1.70000   1
  -5   0  -8 7.05000 2.91000   1
   5   0   8 13.6800 3.04000   1
   5   0   8 11.0600 1.26000   1
   5   0   8 14.0300 2.59000   1
  -5   0  -8 10.7600 3.08000   1
   6   2   6 53.5900 7.11000   1
   6   2   6 44.2600 7.21000   1
   2   7   3 1.27000 2.37000   1
   2   7   3 0.61000 2.52000   1
  -2  -7  -3 0.73000 1.51000   1
  -2  -7  -3 1.63000 2.20000   1
  -2  -7  -3 0.05000 1.78000   1
   6  -1   0 21.1300 4.32000   1
  -6   1   0 25.7400 4.30000   1
  -6   1   0 22.3100 3.32000   1
   6  -1   0 34.7300 3.91000   1
   6  -1   0 31.4100 4.18000   1
   2   7   4 52.8500 8.73000   1
  -2  -7  -4 37.3200 4.99000   1
   2   7   4 53.0100 6.81000   1
  -2  -7  -4 51.5700 7.07000   1
   5   1   9 1.00000 1.68000   1
   5   1   9 0.34000 0.68000   1
  -5  -1  -9 0.35000 1.86000   1
   5   1   9 -0.5300 1.44000   1
   3   2  13 18.2900 5.06000   1
   3   2  13 41.4000 5.10000   1
  -1   6   8 48.0600 6.04000   1
  -1   6   8 45.4200 6.66000   1
   1  -6  -8 68.4200 9.23000   1
   4   4  -8 106.850 12.3600   1
   6   1  -6 47.4900 7.06000   1
  -6  -1   6 32.5500 5.84000   1
   6   3   6 20.1700 5.59000   1
   6   3   6 28.0000 4.99000   1
   3  -5  -6 0.27000 1.39000   1
  -3   5   6 2.21000 1.59000   1
   3  -5  -6 0.12000 1.28000   1
   3  -5  -6 1.62000 4.99000   1
  -6   1   3 0.73000 1.42000   1
  -6   1   3 0.83000 2.54000   1
   6  -1  -3 1.11000 1.31000   1
   6  -1  -3 2.86000 1.77000   1
   6  -1  -3 0.75000 2.34000   1
   4  -4  -6 -0.0800 0.81000   1
   4  -4  -6 0.84000 2.33000   1
   4  -4  -6 -1.5500 5.80000   1
   4  -4  -6 0.44000 1.22000   1
   3  -5   0 1.04000 1.46000   1
   3  -5   0 2.25000 7.37000   1
  -3   4  -5 1.50000 1.50000   1
  -3   4  -5 -0.3300 1.16000   1
   3  -4   5 2.56000 8.08000   1
   3  -4 -10 45.8400 6.45000   1
   3  -4 -10 37.9100 4.32000   1
   3  -4 -10 42.3800 7.67000   1
   3  -4 -10 35.2000 4.60000   1
   3   5  -7 0.97000 1.79000   1
  -3  -5   7 -2.4000 3.40000   1
  -1   2 -12 0.34000 2.14000   1
  -1   2 -12 0.43000 0.66000   1
  -1   2 -12 0.66000 1.01000   1
   1  -2  12 -0.2700 5.78000   1
  -1   2 -12 2.15000 2.52000   1
  -1   4  13 26.9000 3.89000   1
   1  -4 -13 31.8100 5.82000   1
   1  -4 -13 24.8400 4.57000   1
   5  -3  -2 2.84000 2.09000   1
   5  -3  -2 0.32000 1.05000   1
  -2  -7  -2 1.51000 1.64000   1
  -2  -7  -2 1.56000 3.54000   1
  -2  -7  -2 0.81000 2.49000   1
   5  -1  -9 32.0900 5.75000   1
  -5   1   9 29.1500 4.02000   1
   5  -1  -9 38.9700 6.02000   1
   5  -3  -3 10.7100 3.32000   1
   5  -3  -3 7.21000 1.80000   1
   0   5  -7 1.10000 2.18000   1
   0  -5   7 -0.6900 5.12000   1
   0  -5   7 0.01000 1.39000   1
  -2   5  -4 252.920 25.2300   1
   2  -5   4 296.180 40.5900   1
   5   4   9 11.4300 2.44000   1
   5   4   9 12.5300 3.61000   1
   5   4   9 11.0100 3.45000   1
   3   3  13 1.80000 2.26000   1
   3   3  13 3.37000 1.53000   1
   4   5  10 6.35000 3.84000   1
   4   5  10 8.98000 2.39000   1
   4   5  10 4.12000 3.86000   1
   6   0   4 3.08000 2.48000   1
   6   0   4 1.82000 2.57000   1
  -6   0  -4 2.39000 1.83000   1
   3  -1 -13 135.530 14.9000   1
   3  -1 -13 138.420 14.2200   1
   2   7   5 1.41000 2.58000   1
  -2  -7  -5 0.36000 2.77000   1
   2   7   5 0.15000 2.43000   1
   2   2  14 8.52000 7.66000   1
   2   2  14 5.64000 1.93000   1
   2   2  14 7.76000 2.51000   1
   3   6  -4 1.75000 2.02000   1
  -3  -6   4 0.96000 2.41000   1
  -3  -6   4 2.72000 3.71000   1
  -3  -6   4 1.01000 2.35000   1
   1   7   4 1.72000 2.45000   1
   1   7   4 2.04000 2.10000   1
  -1  -7  -4 0.53000 1.43000   1
  -1  -7  -4 5.04000 2.86000   1
  -1  -7  -4 0.11000 1.63000   1
   1   7   3 48.2800 6.21000   1
   1   7   3 31.2000 7.34000   1
  -1  -7  -3 21.3100 4.88000   1
  -1  -7  -3 39.9200 6.93000   1
  -1  -7  -3 25.7500 3.78000   1
   6   4   5 -0.0200 2.31000   1
   6   4   5 2.01000 2.68000   1
   5  -3  -1 21.6400 2.94000   1
   5  -3  -1 29.9900 4.26000   1
   4  -4   1 9.07000 2.09000   1
   4  -4   1 38.1400 13.6900   1
   2  -4 -12 0.29000 1.22000   1
   2  -4 -12 0.20000 2.45000   1
   2  -4 -12 0.11000 1.52000   1
  -2   4  12 0.07000 1.65000   1
   3   0 -13 12.4100 3.17000   1
   3   0 -13 2.69000 3.94000   1
   3   0 -13 4.63000 4.40000   1
   3   0 -13 9.92000 3.40000   1
   1  -3 -14 37.7300 6.67000   1
   1  -3 -14 34.7400 5.49000   1
   2  -1 -14 -0.0900 2.51000   1
   2  -1 -14 0.38000 1.97000   1
  -1   5  -6 19.5600 3.66000   1
  -1   5  -6 11.3400 1.59000   1
  -1   5  -6 10.6300 2.00000   1
   1  -5   6 7.24000 9.24000   1
   6  -1   1 0.72000 1.93000   1
  -6   1  -1 0.76000 1.64000   1
   6  -1   1 0.14000 1.03000   1
   6  -1   1 0.15000 1.41000   1
  -6   1  -1 0.38000 3.10000   1
  -4  -5   6 128.430 14.7500   1
   4   5  -6 158.290 15.9600   1
   5   2  -9 9.35000 2.72000   1
   5   2  -9 14.4300 4.62000   1
   5   2  -9 3.65000 4.78000   1
   5  -3  -4 35.0300 5.52000   1
   5  -3  -4 25.0100 3.09000   1
  -1  -7  -5 14.5400 3.85000   1
  -1  -7  -5 7.98000 2.25000   1
   1   7   5 7.04000 3.43000   1
   1   7   5 16.7200 3.87000   1
   1   7   2 6.09000 2.74000   1
  -1  -7  -2 3.39000 4.49000   1
  -1  -7  -2 2.05000 1.57000   1
  -1  -7  -2 1.09000 2.42000   1
   5   3  -8 36.1200 8.86000   1
   5   3  -8 56.0300 8.69000   1
   6   2  -6 47.5100 8.36000   1
  -1   0 -14 0.03000 1.27000   1
   1   0  14 2.81000 2.88000   1
  -1   0 -14 0.84000 2.07000   1
  -1   0 -14 0.47000 2.33000   1
  -1   0 -14 0.25000 1.02000   1
   0   6  10 0.87000 1.94000   1
   0   6  10 0.06000 1.71000   1
   0  -6 -10 -0.3100 1.57000   1
   0   6  10 0.33000 1.36000   1
   6  -1  -4 50.5900 5.69000   1
  -6   1   4 38.1100 4.37000   1
  -6   1   4 53.9400 7.00000   1
   6  -1  -4 56.0800 7.24000   1
   2  -5 -10 30.4000 5.65000   1
  -2   5  10 32.9100 5.65000   1
   2  -5 -10 36.6100 5.35000   1
   2  -5 -10 21.6400 3.39000   1
  -2  -7  -1 -0.7600 2.57000   1
  -2  -7  -1 0.18000 1.94000   1
   4  -2 -11 1.23000 1.70000   1
   4  -2 -11 1.73000 3.13000   1
   4  -2 -11 2.15000 2.65000   1
   4  -2 -11 0.44000 1.12000   1
  -6   0   6 70.2900 8.78000   1
   6   0  -6 107.370 11.6300   1
  -1   6  -2 39.3100 5.13000   1
   1  -6   2 39.6000 4.41000   1
   1  -6   2 47.0200 9.58000   1
   2   3  14 80.0100 8.93000   1
   2   3  14 58.8200 7.77000   1
   2   3  14 83.7100 7.62000   1
   6   3  -5 10.4800 4.25000   1
   5  -2  -8 227.270 23.4100   1
   5  -2  -8 243.180 23.8100   1
   5   5  -4 -0.5800 2.79000   1
  -3   3  -8 24.9100 4.10000   1
  -3   3  -8 13.8700 2.07000   1
   3  -3   8 21.0500 13.2000   1
   5  -3   0 8.39000 2.25000   1
   5  -3   0 1.25000 1.07000   1
   2   7   6 12.7500 3.42000   1
   2   7   6 8.52000 3.83000   1
  -2  -7  -6 9.08000 3.23000   1
   4   6   8 90.9500 11.8600   1
   4   6   8 98.7800 10.6300   1
   3   2 -12 51.3200 7.20000   1
   3   2 -12 25.5900 10.4500   1
   3   2 -12 39.6300 7.01000   1
   3   2 -12 49.4800 6.84000   1
   6   4  -3 20.6200 5.26000   1
  -3  -7  -3 36.6300 4.83000   1
   5   6   2 5.24000 3.19000   1
   5   6   3 50.6400 7.91000   1
   3  -3 -12 6.48000 2.14000   1
   3  -3 -12 3.56000 2.81000   1
   3  -3 -12 1.11000 1.41000   1
   3   7   4 9.34000 4.91000   1
   3   1  13 0.04000 0.87000   1
   3   1  13 0.59000 1.53000   1
  -3  -1 -13 0.39000 1.45000   1
   3  -5  -7 11.7700 6.80000   1
   3  -5  -7 11.6000 2.63000   1
  -3   5   7 9.59000 2.89000   1
   1   4 -10 0.12000 2.72000   1
  -1  -4  10 4.80000 4.63000   1
   1   4 -10 3.08000 2.61000   1
   1   4 -10 2.16000 1.34000   1
   6   1   6 87.0100 9.30000   1
   6   1   6 39.4900 11.5700   1
  -2   6   3 11.4800 3.24000   1
   2  -6  -3 32.2500 9.46000   1
   2  -6  -3 12.7200 1.93000   1
   5   5   8 4.83000 3.64000   1
   5   5   8 10.8500 3.78000   1
   3  -5   1 158.990 14.4300   1
   3  -5   1 178.640 28.0800   1
   2  -6  -4 1.03000 4.50000   1
  -2   6   4 -0.2900 2.10000   1
   2  -6  -4 0.92000 1.21000   1
   2   0 -14 27.5100 5.21000   1
   2   0 -14 28.9500 4.63000   1
   4   6  -3 -0.1600 1.88000   1
  -4  -6   3 -0.0100 1.96000   1
   2  -2 -14 49.1800 6.60000   1
   2  -2 -14 43.2000 7.60000   1
   2   1  14 34.4300 11.2000   1
  -2  -1 -14 26.7200 4.20000   1
  -2  -1 -14 28.7100 5.22000   1
  -3  -7  -2 51.5600 7.17000   1
  -3  -7  -2 28.7800 4.55000   1
   1   7   6 4.28000 2.52000   1
  -1  -7  -6 1.21000 3.06000   1
  -1  -7  -6 0.47000 1.54000   1
   1   7   6 0.90000 2.22000   1
   5  -1   7 26.1000 3.92000   1
   5  -1   7 27.8700 3.53000   1
  -5   1  -7 22.4800 4.59000   1
   3  -2  10 9.34000 12.5700   1
  -3   2 -10 4.14000 3.00000   1
  -3   2 -10 8.30000 2.45000   1
  -3   2 -10 1.79000 2.33000   1
  -3   2 -10 3.62000 1.33000   1
  -1  -7  -1 -0.1500 1.89000   1
   1   7   1 0.61000 1.97000   1
  -1  -7  -1 0.16000 1.29000   1
  -1  -7  -1 12.6200 3.86000   1
   0  -6   4 6.34000 7.44000   1
   0  -6   4 6.57000 2.59000   1
   0  -6   4 5.13000 1.92000   1
   0   6  -4 9.98000 2.05000   1
   5  -3  -5 1.48000 2.51000   1
   5  -3  -5 0.30000 1.16000   1
   4  -4  -7 4.19000 9.64000   1
   4  -4  -7 4.94000 3.79000   1
   4  -4  -7 2.98000 2.26000   1
   5   6   1 50.9000 8.00000   1
   4   2 -11 104.380 12.8400   1
   4   2 -11 101.260 11.9000   1
   4   2 -11 111.960 12.0400   1
   4   2 -11 83.5300 13.5700   1
   4  -2   8 77.8400 20.8800   1
  -4   2  -8 32.1400 6.22000   1
  -4   2  -8 43.2500 4.91000   1
  -4   2  -8 47.2000 5.22000   1
  -4   2  -8 55.6600 7.47000   1
   3   3 -11 2.79000 2.82000   1
   3   3 -11 3.17000 3.01000   1
   3   3 -11 4.18000 2.69000   1
   3   3 -11 0.86000 7.58000   1
   5   6   4 50.5000 7.55000   1
   5   6   4 33.1100 8.53000   1
   5   3  10 73.2400 8.54000   1
   5   3  10 69.5300 7.16000   1
   5   3  10 62.8000 7.64000   1
  -2  -6   5 22.9400 4.75000   1
  -2  -6   5 25.2700 8.33000   1
   2   6  -5 21.7600 2.78000   1
   4   2  12 -0.3200 1.28000   1
   4   2  12 0.27000 0.74000   1
   6  -1   2 0.32000 1.01000   1
   6  -1   2 1.07000 1.98000   1
   6  -1   2 1.13000 1.37000   1
  -6   1  -2 0.89000 3.60000   1
  -6   1  -2 0.37000 1.73000   1
   2   4 -10 10.1900 3.97000   1
  -2  -4  10 4.17000 4.49000   1
   2   4 -10 4.51000 2.53000   1
   2   4 -10 8.00000 3.61000   1
   4   3  12 8.41000 2.71000   1
   4   3  12 16.1100 3.60000   1
   5   2  10 13.7700 3.94000   1
   5   2  10 14.8100 3.10000   1
   5   2  10 9.97000 2.25000   1
   2  -6  -2 2.95000 1.00000   1
   2  -6  -2 5.65000 6.67000   1
  -2   6   2 0.80000 2.05000   1
   3   7   5 0.15000 2.71000   1
   4   3 -10 0.71000 2.50000   1
   4   3 -10 3.17000 3.52000   1
   4   3 -10 2.00000 2.43000   1
   4   3 -10 1.36000 4.95000   1
   1   4  14 15.1700 4.20000   1
   1   4  14 11.3500 3.51000   1
  -2   6   5 6.51000 3.03000   1
   2  -6  -5 6.26000 2.25000   1
   2  -6  -5 7.78000 5.76000   1
   4   0 -12 50.6900 7.39000   1
   4   0 -12 74.3600 8.42000   1
   4   0 -12 67.7600 10.8900   1
   4   0 -12 64.8700 8.34000   1
   3   6  10 3.14000 3.29000   1
   3   6  10 3.22000 2.32000   1
   3   6  10 1.77000 3.69000   1
   3  -2 -13 18.4900 3.38000   1
   3  -2 -13 27.2100 4.87000   1
   3  -2 -13 37.0500 5.75000   1
   1  -6  -9 2.66000 2.60000   1
  -1   6   9 -0.1700 2.03000   1
   5   0 -10 0.79000 4.07000   1
   5   0 -10 0.12000 1.85000   1
  -5   0  10 0.04000 2.14000   1
   5   0 -10 9.46000 2.99000   1
   1   2 -13 15.3900 3.58000   1
  -1  -2  13 9.96000 3.66000   1
   1   2 -13 5.90000 1.96000   1
   1   2 -13 11.6300 3.74000   1
   1   2 -13 17.5600 4.54000   1
  -2  -7   0 11.5600 4.23000   1
  -2  -7   0 4.56000 2.17000   1
  -2  -7   0 2.75000 2.44000   1
  -2  -7   0 2.35000 3.17000   1
  -1   4  -9 1.96000 1.63000   1
  -1   4  -9 5.75000 1.95000   1
   1  -4   9 4.42000 6.98000   1
  -1   4  -9 4.90000 3.02000   1
  -2  -5   8 7.33000 5.32000   1
   2   5  -8 6.67000 1.94000   1
  -2  -5   8 3.49000 3.16000   1
   4  -3 -10 2.39000 1.61000   1
   4  -3 -10 2.30000 6.56000   1
   4  -3 -10 2.77000 4.30000   1
   4  -3 -10 0.95000 2.76000   1
   6   4   6 12.1700 3.53000   1
   6   4   6 9.66000 3.31000   1
   4  -4   2 39.9000 3.83000   1
   4  -4   2 38.4900 18.7200   1
  -6   1   5 26.6400 5.17000   1
  -6   1   5 19.4500 3.16000   1
   6  -1  -5 36.8800 5.86000   1
  -1  -6   5 1.51000 2.12000   1
  -1  -6   5 2.43000 2.33000   1
  -1  -6   5 3.53000 6.09000   1
  -1  -5   8 23.6600 8.85000   1
   1   5  -8 27.4200 5.59000   1
  -1  -5   8 19.8200 4.04000   1
   5  -3   1 160.890 14.7300   1
   5  -3   1 125.270 10.8100   1
   3   7   1 3.54000 2.23000   1
  -3  -7  -1 0.77000 2.16000   1
  -3  -7  -1 4.58000 2.50000   1
   1   6  11 7.33000 2.84000   1
   1   6  11 2.51000 7.22000   1
   1   6  11 2.90000 2.28000   1
  -5   2  -5 5.10000 1.41000   1
  -5   2  -5 7.90000 3.20000   1
  -5   2  -5 6.48000 2.46000   1
   0   4  14 23.9000 3.95000   1
   6   2   7 3.59000 2.76000   1
   6   2   7 1.53000 3.25000   1
   6   3   7 2.08000 3.17000   1
   6   3   7 9.72000 3.50000   1
   0  -2 -15 32.1000 4.75000   1
   0  -2 -15 25.4100 6.66000   1
   5   1 -10 4.27000 3.65000   1
   5   1 -10 1.44000 2.98000   1
   5   1 -10 4.87000 3.54000   1
   6   0   5 -0.4500 2.08000   1
   6   0   5 3.35000 1.98000   1
  -6   0  -5 1.65000 3.12000   1
   2   7   7 -0.2100 2.40000   1
   2   7   7 1.62000 2.12000   1
  -1   5  12 5.03000 2.93000   1
   1  -5 -12 4.75000 3.38000   1
   1  -5 -12 1.42000 2.10000   1
   3   5  12 35.9300 4.78000   1
   3   5  12 30.7800 5.76000   1
   3   5  12 17.1700 3.82000   1
   6   1  -7 38.0000 7.01000   1
  -6  -1   7 31.6800 5.56000   1
   4   0  11 25.7400 5.09000   1
  -4   0 -11 20.5700 3.30000   1
   1   5  13 5.93000 2.67000   1
   1   5  13 6.50000 2.20000   1
   1   5  13 0.75000 4.22000   1
   3   4  13 21.3200 4.74000   1
   3   4  13 18.3400 3.12000   1
   3   4  13 16.6700 3.28000   1
   6   5   2 0.25000 3.00000   1
   4  -1 -12 0.92000 2.03000   1
   4  -1 -12 -0.9500 4.33000   1
   4  -1 -12 0.76000 1.73000   1
  -1   3 -11 52.2400 6.79000   1
  -1   3 -11 39.6800 3.14000   1
   1  -3  11 43.3600 11.3800   1
  -1   3 -11 50.9000 6.72000   1
   5   6   5 5.17000 4.69000   1
   5   6   5 10.0200 4.47000   1
   3   1 -13 24.1400 5.07000   1
   3   1 -13 25.3400 6.37000   1
   3   1 -13 30.9500 4.93000   1
   3   1 -13 9.55000 7.58000   1
  -2   6   1 1.71000 1.79000   1
   2  -6  -1 2.65000 2.26000   1
   1   1 -14 190.640 18.6100   1
   1   1 -14 170.510 18.5800   1
  -1  -1  14 131.040 13.2700   1
   6   5   1 41.5000 8.31000   1
   0  -1 -15 9.27000 3.34000   1
   0  -1 -15 4.50000 3.84000   1
   2   6  11 7.90000 6.43000   1
   2   6  11 15.0300 3.43000   1
   2   6  11 12.9800 4.52000   1
   1   7   7 14.4900 15.3000   1
   1   7   7 20.5700 5.86000   1
  -1  -7  -7 31.4500 5.45000   1
   1   7   7 38.1200 5.44000   1
   3   7   6 28.8900 4.67000   1
   3   7   6 16.6900 6.48000   1
  -2   6   6 30.8000 5.97000   1
   2  -6  -6 48.2400 9.06000   1
   2  -6  -6 32.5000 4.45000   1
  -2   3 -10 9.17000 3.39000   1
   2  -3  10 8.42000 9.87000   1
  -2   3 -10 6.09000 2.39000   1
   1   7   0 5.80000 2.23000   1
  -1  -7   0 3.32000 4.60000   1
  -1  -7   0 0.92000 2.21000   1
  -1  -7   0 0.79000 1.56000   1
  -1  -7   0 0.27000 2.20000   1
   5   4  -7 85.2800 10.5400   1
   6   5   3 269.760 27.4500   1
   6   5   3 231.310 24.5700   1
   0  -2  13 0.40000 3.21000   1
   0   2 -13 -0.9800 1.87000   1
   0   2 -13 0.87000 1.99000   1
   0   2 -13 1.54000 2.39000   1
   0   2 -13 0.24000 0.82000   1
  -4   3  -6 16.8100 3.79000   1
  -4   3  -6 35.9400 4.59000   1
   4  -3   6 45.2300 18.9300   1
   0  -7  -4 2.08000 1.46000   1
   0  -7  -4 1.26000 2.01000   1
   0   7   4 3.37000 1.84000   1
   0  -7  -4 6.32000 4.64000   1
   0   7   4 7.16000 2.57000   1
   0   1 -14 25.2400 3.32000   1
   0   1 -14 38.5400 6.31000   1
   0   1 -14 48.2000 7.25000   1
   0  -1  14 36.8100 6.85000   1
   5  -3  -6 362.140 37.8100   1
   5  -3  -6 332.530 31.8800   1
   0   7   3 9.17000 3.02000   1
   0   7   3 17.5400 3.61000   1
   0  -7  -3 9.59000 2.08000   1
   0  -7  -3 9.83000 2.82000   1
   0  -7  -3 24.6400 5.45000   1
   1   2  15 -0.4600 0.90000   1
  -1  -2 -15 0.62000 1.35000   1
  -1  -2 -15 1.48000 2.24000   1
   0  -4  10 9.49000 6.52000   1
   0   4 -10 6.68000 2.98000   1
   0   4 -10 5.84000 3.02000   1
   0   4 -10 4.38000 1.07000   1
   6   5   0 1.79000 3.41000   1
   6   4  -4 24.4100 6.52000   1
  -4   1 -10 78.6400 7.70000   1
  -4   1 -10 81.1000 10.0300   1
   0   7   5 51.3600 6.58000   1
   0   7   5 23.7900 4.51000   1
   0  -7  -5 60.0900 9.01000   1
   0  -7  -5 25.0500 3.85000   1
   2  -5   5 1.54000 7.78000   1
  -2   5  -5 2.85000 1.83000   1
  -2   5  -5 2.17000 1.38000   1
   3  -5  -8 9.90000 3.08000   1
   3  -5  -8 9.47000 7.14000   1
  -6   0   7 84.7000 9.47000   1
   6   0  -7 105.540 12.1900   1
   2   2 -13 36.0400 6.43000   1
   2   2 -13 8.06000 11.3800   1
   2   2 -13 33.5400 5.87000   1
   2   2 -13 38.4400 5.59000   1
  -3  -6   5 714.470 76.5600   1
  -3  -6   5 612.130 72.2500   1
   3   6  -5 776.560 74.9800   1
   4   1 -12 1.67000 2.96000   1
   4   1 -12 0.40000 3.55000   1
   4   1 -12 0.79000 2.15000   1
   4   1 -12 1.28000 2.97000   1
   6  -1   3 100.890 12.2900   1
   6  -1   3 153.250 14.8800   1
  -6   1  -3 136.490 15.8000   1
   6  -1   3 155.010 13.4900   1
  -6   1  -3 97.1800 10.6600   1
  -1   6  -3 0.83000 1.18000   1
   3  -5   2 7.06000 9.53000   1
  -1  -3  12 7.59000 6.24000   1
   1   3 -12 22.5400 4.28000   1
   1   3 -12 9.49000 1.91000   1
   1   3 -12 18.0900 4.80000   1
   1   3 -12 17.1600 3.55000   1
  -3   4  -6 30.0200 4.09000   1
  -3   4  -6 35.4200 5.04000   1
   3  -4   6 51.3100 19.2500   1
   3  -4 -11 1.42000 1.53000   1
   3  -4 -11 2.48000 1.80000   1
   3  -4 -11 0.90000 2.86000   1
   3  -4 -11 5.23000 2.95000   1
   3   7   0 2.06000 1.73000   1
  -3  -7   0 -0.5800 2.11000   1
  -3  -7   0 0.43000 1.85000   1
  -2   4  -8 -0.4300 1.80000   1
  -2   4  -8 0.33000 1.32000   1
   2  -4   8 4.53000 6.42000   1
   1  -1 -15 1.50000 2.84000   1
   1  -1 -15 2.11000 2.56000   1
   0   7   2 2.03000 2.01000   1
   0   7   2 1.09000 1.99000   1
   0  -7  -2 -0.0100 1.17000   1
   0  -7  -2 13.3700 4.17000   1
   0   5  13 -0.5800 1.80000   1
   0  -5 -13 -0.1100 1.66000   1
   0   5  13 -0.7700 1.85000   1
  -5   0  -9 0.28000 1.83000   1
   5   0   9 0.32000 1.36000   1
   5   0   9 1.75000 1.56000   1
   6   5   4 96.9500 11.6800   1
   6   5   4 74.8400 9.77000   1
   5   4  10 69.9100 8.43000   1
   5   4  10 74.3700 9.61000   1
   5   4  10 82.4900 8.46000   1
   2   5  13 1.03000 2.52000   1
   2   5  13 4.43000 3.32000   1
   2   5  13 6.97000 2.13000   1
   6   2  -7 18.9500 5.20000   1
   5  -1 -10 -0.0100 1.66000   1
   5  -1 -10 0.31000 2.22000   1
   4   6   9 1.15000 2.04000   1
   4   6   9 0.60000 2.52000   1
   6   3  -6 4.27000 3.64000   1
   1  -2 -15 42.9300 6.54000   1
   1  -2 -15 41.6800 7.55000   1
   4  -4  -8 253.470 26.5300   1
   4  -4  -8 234.220 34.7200   1
   4  -4  -8 227.900 22.5400   1
  -4  -1 -12 0.37000 1.61000   1
   4   1  12 -1.4500 1.65000   1
   4   1  12 0.60000 0.81000   1
   2   4  14 2.58000 2.79000   1
   2   4  14 1.37000 1.43000   1
   2   4  14 2.24000 1.92000   1
   5   6  -1 31.7800 5.95000   1
  -2  -7   1 31.5600 6.51000   1
  -2  -7   1 15.6700 3.28000   1
  -2  -7   1 11.7500 3.40000   1
   5   5  -5 8.84000 4.20000   1
   4   5  11 3.65000 3.68000   1
   4   5  11 3.93000 1.93000   1
   4   5  11 6.46000 4.02000   1
   4   4  12 2.34000 1.37000   1
   4   4  12 1.98000 1.91000   1
   4   4  12 2.82000 3.45000   1
   5  -3   2 18.9200 2.75000   1
   5  -3   2 10.9500 1.32000   1
   5   1  10 21.9900 4.89000   1
  -5  -1 -10 22.9300 4.39000   1
   5   1  10 22.0800 2.99000   1
   2  -6   0 81.1200 13.2900   1
   2  -6   0 56.6100 5.46000   1
  -2   6   0 35.9200 5.55000   1
   2  -6   0 37.6800 3.75000   1
   5   6   6 6.14000 4.43000   1
   5   6   6 3.67000 3.95000   1
   5  -2  -9 20.2700 4.33000   1
   5  -2  -9 12.7900 2.46000   1
   5  -2  -9 17.1500 5.38000   1
  -2   1 -13 9.17000 2.20000   1
  -2   1 -13 13.2400 4.21000   1
   2  -1  13 3.77000 9.68000   1
  -2   1 -13 5.64000 4.04000   1
  -6   1   6 2.50000 3.61000   1
   6  -1  -6 12.8100 3.35000   1
  -6   1   6 5.79000 2.14000   1
   0   6  11 22.5000 4.54000   1
   0   6  11 20.3700 4.08000   1
   0  -3 -15 114.640 13.5700   1
   0   3  15 103.880 11.1000   1
   0  -3 -15 117.440 12.5100   1
   4   6  -4 8.20000 3.08000   1
  -4  -6   4 2.47000 3.32000   1
   0   7   6 -0.2700 1.26000   1
   0  -7  -6 -0.3600 1.11000   1
   0  -7  -6 1.12000 2.94000   1
   0   7   6 -0.4800 1.85000   1
   4   4  -9 -0.3100 2.47000   1
   2  -5 -11 3.01000 2.86000   1
   2  -5 -11 6.37000 2.34000   1
  -2   5  11 7.33000 2.55000   1
   2  -5 -11 2.94000 1.89000   1
  -1  -1 -15 0.72000 1.23000   1
  -1  -1 -15 0.31000 2.77000   1
   1   1  15 0.63000 1.92000   1
  -1  -1 -15 -0.7400 2.04000   1
   3   5  -8 0.78000 1.83000   1
  -3  -5   8 -0.7100 3.31000   1
  -2   6   7 0.10000 1.86000   1
   2  -6  -7 -0.7300 3.10000   1
   2   3 -12 6.14000 1.96000   1
  -2  -3  12 3.77000 3.38000   1
   2   3 -12 0.07000 9.87000   1
   2   3 -12 7.77000 3.93000   1
   2   3 -12 15.1900 4.14000   1
   2   3 -12 10.1000 3.43000   1
   6   5  -1 20.5600 4.93000   1
   4   5  -7 0.96000 2.39000   1
   3   4 -10 0.54000 2.39000   1
   3   4 -10 0.20000 2.40000   1
  -3  -4  10 -0.0500 1.61000   1
   2   7   8 -0.8500 2.07000   1
   2   7   8 3.61000 5.34000   1
   2   7   8 0.02000 1.99000   1
   3   7   7 20.6800 5.78000   1
   3   7   7 27.8300 5.02000   1
   1   3  15 0.03000 0.99000   1
   5   5   9 6.45000 1.93000   1
   5   5   9 1.24000 3.33000   1
   5   5   9 0.74000 3.05000   1
   6   1   7 1.06000 2.25000   1
   6   1   7 1.54000 2.06000   1
   4  -4   3 0.14000 0.56000   1
   4  -4   3 2.68000 8.59000   1
   6   4   7 10.4600 4.05000   1
   6   4   7 17.5600 4.29000   1
   0  -7  -1 6.03000 1.69000   1
   0  -7  -1 8.02000 2.65000   1
   0  -7  -1 6.98000 2.67000   1
   0   7   1 12.6500 2.95000   1
   0  -7  -1 18.2700 5.29000   1
  -1   5  -7 24.2900 4.60000   1
   1  -5   7 8.34000 9.47000   1
  -1   5  -7 12.5000 1.43000   1
  -1   5  -7 12.2200 2.51000   1
   0  -5   8 1.18000 5.65000   1
   0   5  -8 2.14000 2.94000   1
   2   1 -14 31.2600 6.86000   1
   2   1 -14 34.7400 6.83000   1
   2   1 -14 41.8900 6.28000   1
   2  -3 -14 70.8700 10.0000   1
   2  -3 -14 62.8900 8.11000   1
  -1  -7  -8 17.1700 4.35000   1
   1   7   8 10.1800 11.8100   1
   1   7   8 23.3900 4.81000   1
   1   7   8 12.9300 4.37000   1
  -1  -7   1 8.44000 3.41000   1
   1   7  -1 12.3700 3.07000   1
  -1  -7   1 17.7000 5.29000   1
  -1  -7   1 8.02000 3.24000   1
  -1  -7   1 8.07000 2.18000   1
  -1   6  10 25.2700 5.25000   1
   1  -6 -10 32.7800 5.30000   1
   2  -4 -13 -0.2500 2.63000   1
   2  -4 -13 -0.1900 1.60000   1
   0   3 -12 26.8600 2.65000   1
   0   3 -12 36.1700 4.26000   1
   0   3 -12 39.6100 5.78000   1
   0  -3  12 29.3900 8.17000   1
   0   3 -12 34.3000 5.56000   1
   5   3  -9 0.02000 3.49000   1
   5   3  -9 -0.5600 3.01000   1
   6   5   5 11.1200 4.36000   1
   6   5   5 7.64000 3.61000   1
  -2   0 -14 29.1200 5.76000   1
   2   0  14 40.9100 12.4200   1
  -2   0 -14 35.3200 4.89000   1
  -2   0 -14 38.9700 6.74000   1
   5  -3  -7 33.9100 7.06000   1
   5  -3  -7 39.6000 5.29000   1
   5   2 -10 76.8600 12.2800   1
   5   2 -10 118.190 12.6800   1
   5   2 -10 96.1900 12.2400   1
   1  -4 -14 17.5000 5.06000   1
   1  -4 -14 11.9900 3.36000   1
  -1   4  14 12.2700 2.82000   1
  -3   1 -12 35.3100 6.39000   1
  -3   1 -12 23.3800 6.49000   1
  -3   1 -12 35.9800 4.15000   1
   3  -1  12 35.0400 16.3200   1
   0  -6   5 2.25000 1.92000   1
   0  -6   5 1.71000 6.03000   1
   4   7   3 -0.5600 1.81000   1
   3   0  13 57.3900 19.9900   1
  -3   0 -13 70.1800 8.45000   1
  -3   0 -13 75.0300 7.84000   1
  -2   2 -12 3.70000 1.28000   1
  -2   2 -12 9.90000 3.10000   1
   2  -2  12 4.57000 8.49000   1
  -2   2 -12 5.53000 2.96000   1
  -3  -7   1 0.12000 1.84000   1
  -3  -7   1 0.44000 2.63000   1
   3   7  -1 0.61000 1.52000   1
   4   7   4 6.96000 3.96000   1
   4   7   4 9.51000 3.66000   1
   0   0 -15 27.1500 4.39000   1
   0   0  15 14.2900 2.68000   1
   0   0 -15 12.0600 2.45000   1
   0   0 -15 24.6100 4.72000   1
   4   7   2 11.9500 3.88000   1
   4  -2 -12 0.08000 0.84000   1
   4  -2 -12 -0.0200 0.99000   1
   4  -2 -12 1.39000 2.38000   1
   4  -2 -12 0.84000 3.43000   1
  -6   0  -6 22.7600 5.58000   1
   6   0   6 23.2100 4.72000   1
   6   0   6 38.6300 4.79000   1
   7   2   0 4.51000 4.25000   1
   7   2   0 13.6200 3.89000   1
   1   0 -15 15.8400 4.56000   1
   1   0 -15 16.9300 4.34000   1
   6   3   8 126.500 13.6500   1
   6   3   8 109.500 13.2300   1
   5  -1   8 59.0000 6.80000   1
  -5   1  -8 46.2300 6.24000   1
   5  -1   8 49.9200 5.51000   1
   3   2  14 7.39000 2.56000   1
  -2  -6   6 81.6700 12.1700   1
   2   6  -6 83.9000 7.12000   1
  -2  -6   6 108.890 14.9000   1
   3   6  11 36.5300 6.00000   1
   3   6  11 57.5400 6.18000   1
   3   6  11 28.0600 6.88000   1
   0   7   7 2.52000 1.83000   1
   0   7   7 5.92000 3.09000   1
   0  -7  -7 10.8300 3.49000   1
  -6   2   2 58.6900 7.13000   1
   6  -2  -2 63.1000 7.38000   1
   6  -2  -2 86.8700 9.47000   1
   5   6  -2 5.67000 3.64000   1
  -5   2  -6 29.8300 4.69000   1
  -5   2  -6 25.3100 4.84000   1
   5  -2   6 35.2200 3.51000   1
   7   2   1 1.26000 2.87000   1
   7   2   1 0.82000 2.56000   1
   3   3  14 67.9900 7.99000   1
   3   3  14 32.8600 6.61000   1
  -1   1 -14 0.00000 1.16000   1
  -1   1 -14 0.02000 0.83000   1
  -1   1 -14 -0.3800 2.28000   1
  -1   1 -14 2.15000 1.94000   1
   1  -1  14 -1.2700 3.60000   1
   6  -1   4 10.6900 1.68000   1
   6  -1   4 10.8200 2.78000   1
  -6   1  -4 5.51000 4.47000   1
  -6   1  -4 3.53000 2.41000   1
   6  -1   4 5.53000 2.22000   1
   6   2   8 9.28000 3.68000   1
   6   2   8 9.23000 2.58000   1
   7   2  -1 1.01000 2.72000   1
   6  -2  -1 46.5800 5.84000   1
  -6   2   1 34.7000 4.59000   1
   6  -2  -1 63.0000 7.21000   1
   2  -6   1 122.840 17.8400   1
  -2   6  -1 49.1300 7.10000   1
   3  -3   9 4.39000 7.63000   1
  -3   3  -9 0.27000 1.07000   1
  -3   3  -9 0.56000 1.62000   1
  -3   3  -9 0.71000 2.09000   1
   3  -1 -14 0.02000 1.77000   1
   3  -1 -14 -0.0700 3.64000   1
   3  -1 -14 -0.7900 2.67000   1
   6   1  -8 9.00000 4.40000   1
   6   1  -8 2.40000 2.01000   1
   6   5  -2 33.1900 6.48000   1
   5   6   7 10.5000 4.24000   1
   5   6   7 13.2000 4.26000   1
   6  -2  -3 0.05000 0.75000   1
   6  -2  -3 0.07000 1.09000   1
   6  -2  -3 0.27000 1.99000   1
  -6   2   3 0.01000 1.52000   1
   3  -5  -9 8.67000 3.03000   1
   3  -5  -9 4.21000 6.03000   1
   4   7   5 1.43000 3.04000   1
   4   7   5 1.86000 2.11000   1
   6   4  -5 -0.0400 1.96000   1
   4  -3 -11 1.29000 3.34000   1
   4  -3 -11 0.30000 1.00000   1
   4  -3 -11 1.00000 5.05000   1
   4  -3 -11 1.69000 2.55000   1
   4  -3 -11 0.63000 1.57000   1
  -3   5  -3 139.340 12.4100   1
   3  -5   3 176.750 26.4300   1
   0  -7   0 22.6300 5.72000   1
   0  -7   0 8.38000 1.76000   1
   0  -7   0 8.99000 2.39000   1
   0   7   0 17.0900 3.30000   1
   0  -7   0 9.19000 2.82000   1
   3  -3 -13 34.3000 4.98000   1
   3  -3 -13 40.0400 6.74000   1
   3  -3 -13 15.6900 3.57000   1
   4   7   1 -0.1300 1.81000   1
  -2  -7   2 24.2100 5.31000   1
  -2  -7   2 56.0400 9.24000   1
  -2  -7   2 34.3200 4.86000   1
   5   3  11 16.0700 3.88000   1
   5   3  11 15.2300 2.88000   1
  -1  -6   6 0.78000 2.25000   1
  -1  -6   6 5.77000 4.46000   1
   1  -2  13 0.67000 4.88000   1
  -1   2 -13 0.58000 0.78000   1
  -1   2 -13 0.81000 2.30000   1
  -1   2 -13 0.69000 1.01000   1
  -1   2 -13 1.61000 2.60000   1
   1  -3 -15 1.46000 2.41000   1
   1  -3 -15 0.83000 3.35000   1
  -5   3  -3 0.40000 0.80000   1
   5  -3   3 4.79000 12.7600   1
   5  -3   3 0.03000 1.13000   1
   2  -6  -8 55.2600 8.73000   1
   2  -6  -8 39.4100 6.15000   1
  -2   6   8 41.2700 6.52000   1
   1   6  12 15.0300 3.09000   1
   1   6  12 1.45000 7.89000   1
   1   6  12 9.59000 3.98000   1
   3   0 -14 1.45000 2.48000   1
   3   0 -14 3.55000 3.35000   1
   3   0 -14 1.48000 4.46000   1
   4  -2   9 -0.3600 13.8600   1
  -4   2  -9 3.84000 2.12000   1
  -4   2  -9 1.97000 2.02000   1
  -4   2  -9 1.77000 1.62000   1
  -4   2  -9 5.93000 2.90000   1
   7   2   2 5.31000 3.42000   1
   7   2   2 4.49000 3.40000   1
   3   7   8 1.88000 2.58000   1
   3   7   8 2.63000 2.55000   1
   6  -2   0 33.3600 4.61000   1
  -6   2   0 13.4900 2.86000   1
   6  -2   0 16.0600 2.13000   1
   2   2  15 12.3700 4.63000   1
   2   2  15 31.6700 8.94000   1
   5   2  11 8.54000 1.72000   1
   5   2  11 7.63000 2.88000   1
   7   2  -2 40.7800 6.60000   1
   6  -1  -7 48.6200 6.85000   1
  -6   1   7 26.7300 3.93000   1
   6   0  -8 0.32000 2.17000   1
  -6   0   8 -0.0500 1.57000   1
   4  -4  -9 36.8600 12.4100   1
   4  -4  -9 38.6700 5.79000   1
   4  -4  -9 40.9800 8.26000   1
   7   3   1 23.9100 6.27000   1
   7   3   1 24.8200 4.65000   1
   7   1   0 0.45000 2.03000   1
  -7  -1   0 0.07000 1.45000   1
   5   0 -11 2.95000 2.54000   1
   5   0 -11 5.18000 1.83000   1
   5   0 -11 7.65000 5.11000   1
   5   0 -11 8.00000 3.01000   1
   7   1  -1 0.70000 2.12000   1
   7   1  -1 0.03000 1.84000   1
  -7  -1   1 -0.0100 1.83000   1
   7   3   0 42.9900 6.60000   1
  -1   6  -4 0.06000 1.27000   1
  -1   6  -4 1.19000 1.10000   1
   1  -6   4 -1.0700 6.18000   1
  -6   2   4 19.2300 3.86000   1
   6  -2  -4 40.8100 5.94000   1
   6  -2  -4 21.2300 2.65000   1
   2  -1 -15 2.04000 2.41000   1
   2  -1 -15 -0.7600 1.59000   1
   6   5   6 24.4700 5.30000   1
   6   5   6 20.2500 5.32000   1
   2   7   9 6.00000 3.79000   1
   2   7   9 11.9400 3.91000   1
   2   7   9 3.46000 8.07000   1
   2   6  12 53.1200 8.10000   1
   2   6  12 66.8400 7.31000   1
   7   3   2 10.3300 3.47000   1
   7   3   2 6.22000 3.66000   1
   4  -3   7 9.00000 17.4600   1
  -4   3  -7 7.80000 2.61000   1
  -4   3  -7 11.9100 3.20000   1
   7   1   1 31.5400 5.45000   1
   4   6  10 2.69000 3.43000   1
   4   6  10 8.07000 2.35000   1
   2   3  15 15.8000 4.54000   1
   2   3  15 7.49000 2.67000   1
   2   3  15 3.79000 5.65000   1
   2   3  15 11.1200 2.12000   1
  -1   5  13 1.57000 1.73000   1
   1  -5 -13 -0.7400 2.50000   1
   1  -5 -13 -0.1600 1.64000   1
   1   7   9 3.85000 10.2500   1
   1   7   9 2.76000 3.01000   1
   1   7   9 7.87000 2.91000   1
  -1  -7  -9 8.75000 2.46000   1
   5   4  -8 7.67000 4.33000   1
  -3   2 -11 9.67000 2.00000   1
  -3   2 -11 15.4100 4.47000   1
   3  -2  11 14.6400 13.0300   1
  -3   2 -11 15.1300 3.70000   1
   4   7   6 2.41000 3.91000   1
   4   3  13 97.9200 17.8800   1
   4   3  13 175.390 16.7100   1
  -7  -1   2 13.8200 4.42000   1
   7   1  -2 33.8700 4.83000   1
   7   3  -1 5.20000 2.83000   1
  -1  -7   2 22.5100 4.19000   1
  -1  -7   2 36.8200 7.75000   1
  -1  -7   2 15.0100 4.42000   1
   1   4 -11 17.7000 2.77000   1
   1   4 -11 21.3200 4.59000   1
  -1  -4  11 12.6800 5.90000   1
   1   4 -11 25.4400 5.04000   1
   2   5  -9 14.4200 2.54000   1
  -2  -5   9 10.3200 4.88000   1
   2   5  -9 17.5000 4.06000   1
   3   2 -13 11.2300 4.46000   1
   3   2 -13 0.84000 8.65000   1
   3   2 -13 13.5200 4.11000   1
   3   2 -13 10.0800 3.63000   1
   6   3  -7 45.4800 8.47000   1
   4   2 -12 0.52000 3.11000   1
   4   2 -12 0.03000 2.42000   1
   4   2 -12 1.78000 2.73000   1
   4   2 -12 0.42000 5.21000   1
   4   3 -11 37.4500 5.84000   1
   4   3 -11 50.3600 6.50000   1
   4   3 -11 51.4300 8.04000   1
   4   3 -11 23.8400 11.0600   1
   5   1 -11 41.1700 7.31000   1
   5   1 -11 64.0600 8.61000   1
   5   1 -11 66.2200 9.94000   1
  -3  -6   6 6.91000 5.38000   1
   3   6  -6 7.69000 2.57000   1
   4   2  13 2.39000 1.39000   1
   4   2  13 7.45000 2.39000   1
   2  -5   6 2.32000 7.79000   1
  -2   5  -6 4.64000 2.44000   1
  -2   5  -6 3.29000 1.73000   1
   3   5  13 1.21000 2.95000   1
   3   5  13 7.08000 2.35000   1
   3   5  13 5.25000 3.30000   1
   1   5  -9 54.1100 7.43000   1
  -1  -5   9 42.7200 10.8400   1
   6   2  -8 4.86000 4.65000   1
   4   7   0 29.3200 5.05000   1
   5   5  -6 33.1200 6.27000   1
   0   7   8 3.35000 13.6700   1
   0   7   8 7.37000 2.63000   1
   0   7   8 12.9300 3.59000   1
   0  -7  -8 13.9400 3.85000   1
  -4   4  -4 10.2100 2.01000   1
   2   4 -11 9.58000 2.52000   1
  -2  -4  11 3.51000 4.41000   1
   2   4 -11 7.16000 3.72000   1
   2   4 -11 6.69000 4.08000   1
  -1   0 -15 -0.4000 2.57000   1
  -1   0 -15 0.17000 1.32000   1
  -1   0 -15 0.78000 1.88000   1
  -1   0 -15 0.29000 1.14000   1
   1   0  15 -0.3300 2.77000   1
   6   4   8 141.140 15.0400   1
   6   4   8 97.5500 12.2600   1
   5  -3  -8 7.35000 2.70000   1
   5  -3  -8 0.69000 4.19000   1
   7   2   3 102.550 11.7600   1
   7   2   3 48.3800 13.0800   1
   3   7  -2 66.1200 6.89000   1
  -3  -7   2 37.7200 6.20000   1
  -3  -7   2 72.7300 10.7100   1
   4   0 -13 122.310 13.7500   1
   4   0 -13 147.440 14.6400   1
   4   0 -13 129.880 16.5800   1
   3   3 -12 30.4000 14.6800   1
   3   3 -12 64.7900 7.70000   1
   3   3 -12 65.1400 9.26000   1
   3   3 -12 53.7500 7.62000   1
   4   6  -5 43.3200 5.66000   1
  -4  -6   5 15.6500 5.39000   1
   3   1  14 1.10000 6.60000   1
  -3  -1 -14 -0.0600 1.59000   1
   3   1  14 -0.1800 0.75000   1
  -1   4 -10 4.94000 2.34000   1
   1  -4  10 3.06000 6.94000   1
  -1   4 -10 1.92000 3.18000   1
   2  -2 -15 257.310 27.0700   1
   2  -2 -15 262.470 26.2300   1
   3  -2 -14 4.00000 3.20000   1
   3  -2 -14 8.09000 3.02000   1
   6  -2   1 10.5500 2.56000   1
  -6   2  -1 2.32000 1.92000   1
   6  -2   1 4.05000 1.12000   1
   6  -2   1 4.81000 1.55000   1
   1   5  14 23.9700 3.85000   1
   1   5  14 16.4200 4.69000   1
   5  -2 -10 4.72000 4.32000   1
   5  -2 -10 4.57000 2.96000   1
   5  -2 -10 1.04000 1.29000   1
  -3   4  -7 0.03000 1.12000   1
   3  -4   7 -2.2400 6.02000   1
  -3   4  -7 0.13000 1.36000   1
   3  -4 -12 8.09000 2.48000   1
   3  -4 -12 10.5900 3.88000   1
   3  -4 -12 1.92000 2.03000   1
   3  -4 -12 5.95000 1.99000   1
   7   2  -3 4.99000 3.67000   1
   1   4  15 0.38000 1.48000   1
   1   4  15 -0.1800 1.39000   1
   7   3   3 10.4600 3.81000   1
   7   3   3 6.22000 3.71000   1
   6   5  -3 1.26000 3.34000   1
   4  -1 -13 42.9000 7.10000   1
   4  -1 -13 45.5700 6.36000   1
   4  -1 -13 48.4600 9.68000   1
   7   1   2 41.1800 6.30000   1
   7   1   2 24.1800 6.26000   1
  -6   2   5 0.43000 2.19000   1
   6  -2  -5 5.33000 3.05000   1
   5   6  -3 34.9600 5.61000   1
   5   4  11 9.61000 3.34000   1
   5   4  11 10.2400 2.48000   1
   5   5  10 4.39000 2.47000   1
   5   5  10 5.46000 3.29000   1
   0  -7   1 21.0600 6.14000   1
   0   7  -1 15.2400 3.16000   1
   0  -7   1 9.58000 3.00000   1
   0   6  12 12.2600 4.02000   1
   0   6  12 10.8600 3.38000   1
   2   0 -15 4.96000 3.44000   1
   2   0 -15 8.25000 2.92000   1
  -7  -1   3 3.16000 2.98000   1
   7   1  -3 3.10000 3.01000   1
   3   4  14 27.0700 5.40000   1
   3   4  14 20.7100 3.71000   1
   7   3  -2 -1.1600 2.45000   1
   5  -1 -11 125.670 13.8400   1
   5  -1 -11 121.550 14.0100   1
   2   1  15 30.5200 10.3000   1
  -2  -1 -15 33.7900 5.26000   1
  -2  -1 -15 25.2300 5.26000   1
   0  -4 -15 14.8800 3.68000   1
   0   4  15 10.8000 3.13000   1
  -4   0 -12 1.54000 2.17000   1
  -2   6  -2 77.5100 9.06000   1
   2  -6   2 248.270 27.3600   1
   6   1   8 37.7200 4.95000   1
   6   1   8 29.3400 3.03000   1
   6   1   8 25.4800 4.88000   1
  -1   7   4 28.0400 4.82000   1
   1  -7  -4 29.2200 7.17000   1
  -2   5  12 9.04000 3.22000   1
   2  -5 -12 5.51000 1.79000   1
   2  -5 -12 1.12000 2.26000   1
   2  -5 -12 4.13000 3.57000   1
   2  -5 -12 2.48000 2.17000   1
   1  -6 -11 7.61000 2.91000   1
  -1   6  11 10.8900 3.92000   1
   5   6   8 0.42000 3.27000   1
   5   6   8 9.14000 3.34000   1
   4   5  12 1.82000 2.62000   1
   4   5  12 1.81000 1.56000   1
   4   5  12 0.59000 2.67000   1
   1  -7  -3 1.78000 4.06000   1
   1  -7  -3 0.12000 1.05000   1
  -1   7   3 1.46000 1.67000   1
   5   0  10 2.29000 1.95000   1
  -5   0 -10 0.42000 2.31000   1
  -6   1  -5 10.4800 2.90000   1
   6  -1   5 21.0300 3.21000   1
   6  -1   5 8.87000 2.84000   1
  -6   1  -5 8.23000 4.31000   1
  -1   7   5 39.3400 5.67000   1
   1  -7  -5 44.1800 8.96000   1
  -2   6   9 0.16000 1.58000   1
   2  -6  -9 1.97000 2.24000   1
   2  -6  -9 1.44000 2.80000   1
   2  -6  -9 0.21000 0.91000   1
   2  -4   9 79.2800 17.2700   1
  -2   4  -9 96.9000 10.3600   1
  -2   4  -9 57.1500 7.94000   1
  -2   3 -11 46.5100 6.12000   1
  -2   3 -11 50.3900 6.90000   1
   2  -3  11 60.4100 14.7100   1
   4  -5  -3 12.6900 11.1900   1
   4  -5  -3 21.5000 4.39000   1
   4   7   7 17.0700 6.25000   1
   4   7   7 24.3300 4.08000   1
   0   5  14 -0.7900 1.77000   1
  -1  -2  14 0.33000 1.82000   1
   1   2 -14 1.60000 2.21000   1
   1   2 -14 0.56000 2.14000   1
   1   2 -14 -0.1900 0.96000   1
   1   2 -14 -0.2500 2.29000   1
  -4   1 -11 8.86000 3.02000   1
   4  -1  11 0.15000 14.0500   1
  -4   1 -11 1.20000 2.30000   1
   1  -3  12 66.5800 13.8800   1
  -1   3 -12 75.4400 9.77000   1
  -1   3 -12 61.7700 8.26000   1
   4  -5  -4 13.7100 11.6300   1
   4  -5  -4 4.48000 2.25000   1
   4  -5  -4 22.7000 4.29000   1
   4   5  -8 39.5600 5.74000   1
   6   0   7 -0.6200 1.42000   1
   6   0   7 0.13000 1.42000   1
  -6   0  -7 0.30000 2.23000   1
   3   7   9 18.5000 3.41000   1
   3   7   9 13.1700 5.06000   1
  -2  -7   3 47.5100 8.50000   1
  -2  -7   3 76.1300 12.5000   1
   5  -3   4 2.72000 11.2800   1
   5  -3   4 0.20000 0.94000   1
  -5   3  -4 0.60000 1.10000   1
   6   5   7 16.0600 4.45000   1
   6   5   7 26.9600 5.24000   1
   3   1 -14 20.6500 4.64000   1
   3   1 -14 24.1100 5.88000   1
   3   1 -14 17.2900 4.82000   1
   2   5  14 4.11000 3.24000   1
   2   5  14 6.97000 2.28000   1
   4  -5  -2 1.33000 2.46000   1
   4  -5  -2 0.90000 9.32000   1
  -1   7   2 4.46000 2.14000   1
   1  -7  -2 4.82000 6.07000   1
  -1   7   2 2.06000 1.11000   1
   3  -5 -10 0.53000 2.84000   1
   3  -5 -10 0.12000 0.85000   1
   5   1  11 9.17000 2.94000   1
   5   1  11 7.93000 1.34000   1
   4   7  -1 2.87000 2.55000   1
   4   4  13 186.910 26.3000   1
   4   4  13 190.210 23.7100   1
   4   4  13 242.310 23.6700   1
   7   2   4 0.19000 2.23000   1
   7   2   4 0.43000 2.26000   1
   0  -6   6 50.6100 6.70000   1
   0  -6   6 74.2500 14.0700   1
   3  -5   4 12.1800 12.3700   1
   0  -2 -16 2.18000 3.96000   1
   0  -2 -16 1.41000 2.09000   1
   6   3   9 42.0000 5.94000   1
   6   3   9 28.8600 6.92000   1
   6  -2   2 0.35000 1.03000   1
   6  -2   2 6.66000 2.14000   1
   0   4 -11 13.2800 4.34000   1
   0  -4  11 7.76000 7.04000   1
   0   4 -11 15.1800 3.93000   1
   6   4  -6 0.45000 2.97000   1
   7   3   4 -0.3200 1.82000   1
   7   3   4 -0.4100 2.93000   1
   3   5  -9 11.9800 3.05000   1
  -3  -5   9 9.82000 4.03000   1
   4   1 -13 11.0000 3.92000   1
   4   1 -13 11.6600 3.13000   1
   4   1 -13 6.06000 3.97000   1
   7   1   3 19.4600 4.42000   1
   7   1   3 13.1100 4.50000   1
   1  -7  -6 14.8200 4.94000   1
   1  -7  -6 4.95000 1.79000   1
  -1   7   6 11.5100 3.06000   1
   7   2  -4 0.21000 2.27000   1
  -6   1   8 7.35000 2.68000   1
   6  -1  -8 20.1400 5.45000   1
   4   4 -10 27.9900 5.17000   1
  -1   5  -8 32.7600 5.47000   1
   1  -5   8 38.8200 11.7700   1
   4  -5  -5 0.05000 0.83000   1
   4  -5  -5 0.08000 1.11000   1
   4  -5  -5 0.96000 6.52000   1
   4  -5  -5 0.05000 2.14000   1
  -7  -1   4 1.39000 3.09000   1
   7   1  -4 10.2500 3.77000   1
  -5   2  -7 0.29000 1.20000   1
  -5   2  -7 0.14000 1.51000   1
   5  -2   7 -0.2100 0.71000   1
   7   4   1 0.29000 2.13000   1
   7   4   1 -0.2000 2.33000   1
   7   0  -1 -0.2300 1.70000   1
   7   0  -1 -0.4100 1.77000   1
  -7   0   1 -0.1200 2.17000   1
  -7   0   1 0.09000 1.72000   1
   6   2   9 13.8200 5.41000   1
   6   2   9 24.8400 3.35000   1
   6   2   9 34.4700 5.20000   1
   6  -2  -6 1.37000 3.31000   1
   1   1 -15 2.28000 2.75000   1
   1   1 -15 0.80000 3.03000   1
   0   7   9 7.27000 3.52000   1
   0   7   9 6.15000 2.52000   1
   0  -7  -9 12.2800 3.83000   1
   2   7  10 0.29000 1.51000   1
   2   7  10 1.98000 4.69000   1
   2   7  10 -0.7300 1.97000   1
  -4  -1 -13 26.0800 4.63000   1
   4   1  13 34.4700 5.60000   1
   4   1  13 24.8500 2.94000   1
   3   6  12 0.38000 3.77000   1
   3   6  12 3.30000 2.22000   1
   3   6  12 1.68000 2.67000   1
   6   1  -9 0.00000 2.42000   1
   6   1  -9 2.94000 2.92000   1
   0   2 -14 35.3400 5.97000   1
   0   2 -14 37.0200 6.47000   1
   0   2 -14 35.1800 6.67000   1
   0  -2  14 29.2900 7.24000   1
   4  -5  -1 8.97000 2.75000   1
   4  -5  -1 6.09000 12.8600   1
   4  -4 -10 78.9200 11.7500   1
   4  -4 -10 80.4800 9.57000   1
   4  -4 -10 48.5500 12.6200   1
   2   4  15 4.20000 2.75000   1
   2   4  15 1.13000 1.84000   1
   0  -1 -16 41.1100 7.02000   1
   0  -1 -16 41.4600 6.59000   1
   7   4   2 13.4300 5.01000   1
   7   4   2 9.56000 3.98000   1
   5   3 -10 16.9200 4.37000   1
   7   0   0 45.8700 5.89000   1
   7   0   0 13.0000 6.28000   1
  -7   0   0 31.8700 6.14000   1
  -7   0   0 26.5100 4.63000   1
   0   5  -9 158.480 15.7300   1
   0  -5   9 115.720 17.5600   1
   7   0  -2 0.35000 1.93000   1
  -7   0   2 0.01000 2.01000   1
   7   0  -2 2.47000 2.69000   1
   1   7  10 0.68000 2.29000   1
   1   7  10 2.69000 2.67000   1
   1   7  10 2.52000 8.93000   1
   7   4   0 1.25000 3.28000   1
   5  -4  -3 54.1100 7.21000   1
   5  -4  -3 40.5800 20.4400   1
  -1  -7   3 36.6900 8.69000   1
  -2  -6   7 2.47000 3.47000   1
   2   6  -7 0.78000 0.84000   1
  -2  -6   7 0.28000 2.61000   1
   1   3 -13 12.0600 3.17000   1
   1   3 -13 13.7300 4.56000   1
  -1  -3  13 5.93000 4.69000   1
   1   3 -13 5.37000 1.88000   1
   1   3 -13 15.6800 4.05000   1
   5  -4  -2 49.0100 22.4900   1
   5  -4  -2 65.0200 7.71000   1
   1  -7  -1 4.85000 5.74000   1
  -1   7   1 5.08000 1.70000   1
  -1   7   1 7.38000 2.40000   1
   0   1 -15 3.67000 2.92000   1
   0  -1  15 1.74000 2.67000   1
   0   1 -15 3.72000 3.14000   1
   0   1 -15 0.34000 1.17000   1
   3   4 -11 14.1100 3.34000   1
   3   4 -11 17.1000 4.96000   1
   3   4 -11 15.3500 4.07000   1
  -5   1  -9 35.0800 5.27000   1
  -1  -2 -16 33.8800 6.42000   1
  -1  -2 -16 35.6900 5.75000   1
   2   2 -14 2.77000 2.90000   1
   2   2 -14 0.14000 2.63000   1
   2   2 -14 1.49000 2.89000   1
   5   2 -11 -0.0900 3.06000   1
  -6   0   9 49.3500 7.63000   1
   6   0  -9 83.9900 10.0900   1
   2  -4 -14 0.59000 2.02000   1
   2  -4 -14 13.6200 4.05000   1
  -3  -7   3 10.4700 5.40000   1
  -3  -7   3 0.98000 3.03000   1
   3   7  -3 7.27000 1.95000   1
   5  -4  -4 0.64000 2.09000   1
   5  -4  -4 4.13000 8.69000   1
   5  -4  -4 0.02000 1.16000   1
  -1   6  -5 44.0400 5.54000   1
   1  -6   5 65.6000 12.5600   1
  -1   6  -5 49.3600 5.06000   1
   6   6   2 351.320 36.6600   1
   6   5  -4 111.090 12.6800   1
   4  -3 -12 3.02000 3.08000   1
   4  -3 -12 1.47000 1.95000   1
   4  -3 -12 0.63000 1.22000   1
   4  -3 -12 1.23000 4.48000   1
   4  -3 -12 0.78000 3.85000   1
   5  -3  -9 70.5600 10.0900   1
   5  -3  -9 66.0900 8.13000   1
   7   4   3 32.0400 5.92000   1
   0   7  -2 16.2800 3.15000   1
   0  -7   2 21.1300 7.41000   1
   0  -7   2 6.97000 2.91000   1
   6   6   3 116.310 15.0400   1
   1  -2 -16 13.1300 4.14000   1
   1  -2 -16 21.7400 5.66000   1
   4  -2 -13 45.5500 5.92000   1
   4  -2 -13 37.5100 6.26000   1
   4  -2 -13 45.1600 9.17000   1
   7   0   1 0.15000 1.51000   1
  -7   0  -1 -0.0500 1.57000   1
   7   0   1 -0.0500 1.13000   1
   1  -1 -16 9.19000 3.06000   1
   1  -1 -16 10.1900 4.77000   1
   4  -5  -6 1.17000 2.67000   1
   4  -5  -6 0.09000 1.28000   1
   7   0  -3 10.8000 3.39000   1
  -7   0   3 0.55000 2.61000   1
   7   0  -3 1.00000 2.86000   1
   2  -3 -15 108.510 13.2400   1
   2  -3 -15 142.640 16.5600   1
  -1  -6   7 23.8200 4.64000   1
  -1  -6   7 44.1500 9.77000   1
   5  -4  -1 19.7000 20.0100   1
   5  -4  -1 46.9300 6.19000   1
  -1   7   7 2.55000 2.34000   1
   1  -7  -7 2.91000 3.76000   1
  -1   7   7 1.27000 0.95000   1
   7   4  -1 -1.2800 2.85000   1
   0  -3 -16 1.02000 2.99000   1
   0  -3 -16 0.13000 1.78000   1
   0   3  16 0.42000 0.91000   1
   3  -6  -4 38.9500 11.3100   1
  -3   6   4 15.3800 4.11000   1
   3  -6  -4 29.5700 5.72000   1
   1   6  13 0.47000 2.60000   1
   1   6  13 6.95000 2.38000   1
  -3   6   3 1.13000 1.23000   1
   3  -6  -3 -0.3600 2.45000   1
   4  -4   5 11.8500 19.8800   1
  -4   4  -5 18.9700 2.81000   1
   4   6  11 15.2900 4.58000   1
   4   6  11 18.0400 3.77000   1
   4   7   8 11.6400 4.46000   1
   4   7   8 22.1000 3.90000   1
   5   6  -4 0.77000 1.99000   1
   2  -1  14 6.72000 8.45000   1
  -2   1 -14 9.13000 2.33000   1
  -2   1 -14 11.8800 3.78000   1
  -2   1 -14 8.45000 4.33000   1
   1  -4 -15 69.5300 8.16000   1
   1  -4 -15 60.9600 9.26000   1
  -1   4  15 57.5100 7.43000   1
   2   3 -13 0.75000 2.57000   1
   2   3 -13 1.67000 2.46000   1
   2   3 -13 2.91000 3.16000   1
   2   3 -13 -0.2500 8.33000   1
  -2  -3  13 0.30000 2.54000   1
   6   4   9 0.69000 2.70000   1
   6   4   9 1.77000 2.33000   1
  -2   6  -3 -0.1100 0.56000   1
   2  -6   3 4.01000 5.41000   1
   4  -5   0 63.2200 18.4100   1
   4  -5   0 98.7600 9.81000   1
   6   6   4 56.8700 9.14000   1
   1   3  16 1.38000 1.71000   1
  -1  -3 -16 3.55000 2.69000   1
   6   3  -8 20.0600 5.73000   1
   5  -4  -5 -0.0900 2.20000   1
   5  -4  -5 -0.2000 7.87000   1
   7   3   5 24.1200 4.91000   1
   7   3   5 19.9800 5.43000   1
   5   3  12 14.8400 3.15000   1
   5   3  12 23.8800 4.34000   1
   5   6   9 12.8900 3.22000   1
   5   6   9 14.3800 4.33000   1
  -3   6   5 6.05000 3.01000   1
   3  -6  -5 15.6100 7.59000   1
   3  -6  -5 13.8400 4.79000   1
   7   1   4 0.18000 1.80000   1
   7   1   4 -0.2300 1.43000   1
   7   2   5 0.83000 2.27000   1
   7   2   5 1.70000 2.37000   1
   3  -6  -2 12.3100 3.49000   1
   3  -6  -2 13.1500 10.7900   1
   4   7  -2 0.32000 1.76000   1
   6  -2   3 31.5400 4.06000   1
   6  -2   3 20.0700 2.97000   1
  -3   3 -10 12.2500 2.53000   1
   3  -3  10 12.6100 10.5000   1
  -3   3 -10 15.6200 4.22000   1
   5   5  -7 17.8100 4.67000   1
   2   6  13 46.5400 6.62000   1
   2   6  13 60.2100 6.62000   1
  -4  -6   6 15.2900 5.14000   1
   4   6  -6 29.2500 4.66000   1
   1   1  16 50.3100 6.05000   1
  -1  -1 -16 80.3200 10.6000   1
  -1  -1 -16 79.0800 9.25000   1
  -3   1 -13 0.97000 2.82000   1
  -3   1 -13 1.73000 2.55000   1
   3  -1  13 0.15000 8.75000   1
   7   1  -5 4.34000 3.25000   1
   6   2  -9 11.9300 4.46000   1
   5   7   3 21.3300 5.16000   1
   5   7   3 15.2800 5.38000   1
   3  -3 -14 2.42000 3.65000   1
   3  -3 -14 3.52000 2.73000   1
   7   3  -4 13.5800 4.70000   1
   2  -6 -10 11.7900 3.54000   1
   2  -6 -10 3.26000 3.32000   1
   2  -6 -10 2.51000 1.51000   1
  -2   6  10 5.56000 3.33000   1
   4  -3   8 11.3500 16.3500   1
  -4   3  -8 4.26000 2.32000   1
  -4   3  -8 8.38000 3.07000   1
  -4   2 -10 10.4400 3.06000   1
  -4   2 -10 12.6400 4.33000   1
   4  -2  10 6.63000 16.8400   1
   7   2  -5 23.9400 5.77000   1
   7   4   4 0.24000 2.23000   1
   0   3 -13 80.1000 9.71000   1
   0   3 -13 77.9600 10.2600   1
   0  -3  13 63.6000 12.4600   1
   0   3 -13 60.9300 7.30000   1
   6   6   0 3.06000 3.60000   1
   2   1 -15 4.55000 4.34000   1
   2   1 -15 3.25000 2.75000   1
   2   1 -15 5.97000 3.41000   1
   1  -7   0 3.02000 5.49000   1
  -1   7   0 1.01000 1.71000   1
   3   6  -7 100.170 9.84000   1
  -3  -6   7 99.5800 13.2000   1
   6   5   8 0.80000 2.64000   1
   6   5   8 0.75000 2.69000   1
   5   0 -12 0.39000 1.88000   1
   5   0 -12 -0.5700 2.52000   1
   5   0 -12 -0.2000 1.81000   1
   7   0   2 -0.7700 1.55000   1
   7   0   2 0.34000 1.54000   1
  -7   0  -2 0.07000 2.10000   1
   5   7   2 2.25000 2.99000   1
   5  -4   0 -0.6000 8.96000   1
   5  -4   0 0.29000 1.59000   1
   5   4  -9 58.3300 7.88000   1
  -6   1  -6 11.3200 4.86000   1
   6  -1   6 14.8700 3.03000   1
  -2   5  -7 1.05000 2.06000   1
  -2   5  -7 -0.0500 1.30000   1
   2  -5   7 2.74000 7.03000   1
   5   2  12 17.5600 3.64000   1
   5   2  12 10.4400 2.11000   1
   5   7   4 0.77000 2.15000   1
   5   7   4 0.14000 3.41000   1
  -3   0 -14 -0.0700 1.93000   1
   3   0  14 0.09000 8.45000   1
  -3   0 -14 2.76000 2.79000   1
  -3   0 -14 0.99000 2.50000   1
  -2   2 -13 7.72000 3.70000   1
   2  -2  13 7.17000 9.45000   1
  -2   2 -13 11.3400 4.30000   1
  -7   0   4 0.11000 2.06000   1
   7   0  -4 1.59000 2.43000   1
   5  -2 -11 34.6300 5.20000   1
   5  -2 -11 18.2800 2.92000   1
   5  -2 -11 35.7500 7.63000   1
   3   7  10 0.99000 2.04000   1
   3   7  10 0.95000 2.67000   1
   6  -2  -7 12.2000 4.90000   1
   7   4  -2 90.3100 12.0200   1
  -2   0 -15 11.6600 3.95000   1
  -2   0 -15 11.6300 4.45000   1
  -2   0 -15 6.31000 2.48000   1
   2   0  15 5.54000 7.92000   1
   3   3  15 0.79000 1.41000   1
   3   3  15 1.95000 2.48000   1
   5   5  11 26.0500 5.84000   1
   5   5  11 26.2500 5.10000   1
   6   6   5 2.72000 3.38000   1
   6   6   5 3.68000 3.23000   1
   3   2  15 0.01000 1.53000   1
   3   2  15 -0.1600 1.05000   1
   3  -6  -6 0.99000 1.53000   1
  -3   6   6 2.42000 2.11000   1
  -1   5  14 -0.0800 1.52000   1
   1  -5 -14 -0.0600 1.46000   1
   1  -5 -14 0.49000 2.01000   1
   5  -3   5 71.6000 6.27000   1
   5  -3   5 83.7400 31.6400   1
   4  -5  -7 0.99000 5.59000   1
   4  -5  -7 0.43000 2.90000   1
   4  -5  -7 0.03000 1.32000   1
  -2  -7   4 2.36000 4.15000   1
  -2  -7   4 24.8500 6.96000   1
   1  -6 -12 64.6100 11.4300   1
  -1   6  12 149.020 15.6800   1
   3  -6  -1 57.5500 6.66000   1
   3  -1 -15 49.3600 11.1000   1
   3  -1 -15 58.8600 7.79000   1
   6   1   9 25.3400 3.84000   1
   6   1   9 12.3100 3.84000   1
   6   1   9 19.0600 2.16000   1
   5  -4  -6 62.4400 8.82000   1
   5  -4  -6 33.2000 18.0000   1
   5   7   1 4.05000 2.74000   1
   1  -7  -8 4.23000 4.17000   1
  -1   7   8 5.12000 3.03000   1
  -3   4  -8 6.58000 2.71000   1
  -3   4  -8 16.9500 3.68000   1
   3  -4   8 20.4200 13.5000   1
   3  -4 -13 -0.3100 1.32000   1
   3  -4 -13 0.52000 1.68000   1
   0  -7 -10 38.9100 5.68000   1
   0   7  10 22.8200 4.92000   1
   0   7  10 43.4500 6.48000   1
   0   6  13 2.01000 2.64000   1
   0   6  13 3.89000 2.48000   1
   5   7   5 28.9900 7.62000   1
   5   7   5 38.0800 6.90000   1
   3  -5 -11 31.3700 5.59000   1
   3  -5 -11 26.5200 5.43000   1
   3  -5 -11 13.2400 2.79000   1
   5   1 -12 32.2800 4.99000   1
   5   1 -12 35.8100 6.51000   1
   5   1 -12 36.0100 7.61000   1
   0   0 -16 23.5000 6.17000   1
   0   0  16 12.4800 1.93000   1
   3   5  14 5.81000 3.14000   1
   3   5  14 3.50000 1.78000   1
   3  -5   5 7.21000 12.6400   1
   1  -3 -16 -0.3800 2.51000   1
  -2  -5  10 22.0600 6.61000   1
   2   5 -10 39.2200 6.80000   1
   2   5 -10 30.5800 3.84000   1
   4  -5   1 1.20000 9.74000   1
   4  -5   1 0.72000 1.14000   1
   1   0 -16 31.2100 5.61000   1
   1   0 -16 29.5700 6.69000   1
   5   4  12 59.5400 7.04000   1
   5   4  12 46.4200 7.35000   1
   6   0   8 4.21000 2.58000   1
  -6   0  -8 3.65000 3.69000   1
   6   0   8 11.6100 2.57000   1
   6  -1  -9 -0.0900 2.36000   1
  -6   1   9 -0.0800 1.34000   1
   6  -1  -9 0.48000 1.68000   1
   6   4  -7 5.20000 4.08000   1
   2  -5 -13 0.34000 2.95000   1
  -2   5  13 1.37000 1.87000   1
   2  -5 -13 0.05000 1.79000   1
   1  -1  15 4.52000 5.23000   1
  -1   1 -15 10.0100 3.26000   1
  -1   1 -15 7.58000 3.84000   1
  -1   1 -15 2.88000 1.87000   1
   6   6  -1 23.4500 5.94000   1
   3   0 -15 4.00000 4.62000   1
   3   0 -15 9.87000 3.17000   1
   3   0 -15 10.6600 4.71000   1
   5  -1 -12 1.48000 3.55000   1
   5  -1 -12 -0.1600 2.47000   1
   5  -1 -12 -0.7800 1.93000   1
   4   3  14 0.42000 1.07000   1
   4   3  14 0.62000 1.68000   1
  -1  -5  10 28.8500 9.06000   1
   1   5 -10 34.0200 6.11000   1
   2   7  11 2.26000 2.03000   1
   2   7  11 1.55000 6.54000   1
   2   7  11 1.16000 2.62000   1
   1  -2  14 47.3400 11.9700   1
  -1   2 -14 53.3800 8.65000   1
  -1   2 -14 48.8800 7.71000   1
   4   3 -12 19.3500 4.82000   1
   4   3 -12 19.9700 5.39000   1
   4   3 -12 21.0300 4.46000   1
   7   4   5 53.5100 9.52000   1
   7   4   5 59.0100 8.30000   1
   1   7  11 0.95000 2.03000   1
   1   7  11 3.36000 2.18000   1
   1   7  11 1.33000 8.98000   1
  -3   2 -12 6.11000 3.69000   1
   3  -2  12 3.51000 9.73000   1
  -3   2 -12 7.04000 3.20000   1
  -1  -7   4 0.65000 4.96000   1
   4   5  13 2.82000 2.08000   1
   4   5  13 0.72000 2.67000   1
   4   5  13 5.68000 2.76000   1
   5  -4   1 -0.2100 1.32000   1
   5  -4   1 4.90000 10.2500   1
   6   3  10 -0.4400 2.16000   1
   6   3  10 0.49000 1.29000   1
   6   3  10 0.62000 1.82000   1
   4   2 -13 33.5700 5.36000   1
   4   2 -13 38.5100 7.14000   1
   4   2 -13 31.1300 6.97000   1
   4   7   9 -1.2700 2.61000   1
   7   0   3 0.66000 1.93000   1
   7   0   3 0.10000 1.82000   1
  -7   0  -3 0.31000 2.04000   1
   1   5  15 31.7200 4.85000   1
   1   5  15 33.1600 6.76000   1
   0  -7   3 0.35000 2.14000   1
   0   7  -3 2.90000 1.75000   1
   0  -7   3 0.84000 5.48000   1
   6   5  -5 1.12000 3.04000   1
  -3  -7   4 16.6000 7.22000   1
   3   7  -4 19.2300 3.25000   1
   7   3   6 31.3300 5.08000   1
   7   3   6 16.8900 6.34000   1
  -2  -2 -16 2.48000 2.44000   1
   2   2  16 1.75000 4.45000   1
   2   2  16 0.93000 1.57000   1
   4   2  14 10.4900 3.02000   1
   4   2  14 6.25000 2.07000   1
  -7   0   5 47.4300 6.96000   1
   7   0  -5 106.590 11.7800   1
  -1  -4  12 62.9300 12.4700   1
   1   4 -12 95.6500 10.7200   1
   1   4 -12 77.9500 7.61000   1
   1   4 -12 81.6900 10.0000   1
   3  -6  -7 6.80000 6.68000   1
   3  -6  -7 2.12000 2.06000   1
  -3   6   7 3.58000 2.13000   1
   4  -4 -11 15.1600 2.83000   1
   4  -4 -11 21.9200 4.87000   1
   4  -4 -11 22.3300 6.52000   1
   7   1   5 0.70000 2.38000   1
   7   1   5 1.16000 2.12000   1
   5   7   0 9.86000 3.21000   1
  -1   4 -11 69.4100 8.98000   1
   1  -4  11 60.5800 14.9300   1
  -1   4 -11 60.7100 7.65000   1
   6   6   6 1.91000 2.76000   1
   6   6   6 1.87000 3.92000   1
   7   4  -3 2.82000 3.92000   1
   3  -6   0 34.9400 11.8400   1
   4   0 -14 3.37000 4.91000   1
   4   0 -14 2.92000 3.01000   1
   4   0 -14 2.36000 3.57000   1
  -1   7  -1 12.8400 3.52000   1
   1  -7   1 25.0100 8.69000   1
   2  -1 -16 3.76000 3.39000   1
   2  -1 -16 -0.0600 2.21000   1
   2   8   4 4.39000 2.91000   1
  -2  -8  -4 10.3000 3.28000   1
   0  -6   7 1.49000 4.98000   1
   5   7   6 17.5000 6.22000   1
   5   7   6 23.2900 4.94000   1
   2   4 -12 32.6600 5.69000   1
   2   4 -12 29.9700 4.63000   1
  -2  -4  12 30.1700 6.78000   1
   2   4 -12 37.7700 6.43000   1
   3  -2 -15 76.0800 10.0800   1
   3  -2 -15 67.3900 8.82000   1
   2   3  16 7.74000 2.41000   1
   5   0  11 12.6600 3.74000   1
  -5   0 -11 4.92000 2.88000   1
   7   2   6 1.95000 2.42000   1
   7   2   6 1.17000 2.73000   1
   6  -2   4 2.44000 1.75000   1
  -6   2  -4 0.95000 1.51000   1
   4  -1 -14 27.2400 5.01000   1
   4  -1 -14 29.5700 6.25000   1
   4  -1 -14 37.2700 8.28000   1
   7   1  -6 15.2200 4.35000   1
   3   2 -14 31.5300 5.20000   1
   3   2 -14 36.4700 6.66000   1
   3   2 -14 29.8800 6.35000   1
   2   8   3 0.42000 2.33000   1
   2   8   3 0.51000 2.71000   1
  -2  -8  -3 2.00000 2.96000   1
   5  -3 -10 53.8400 8.97000   1
   5  -3 -10 17.6600 16.9700   1
   5  -3 -10 63.4800 8.16000   1
   4   7  -3 116.930 12.1700   1
   7   3  -5 10.9200 4.29000   1
   5  -2   8 12.6700 17.6000   1
  -5   2  -8 7.69000 3.41000   1
   2   8   5 22.3800 4.56000   1
  -2  -8  -5 18.9400 4.79000   1
   3   3 -13 120.590 14.0700   1
   3   3 -13 127.480 14.6300   1
   3   3 -13 137.840 14.5600   1
   6   2  10 5.63000 3.23000   1
   6   2  10 10.2600 3.45000   1
   6   2  10 7.38000 1.69000   1
   6   1 -10 0.46000 2.72000   1
   5   6  -5 53.8400 7.95000   1
   5  -4  -7 4.87000 2.63000   1
   5  -4  -7 1.49000 11.8000   1
   5  -4  -7 9.61000 3.73000   1
   3   4  15 0.21000 2.27000   1
   3   4  15 0.69000 1.36000   1
   1   4  16 17.3500 3.69000   1
   2  -6   4 3.07000 7.27000   1
   7   2  -6 42.3800 8.01000   1
   4  -5  -8 193.700 26.9800   1
   4  -5  -8 157.620 17.4100   1
   4  -5  -8 232.080 24.9000   1
   6   0 -10 1.19000 3.49000   1
   6   0 -10 0.25000 2.63000   1
  -2   4 -10 21.8000 4.66000   1
   2  -4  10 13.9600 11.3600   1
   2  -2 -16 10.7300 3.40000   1
   2  -2 -16 13.1100 4.74000   1
  -4   0 -13 24.4500 4.69000   1
   4   0  13 38.5400 18.0500   1
   3   6  13 2.54000 1.93000   1
   3   6  13 4.29000 3.19000   1
   0   5  15 3.12000 2.66000   1
   3   1  15 29.3600 13.7600   1
  -3  -1 -15 35.9300 6.45000   1
   6  -3  -2 31.0600 5.61000   1
   6  -3  -3 0.06000 2.12000   1
   1  -6   6 -0.0100 4.00000   1
  -1   6  -6 0.08000 1.01000   1
   0   4  16 70.8000 9.19000   1
   0  -4 -16 76.3700 9.08000   1
   0  -4 -16 84.9000 10.6500   1
   5   6  10 3.05000 3.65000   1
   5   6  10 9.57000 2.90000   1
   6  -2  -8 1.73000 3.99000   1
  -2  -8  -2 1.82000 3.00000   1
   2   8   2 0.46000 2.24000   1
   5   1  12 27.1400 4.10000   1
   5   1  12 19.6800 2.63000   1
   4  -4   6 3.80000 9.41000   1
  -4   4  -6 0.55000 1.48000   1
   1  -7  -9 2.54000 4.16000   1
  -1   7   9 4.55000 3.21000   1
  -4   1 -12 1.05000 2.56000   1
  -4   1 -12 1.56000 2.45000   1
   4  -1  12 3.31000 12.1400   1
   2   8   6 11.8500 4.23000   1
  -2  -8  -6 10.1000 3.33000   1
   6   6  -2 -0.5500 2.20000   1
   4   4  14 2.42000 2.88000   1
   4   4  14 1.43000 1.65000   1
   2   5  15 3.06000 2.43000   1
   2   5  15 6.21000 2.24000   1
  -1   5  -9 36.1000 5.63000   1
   1  -5   9 26.9400 9.66000   1
   6   4  10 12.0300 2.85000   1
   6   4  10 12.2400 4.32000   1
   6   4  10 19.6200 4.49000   1
   3   8   4 1.04000 2.51000   1
   7   5   2 32.0700 6.46000   1
   7   5   2 37.0400 7.29000   1
   6   5   9 3.23000 3.37000   1
   6   5   9 4.60000 3.01000   1
   6  -3  -1 25.5300 4.98000   1
  -3  -5  10 63.2500 8.86000   1
   3   5 -10 85.6400 8.92000   1
  -1   0 -16 4.23000 3.11000   1
  -1   0 -16 8.24000 4.19000   1
   1   0  16 2.45000 3.40000   1
  -2  -6   8 1.42000 4.47000   1
   7  -1  -1 0.89000 2.37000   1
   7  -1  -2 48.1700 7.32000   1
   2  -6 -11 3.58000 3.21000   1
  -2   6  11 3.54000 2.47000   1
   2  -6 -11 0.45000 2.40000   1
   2  -6 -11 0.32000 1.51000   1
  -1  -8  -4 -1.0300 2.99000   1
   1   8   4 -0.2900 1.94000   1
   1   8   4 1.42000 1.94000   1
   7   5   1 21.2600 5.72000   1
  -3  -8  -3 1.74000 2.17000   1
   4  -5   2 3.93000 10.3000   1
  -2   3 -12 23.7400 5.63000   1
   2  -3  12 28.1000 10.3100   1
  -2   3 -12 24.2100 4.51000   1
   4   6  12 0.72000 1.60000   1
   4   6  12 -1.2400 1.85000   1
   6  -3  -4 2.35000 2.53000   1
  -1  -8  -5 4.61000 3.57000   1
   1   8   5 3.12000 2.78000   1
   1   8   5 7.94000 3.32000   1
   4   4 -11 5.42000 3.47000   1
   1   8   3 10.3700 4.21000   1
   1   8   3 15.0700 4.11000   1
  -1  -8  -3 18.8000 5.03000   1
   3   8   5 91.0300 10.5500   1
  -5   1 -10 12.1600 4.52000   1
   5   7  -1 2.20000 2.85000   1
   5   3 -11 18.8000 5.29000   1
   7   5   3 30.1800 6.67000   1
   7   5   3 16.3200 5.86000   1
   7   4   6 88.7800 10.7500   1
   7   4   6 84.2200 11.7900   1
   2   0 -16 49.2200 8.21000   1
   2   0 -16 53.4100 7.62000   1
   3   7  11 0.77000 1.73000   1
   3   7  11 0.92000 2.77000   1
   5  -4   2 6.20000 19.8600   1
   5  -4   2 21.2400 2.88000   1
   2   1  16 29.7500 9.30000   1
  -2  -1 -16 28.0000 6.22000   1
  -2  -1 -16 37.6600 6.43000   1
   4  -3 -13 79.0800 9.19000   1
   4  -3 -13 88.3100 11.4100   1
   4  -3 -13 93.9400 13.8100   1
   7  -1   0 1.02000 2.27000   1
   7  -1  -3 8.12000 2.88000   1
   7  -1  -3 12.9800 3.50000   1
   5   7   7 14.9000 4.40000   1
   5   7   7 14.1300 5.21000   1
   3  -6  -8 0.35000 3.88000   1
  -3   6   8 0.48000 1.47000   1
   3  -6  -8 -0.1400 1.59000   1
   7   5   0 56.9500 9.58000   1
   6   3  -9 12.1700 5.19000   1
   6  -1   7 10.1500 3.03000   1
   6  -1   7 19.0500 2.92000   1
   7   0   4 -1.0400 1.91000   1
   7   0   4 0.19000 1.61000   1
  -1   3 -13 59.3700 8.31000   1
  -1   3 -13 64.3400 8.59000   1
   1  -3  13 51.4700 10.7500   1
  -3  -8  -2 -0.5600 1.85000   1
   3  -6   1 77.3400 18.9500   1
   6   6   7 31.3100 5.96000   1
   6   6   7 21.1300 6.56000   1
   0  -4  12 27.4500 9.07000   1
   0   4 -12 34.6300 5.41000   1
   0   4 -12 27.8300 5.63000   1
   0  -5  10 46.7100 11.6700   1
   0   5 -10 60.8000 7.56000   1
  -1  -6   8 10.3400 7.13000   1
   7   0  -6 -0.0900 2.18000   1
   2   8   1 20.3600 4.13000   1
  -2  -8  -1 21.4300 5.55000   1
   4   6  -7 19.9200 3.91000   1
   0   7  11 1.16000 1.91000   1
   0  -7 -11 0.65000 1.44000   1
   0   7  11 0.47000 1.57000   1
   4   1 -14 13.1300 4.63000   1
   4   1 -14 19.0100 4.41000   1
   4   1 -14 14.8900 5.48000   1
   1   6  14 36.3100 5.27000   1
   1   6  14 26.9800 6.08000   1
   6  -3   0 36.8200 5.31000   1
   5   2 -12 0.13000 2.41000   1
   5   2 -12 -0.2900 2.73000   1
   5  -3   6 6.27000 16.3900   1
  -5   3  -6 9.13000 2.50000   1
   5   5  -8 1.19000 2.73000   1
   1   8   6 1.25000 1.97000   1
   1   8   6 0.20000 2.39000   1
  -1  -8  -6 0.37000 3.09000   1
   7   4  -4 1.99000 3.97000   1
  -1  -8  -2 184.140 21.4400   1
   1   8   2 176.640 20.5500   1
   1   8   2 109.010 21.2400   1
  -2  -7   5 14.3600 6.91000   1
   3   1 -15 186.560 20.9900   1
   3   1 -15 148.860 17.8700   1
   3   1 -15 188.930 19.1800   1
   2  -4 -15 16.5000 5.55000   1
   2  -4 -15 14.8900 3.83000   1
  -2   7   4 0.13000 1.75000   1
   2  -7  -4 0.98000 4.53000   1
   2   8   7 54.8900 8.24000   1
   2   8   7 17.2700 7.61000   1
  -2  -8  -7 62.5100 7.00000   1
   6  -3  -5 10.2300 3.33000   1
   3   8   6 0.41000 2.77000   1
   3   8   6 2.09000 3.21000   1
   1   2 -15 49.8800 7.69000   1
   1   2 -15 45.1000 7.16000   1
   1   2 -15 42.6800 7.22000   1
  -1  -2  15 25.9200 5.56000   1
   6   2 -10 11.1300 4.41000   1
   4   1  14 16.6100 3.77000   1
   4   1  14 9.53000 2.07000   1
   2  -7  -3 2.66000 4.84000   1
  -2   7   3 -0.0600 1.81000   1
   7   5   4 9.63000 3.71000   1
   7   5   4 8.53000 3.48000   1
   1  -7   2 -1.0200 5.78000   1
  -1   7  -2 1.08000 1.40000   1
   4  -2 -14 21.6100 5.23000   1
   4  -2 -14 31.1900 8.73000   1
   4  -2 -14 28.3900 5.11000   1
   2  -7  -5 -1.3900 4.81000   1
  -2   7   5 -0.4700 2.00000   1
   7   3   7 41.0400 6.14000   1
   7   3   7 19.1600 6.76000   1
   2   4  16 29.0000 5.89000   1
   2   4  16 9.16000 3.57000   1
   7  -1   1 16.0900 3.60000   1
   7  -1   1 6.69000 2.40000   1
   7  -1  -4 14.3200 3.81000   1
   7  -1  -4 11.6600 3.05000   1
   3   4 -12 38.0000 5.85000   1
   3   4 -12 40.8000 6.21000   1
   3   4 -12 36.2300 7.34000   1
   7   1   6 14.4700 5.11000   1
   7   1   6 30.6200 4.43000   1
   4   7  10 7.39000 3.76000   1
   4   7  10 11.3200 3.43000   1
   5  -4  -8 22.8400 6.34000   1
   5  -4  -8 23.9500 4.57000   1
   5  -4  -8 6.98000 14.4500   1
   2   6  14 31.7700 6.63000   1
   2   6  14 56.7800 6.20000   1
   7   5  -1 22.7400 5.35000   1
   0  -2 -17 2.52000 3.92000   1
   0  -2 -17 0.91000 2.29000   1
   5  -2 -12 1.24000 3.76000   1
   5  -2 -12 0.64000 2.45000   1
   3   6  -8 7.61000 2.24000   1
  -3  -6   8 5.92000 5.31000   1
   3  -5 -12 0.36000 2.27000   1
   3  -5 -12 -0.0400 1.20000   1
   4  -3   9 10.1500 15.3700   1
  -4   3  -9 3.56000 2.84000   1
   1  -6 -13 8.61000 2.74000   1
   1  -6 -13 3.42000 4.21000   1
  -1   6  13 11.3600 4.04000   1
   5   5  12 66.2400 9.65000   1
   5   5  12 68.8200 9.45000   1
  -3  -8  -1 7.26000 2.83000   1
  -2   5  -8 60.1500 7.88000   1
   2  -5   8 56.5000 17.1400   1
   6  -1 -10 7.54000 4.88000   1
   6  -1 -10 4.04000 2.93000   1
   5   3  13 25.4300 4.62000   1
   5   3  13 18.8300 4.24000   1
   7   1  -7 0.73000 3.36000   1
  -3   5  -6 38.9800 5.28000   1
   3  -5   6 47.3700 16.5900   1
   4  -5  -9 0.03000 3.02000   1
   4  -5  -9 -0.3700 5.09000   1
   4  -5  -9 0.31000 1.82000   1
   0  -7   4 21.0900 8.45000   1
   0   7  -4 24.9400 4.13000   1
   2  -7  -2 9.76000 3.59000   1
  -2   7   2 8.11000 3.33000   1
   2  -7  -2 21.1500 7.09000   1
  -6   2  -5 7.11000 2.50000   1
   7   3  -6 6.01000 4.20000   1
   6   5  -6 -0.8000 3.02000   1
   7   2   7 2.54000 3.05000   1
   7   2   7 2.76000 2.59000   1
   5   4 -10 15.3000 4.66000   1
   2   7  12 14.2700 4.79000   1
   2   7  12 22.9000 4.03000   1
  -2   7   6 31.2500 7.06000   1
   2  -7  -6 73.8600 12.1900   1
   6   1  10 0.21000 1.66000   1
   6   1  10 0.18000 1.49000   1
   1   7  12 7.48000 3.03000   1
   1   7  12 10.2600 3.62000   1
   1   8   7 1.39000 2.56000   1
   1   8   7 1.08000 2.08000   1
  -1  -8  -7 0.60000 2.66000   1
   6   4  -8 22.0300 5.26000   1
   6   6  -3 1.41000 2.59000   1
   4   7  -4 26.6600 4.61000   1
  -3  -7   5 3.00000 4.42000   1
   3   7  -5 2.75000 1.85000   1
  -1  -7   5 0.53000 3.98000   1
   1   8   1 23.3700 4.78000   1
  -1  -8  -1 22.1800 6.89000   1
  -1  -3  14 9.81000 4.71000   1
   1   3 -14 19.0000 4.77000   1
   1   3 -14 23.5000 4.96000   1
   1   3 -14 15.4300 4.04000   1
   2  -3 -16 0.71000 2.57000   1
   2  -3 -16 1.36000 3.08000   1
   6  -3   1 0.02000 1.27000   1
   0   2 -15 36.9600 7.23000   1
   0   2 -15 44.2100 7.50000   1
   0   2 -15 46.8500 7.88000   1
   0  -2  15 29.0500 8.03000   1
   1  -4 -16 160.570 17.9000   1
   1  -4 -16 192.610 22.0500   1
  -3   3 -11 15.9900 4.23000   1
  -3   3 -11 13.2000 3.14000   1
   3  -3  11 16.0200 13.6000   1
   1   1 -16 4.36000 3.81000   1
   1   1 -16 2.62000 3.96000   1
   1   1 -16 3.28000 2.80000   1
   6   0   9 3.14000 2.15000   1
   6   0   9 3.11000 1.89000   1
  -2  -8   0 3.72000 3.95000   1
   5   0 -13 58.2900 8.17000   1
   5   0 -13 61.9900 10.2600   1
   5   0 -13 55.2300 7.18000   1
   3   8   7 0.57000 2.78000   1
   3   8   7 1.15000 2.62000   1
  -4   2 -11 60.5700 9.31000   1
   4  -2  11 75.2100 24.1700   1
  -4   2 -11 46.9600 6.53000   1
   7   2  -7 44.8500 7.65000   1
   5   7  -2 0.25000 1.69000   1
   0  -1 -17 11.4200 4.61000   1
   2   2 -15 1.46000 3.31000   1
   2   2 -15 0.69000 2.94000   1
   2   2 -15 2.21000 3.10000   1
  -1   7  10 4.51000 2.72000   1
   1  -7 -10 2.81000 3.36000   1
   0   6  14 1.14000 2.42000   1
   3  -3 -15 2.72000 3.02000   1
   3  -3 -15 6.10000 4.04000   1
   6  -3  -6 3.51000 3.95000   1
   7   5   5 17.0700 4.64000   1
   7   5   5 8.95000 4.53000   1
  -1  -2 -17 4.51000 2.93000   1
  -1  -2 -17 8.34000 4.75000   1
   5   2  13 0.30000 0.90000   1
   5   2  13 -0.2300 1.42000   1
   5   7   8 -0.3100 2.43000   1
   5   7   8 2.71000 2.68000   1
   4  -5   3 16.7000 16.1800   1
  -3   4  -9 23.5700 4.86000   1
   3  -4   9 39.3600 13.0000   1
   3  -4 -14 0.80000 3.33000   1
   3  -4 -14 1.16000 2.34000   1
   6  -2  -9 77.4900 9.57000   1
   6  -2  -9 68.9400 10.1400   1
   2   8   8 22.3900 5.37000   1
   2   8   8 18.5100 5.65000   1
   1  -5 -15 15.3200 5.35000   1
   1  -5 -15 12.9800 3.65000   1
  -1   5  15 10.9100 3.24000   1
   0   1 -16 9.25000 4.12000   1
   0  -1  16 3.76000 2.77000   1
   0   1 -16 4.03000 3.96000   1
   4  -4 -12 0.18000 1.40000   1
   4  -4 -12 0.77000 4.31000   1
   4  -4 -12 0.54000 2.66000   1
   7  -1   2 1.82000 1.90000   1
   7  -1   2 8.55000 2.68000   1
   3  -6  -9 0.05000 4.23000   1
   3  -6  -9 0.39000 2.09000   1
  -3   6   9 0.77000 1.38000   1
   7  -1  -5 10.0200 3.16000   1
   7  -1  -5 14.6900 4.82000   1
   5  -3 -11 2.16000 3.36000   1
   5  -3 -11 3.60000 4.26000   1
   5  -3 -11 1.03000 8.59000   1
   0  -3 -17 5.10000 3.25000   1
   0  -3 -17 2.60000 3.97000   1
   1  -2 -17 0.60000 2.73000   1
   1  -2 -17 0.15000 1.99000   1
   5  -4   3 3.12000 15.4800   1
   7   4   7 31.7400 5.51000   1
   7   4   7 14.6200 4.89000   1
   5   6  -6 98.3300 11.5000   1
   2   3 -14 70.0200 8.71000   1
   2   3 -14 69.1800 8.89000   1
   2   3 -14 74.4000 9.85000   1
  -2  -3  14 37.4300 6.61000   1
   2  -5 -14 0.29000 1.91000   1
   2  -5 -14 1.28000 3.21000   1
  -2   5  14 0.65000 1.49000   1
   2  -7  -1 73.5100 12.5500   1
  -2   7   1 18.5900 4.91000   1
   7   5  -2 -0.3700 2.86000   1
   3  -6   2 18.3000 12.0300   1
   6   3  11 -0.1400 1.17000   1
   6   3  11 1.37000 1.30000   1
   6   3  11 -0.2800 2.32000   1
   2  -6   5 1.92000 9.28000   1
   5   4  13 25.9400 4.65000   1
   5   4  13 17.2800 3.97000   1
  -2   1 -15 24.0100 5.39000   1
  -2   1 -15 21.5900 6.19000   1
   6   6   8 16.8200 5.14000   1
   6   6   8 13.1700 5.38000   1
   1  -1 -17 33.7900 6.07000   1
   1  -1 -17 29.1900 6.23000   1
   7   0   5 17.4900 4.33000   1
   7   0   5 22.5100 3.72000   1
  -3  -8   0 13.7100 3.36000   1
  -2   7   7 0.53000 1.78000   1
   1   3  17 7.03000 2.59000   1
  -1  -3 -17 9.13000 3.02000   1
  -1  -3 -17 12.9500 5.07000   1
  -3   1 -14 4.26000 3.62000   1
   3  -1  14 3.08000 11.0300   1
  -3   1 -14 5.56000 3.87000   1
   7   0  -7 0.39000 3.24000   1
   5  -1 -13 9.58000 3.64000   1
   5  -1 -13 3.38000 3.07000   1
   5  -1 -13 4.67000 4.73000   1
   5   6  11 1.45000 2.89000   1
   5   6  11 0.10000 2.00000   1
   5   1 -13 7.97000 5.12000   1
   5   1 -13 8.66000 3.14000   1
   5   1 -13 3.88000 3.66000   1
   0  -8  -4 1.33000 4.43000   1
   0   8   4 1.18000 2.20000   1
   7   4  -5 42.4200 7.88000   1
   3   5  15 3.46000 2.72000   1
   3   5  15 1.82000 1.82000   1
   6   5  10 2.18000 2.87000   1
   6   5  10 2.04000 2.48000   1
   6   5  10 0.63000 1.95000   1
   1   8   8 47.4400 7.48000   1
  -1  -8  -8 41.9400 6.72000   1
   0  -8  -5 -0.2800 4.32000   1
   0   8   5 1.90000 2.14000   1
   4   5  14 0.95000 1.78000   1
   4   5  14 -0.3900 1.17000   1
   0  -3  14 40.6700 10.6400   1
   0   3 -14 60.6100 8.44000   1
   0   3 -14 63.8800 8.28000   1
   0  -6   8 3.91000 5.41000   1
  -2   6  12 1.89000 2.17000   1
   2  -6 -12 0.81000 2.73000   1
   2  -6 -12 0.86000 1.73000   1
   1   8   0 0.73000 1.86000   1
  -5   2  -9 10.2200 4.11000   1
   0  -8  -3 85.0200 11.7700   1
   0   8   3 57.4200 8.76000   1
  -2   2 -14 22.6100 5.28000   1
   2  -2  14 20.9600 10.9000   1
  -2   2 -14 20.5700 6.15000   1
   3   3  16 2.48000 2.88000   1
   3   3  16 0.64000 1.48000   1
  -2  -5  11 26.1100 8.31000   1
   2   5 -11 46.0000 7.50000   1
   6   0 -11 3.51000 4.83000   1
  -3   0 -15 6.21000 4.47000   1
  -3   0 -15 11.5900 4.21000   1
   3   0  15 2.45000 11.4600   1
   6   1 -11 1.25000 4.34000   1
   6   1 -11 2.76000 2.82000   1
   4   8   2 7.16000 2.15000   1
   6   2  11 2.63000 1.89000   1
   6   2  11 1.25000 1.18000   1
   4  -4   7 5.43000 9.62000   1
  -4   4  -7 -0.2100 1.46000   1
   6  -3   2 0.31000 1.53000   1
  -1  -1 -17 14.9300 4.42000   1
  -1  -1 -17 20.6800 6.02000   1
   2   1 -16 19.9300 4.81000   1
   2   1 -16 20.1900 6.01000   1
   2   1 -16 14.8400 4.67000   1
   3   8   8 19.3200 4.66000   1
   3   8   8 5.82000 4.55000   1
   5  -4  -9 29.4400 7.65000   1
   5  -4  -9 26.1900 4.81000   1
   5  -4  -9 9.67000 14.6300   1
   1  -6   7 16.1900 10.2000   1
   3   2  16 14.4100 3.65000   1
   3   2  16 14.1900 10.9700   1
  -1  -5  11 30.1800 7.77000   1
   1   5 -11 34.5300 5.95000   1
   1  -7   3 13.6000 8.77000   1
  -1   7  -3 10.9800 2.46000   1
   3  -1 -16 1.61000 3.41000   1
   3  -1 -16 0.81000 2.90000   1
   3  -1 -16 1.37000 3.86000   1
   6   4  11 0.38000 1.77000   1
   6   4  11 0.31000 1.40000   1
   3   7  12 0.11000 2.69000   1
   3   7  12 2.16000 1.99000   1
   0   8   6 0.70000 2.00000   1
   0  -8  -6 0.48000 3.28000   1
   7   5   6 20.9500 4.78000   1
   7   5   6 12.6500 4.44000   1
   4   5 -10 0.83000 2.46000   1
  -2  -8   1 35.6200 8.07000   1
   4   3  15 10.3600 2.62000   1
   6  -3  -7 15.7000 5.52000   1
   0   7  12 3.41000 2.26000   1
   0   7  12 3.86000 3.24000   1
   2   0  16 1.22000 5.40000   1
  -2   0 -16 1.04000 3.24000   1
  -2   0 -16 1.72000 3.33000   1
   3   6  14 39.7700 5.68000   1
   3   6  14 29.4400 5.78000   1
   7   3   8 0.10000 2.16000   1
   7   3   8 0.60000 2.59000   1
   1   5  16 9.34000 2.79000   1
   4   3 -13 31.1800 5.66000   1
   4   3 -13 27.5500 5.21000   1
   4   3 -13 34.7900 6.28000   1
   5   0  12 19.4100 4.77000   1
  -2   7   0 1.50000 1.69000   1
   2  -7   0 2.50000 6.68000   1
   0   8   2 8.05000 2.86000   1
   0  -8  -2 6.69000 5.06000   1
   7  -1   3 42.4800 5.18000   1
   7  -1   3 23.3400 3.51000   1
   4   8   6 1.49000 2.93000   1
   7   1   7 13.9000 5.31000   1
   7   1   7 38.2700 5.26000   1
   6  -1   8 26.3400 3.49000   1
   6  -1   8 18.7400 4.19000   1
   7  -1  -6 9.61000 3.88000   1
   4   6  13 2.59000 3.24000   1
   4   6  13 2.07000 1.86000   1
   1  -3 -17 -0.3000 1.83000   1
   1  -3 -17 0.27000 2.94000   1
   6   6  -4 11.2100 4.62000   1
   4  -5 -10 9.27000 3.55000   1
  -3   2 -13 148.340 16.4000   1
   3  -2  13 121.770 28.8600   1
  -3   2 -13 110.620 13.7500   1
   2   8   9 110.810 25.8500   1
   2   8   9 300.840 30.0600   1
  -2   7   8 8.69000 3.72000   1
   2  -7  -8 16.0100 4.11000   1
   2  -7  -8 19.1900 6.27000   1
   4   7  11 43.8400 6.03000   1
   4   7  11 23.7400 6.13000   1
   7   5  -3 1.86000 3.59000   1
   4   8   1 -0.1300 1.62000   1
   5   7  -3 24.5300 4.91000   1
  -5   3  -7 0.05000 1.43000   1
   5  -3   7 1.92000 11.5900   1
   4   2 -14 84.3900 11.7000   1
   4   2 -14 78.9000 11.0000   1
   4   2 -14 90.5400 10.6700   1
   7   1  -8 3.33000 4.38000   1
   4   2  15 12.7500 3.40000   1
   4   2  15 5.53000 2.14000   1
  -1   4 -12 -0.4600 2.57000   1
   1  -4  12 2.46000 5.47000   1
  -1   4 -12 0.62000 1.93000   1
  -2  -7   6 0.56000 4.08000   1
   3   0 -16 14.4900 4.79000   1
   3   0 -16 10.7700 6.20000   1
   5   7   9 1.12000 2.62000   1
   5   7   9 0.61000 2.46000   1
  -3  -8   1 0.80000 2.93000   1
   4  -1 -15 2.57000 3.78000   1
   4  -1 -15 3.22000 4.69000   1
   7   3  -7 43.9400 8.67000   1
  -2  -6   9 12.9800 6.83000   1
   4   0 -15 6.78000 4.30000   1
   6   7   3 1.05000 2.54000   1
   6   7   3 1.06000 3.87000   1
   6   3 -10 13.8500 5.42000   1
  -6   2  -6 0.08000 1.52000   1
   1   4 -13 47.0200 7.12000   1
  -1  -4  13 22.1000 6.53000   1
   7   2   8 10.3300 3.53000   1
   2  -4  11 49.0500 14.9200   1
   6   7   4 4.95000 4.10000   1
;
_shelx_hkl_checksum              34614
_shelx_res_file
;
TITL F01060 - EXOR               New: P-1
CELL  0.71075    6.6325    7.0577   14.6710    103.536    89.714    105.589
ZERR        2    0.0012    0.0012    0.0030     0.007     0.006     0.007
LATT   1
SFAC  C   H   CL  N   O
UNIT 32 20 2 2 6
LIST 4 ! automatically inserted. Change 6 to 4 for CHECKCIF!!
L.S. 5
temp -173
size 0.17 0.17 0.04
mpla 6 c311 c312 c313 c314 c315 c316
mpla 10 o1 c2 c3 c4 c4a c5 c6 c7 c8 c8a
mpla 3 o3 c31 n3
mpla 6 c311 c312 c313 c314 c315 c316
eqiv $1 1+x,y,z
eqiv $2 -1+x,y,z
htab N3 O4
htab C2 o3
htab c312 O3
htab C2 O4_$1
htab C316 o3_$2
FMAP 2
PLAN -20
ACTA 50
BOND $H
CONF
WGHT    0.083400
FVAR       0.65442
CL14  3    0.076140    0.213738    0.103588    11.00000    0.03620    0.03217 =
         0.02258   -0.00195    0.00138    0.01171
O1    5    0.940631    1.106813    0.734769    11.00000    0.02579    0.02800 =
         0.02665   -0.00011    0.00346    0.01034
O3    5    0.808596    0.752639    0.468656    11.00000    0.02423    0.03351 =
         0.02801    0.00081    0.00760    0.01288
O4    5    0.324062    0.889740    0.638341    11.00000    0.02231    0.03470 =
         0.02721   -0.00066    0.00350    0.01086
N3    4    0.456652    0.716508    0.475218    11.00000    0.02253    0.02704 =
         0.02196   -0.00175    0.00515    0.01074
H3    2    0.370313    0.750930    0.514039    11.00000    0.03422
C2    1    0.882599    0.992107    0.646981    11.00000    0.02851    0.02537 =
         0.02418    0.00236    0.00583    0.01278
AFIX  43
H2    2    0.990812    0.964346    0.607812    11.00000   -1.20000
AFIX   0
C3    1    0.684329    0.913705    0.610229    11.00000    0.02567    0.02308 =
         0.02466    0.00321    0.00450    0.01119
C4    1    0.511516    0.950588    0.666925    11.00000    0.02567    0.02030 =
         0.02694    0.00402    0.00534    0.00933
C4A   1    0.575650    1.067239    0.764286    11.00000    0.02860    0.02286 =
         0.02431    0.00518    0.00541    0.01170
C5    1    0.426674    1.104510    0.829013    11.00000    0.02822    0.03304 =
         0.02718    0.00341    0.00588    0.01341
AFIX  43
H5    2    0.281586    1.056380    0.809891    11.00000   -1.20000
AFIX   0
C6    1    0.489677    1.210704    0.920318    11.00000    0.03786    0.03620 =
         0.02599    0.00346    0.00972    0.01824
AFIX  43
H6    2    0.388164    1.233672    0.964367    11.00000   -1.20000
AFIX   0
C7    1    0.702760    1.284391    0.947928    11.00000    0.04048    0.03129 =
         0.02472    0.00062    0.00197    0.01492
AFIX  43
H7    2    0.745304    1.358978    1.010779    11.00000   -1.20000
AFIX   0
C8    1    0.852260    1.250857    0.885676    11.00000    0.02939    0.02625 =
         0.02774   -0.00102   -0.00290    0.00755
AFIX  43
H8    2    0.997320    1.301094    0.904738    11.00000   -1.20000
AFIX   0
C8A   1    0.785634    1.141361    0.793955    11.00000    0.02771    0.02468 =
         0.02944    0.00463    0.00692    0.01352
C311  1    0.377616    0.594172    0.385782    11.00000    0.02883    0.01990 =
         0.02168    0.00188    0.00387    0.01047
C312  1    0.502659    0.534753    0.314047    11.00000    0.02615    0.02823 =
         0.02691    0.00358    0.00664    0.01159
AFIX  43
H312  2    0.650993    0.574755    0.324278    11.00000   -1.20000
AFIX   0
C313  1    0.408407    0.416239    0.227225    11.00000    0.03529    0.02451 =
         0.02488    0.00273    0.00966    0.01614
AFIX  43
H313  2    0.492429    0.375062    0.177939    11.00000   -1.20000
AFIX   0
C314  1    0.193669    0.358971    0.212975    11.00000    0.03050    0.02276 =
         0.02224    0.00215    0.00416    0.00971
C315  1    0.067682    0.415661    0.283837    11.00000    0.02755    0.02702 =
         0.02595    0.00357    0.00263    0.01141
AFIX  43
H315  2   -0.080617    0.374195    0.273349    11.00000   -1.20000
AFIX   0
C316  1    0.160284    0.533175    0.369901    11.00000    0.03068    0.02570 =
         0.02295    0.00160    0.00683    0.01443
AFIX  43
H316  2    0.074902    0.572930    0.418869    11.00000   -1.20000
AFIX   0
C31   1    0.657610    0.786478    0.511100    11.00000    0.02287    0.02258 =
         0.02872    0.00671    0.00668    0.01054
HKLF 4  1 -1 0 0 0 1 0 0 0 -1
REM  F01060 - EXOR               New: P-1
REM R1 =  0.0560 for    1668 Fo > 4sig(Fo)  and  0.0697 for all    2265 data
REM    194 parameters refined using      0 restraints
END
WGHT      0.0834      0.0000
REM Highest difference peak  0.297,  deepest hole -0.654,  1-sigma level  0.083
Q1    1  -0.0091  0.2979  0.0750  11.00000  0.05    0.30
Q2    1   0.1763  0.1426  0.1249  11.00000  0.05    0.28
Q3    1  -0.1295  0.1982  0.1168  11.00000  0.05    0.27
Q4    1   0.0256  0.0974  0.1607  11.00000  0.05    0.27
Q5    1   1.0630  1.0310  0.6228  11.00000  0.05    0.26
Q6    1  -0.1487  0.3633  0.2600  11.00000  0.05    0.25
Q7    1   0.1469  0.4069  0.0754  11.00000  0.05    0.23
Q8    1   0.1313  0.1934  0.2639  11.00000  0.05    0.23
Q9    1   0.7881  0.7189  0.3180  11.00000  0.05    0.23
Q10   1   0.1428  0.3627  0.0580  11.00000  0.05    0.22
Q11   1  -0.2144  0.2089  0.0794  11.00000  0.05    0.22
Q12   1   0.1453  0.2923  0.0057  11.00000  0.05    0.21
Q13   1   0.8308  0.9643  0.4173  11.00000  0.05    0.21
Q14   1   0.8216  1.3712  0.8153  11.00000  0.05    0.21
Q15   1   0.2984  0.2221  0.0918  11.00000  0.05    0.20
Q16   1   0.5694  0.9104  0.6307  11.00000  0.05    0.20
Q17   1   0.8837  0.6496  0.2957  11.00000  0.05    0.20
Q18   1   0.7159  0.7958  0.6757  11.00000  0.05    0.20
Q19   1   0.3878  1.0875  0.6177  11.00000  0.05    0.20
Q20   1   0.2831  0.4681  0.1880  11.00000  0.05    0.20
;
_shelx_res_checksum              19635
_shelxl_version_number           2.014
#END Tags that were not found in dictionaries
loop_
_space_group_symop_operation_xyz
'x, y, z'
'-x, -y, -z'
loop_
_atom_site_type_symbol
_atom_site_label
_atom_site_fract_x
_atom_site_fract_y
_atom_site_fract_z
_atom_site_U_iso_or_equiv
_atom_site_adp_type
_atom_site_calc_flag
_atom_site_occupancy
Cl Cl14 0.07614(10) 0.21374(9) 0.10359(4) 0.0313(3) Uani d 1
O O1 0.9406(3) 1.1068(3) 0.73477(11) 0.0274(5) Uani d 1
O O3 0.8086(3) 0.7526(3) 0.46866(11) 0.0288(5) Uani d 1
O O4 0.3241(3) 0.8897(3) 0.63834(11) 0.0289(5) Uani d 1
N N3 0.4567(4) 0.7165(3) 0.47522(15) 0.0244(5) Uani d 1
H H3 0.370(5) 0.751(4) 0.514(2) 0.034(8) Uiso d 1
C C2 0.8826(4) 0.9921(4) 0.64698(16) 0.0256(6) Uani d 1
H H2 0.9908 0.9643 0.6078 0.031 Uiso calc 1
C C3 0.6843(4) 0.9137(4) 0.61023(16) 0.0240(6) Uani d 1
C C4 0.5115(4) 0.9506(4) 0.66692(16) 0.0240(6) Uani d 1
C C4A 0.5757(4) 1.0672(4) 0.76429(16) 0.0244(6) Uani d 1
C C5 0.4267(4) 1.1045(4) 0.82901(17) 0.0292(6) Uani d 1
H H5 0.2816 1.0564 0.8099 0.035 Uiso calc 1
C C6 0.4897(5) 1.2107(4) 0.92032(17) 0.0325(7) Uani d 1
H H6 0.3882 1.2337 0.9644 0.039 Uiso calc 1
C C7 0.7028(5) 1.2844(4) 0.94793(17) 0.0322(7) Uani d 1
H H7 0.7453 1.3590 1.0108 0.039 Uiso calc 1
C C8 0.8523(4) 1.2509(4) 0.88568(17) 0.0291(6) Uani d 1
H H8 0.9973 1.3011 0.9047 0.035 Uiso calc 1
C C8A 0.7856(4) 1.1414(4) 0.79395(17) 0.0264(6) Uani d 1
C C311 0.3776(4) 0.5942(4) 0.38578(16) 0.0233(6) Uani d 1
C C312 0.5027(4) 0.5348(4) 0.31405(17) 0.0268(6) Uani d 1
H H312 0.6510 0.5748 0.3243 0.032 Uiso calc 1
C C313 0.4084(4) 0.4162(4) 0.22722(17) 0.0272(6) Uani d 1
H H313 0.4924 0.3751 0.1779 0.033 Uiso calc 1
C C314 0.1937(4) 0.3590(4) 0.21297(16) 0.0253(6) Uani d 1
C C315 0.0677(4) 0.4157(4) 0.28384(16) 0.0265(6) Uani d 1
H H315 -0.0806 0.3742 0.2733 0.032 Uiso calc 1
C C316 0.1603(4) 0.5332(4) 0.36990(16) 0.0259(6) Uani d 1
H H316 0.0749 0.5729 0.4189 0.031 Uiso calc 1
C C31 0.6576(4) 0.7865(4) 0.51110(17) 0.0238(6) Uani d 1
loop_
_atom_site_aniso_label
_atom_site_aniso_U_11
_atom_site_aniso_U_22
_atom_site_aniso_U_33
_atom_site_aniso_U_12
_atom_site_aniso_U_13
_atom_site_aniso_U_23
Cl14 0.0362(5) 0.0322(4) 0.0226(4) 0.0117(3) 0.0014(3) -0.0019(3)
O1 0.0258(10) 0.0280(9) 0.0267(9) 0.0103(8) 0.0035(7) -0.0001(7)
O3 0.0242(10) 0.0335(10) 0.0280(9) 0.0129(8) 0.0076(8) 0.0008(8)
O4 0.0223(11) 0.0347(10) 0.0272(9) 0.0109(9) 0.0035(7) -0.0007(7)
N3 0.0225(12) 0.0270(12) 0.0220(11) 0.0107(10) 0.0052(9) -0.0018(9)
C2 0.0285(15) 0.0254(13) 0.0242(12) 0.0128(12) 0.0058(10) 0.0024(10)
C3 0.0257(15) 0.0231(13) 0.0247(13) 0.0112(11) 0.0045(10) 0.0032(10)
C4 0.0257(15) 0.0203(13) 0.0269(13) 0.0093(12) 0.0053(11) 0.0040(10)
C4A 0.0286(15) 0.0229(13) 0.0243(13) 0.0117(12) 0.0054(11) 0.0052(10)
C5 0.0282(15) 0.0330(15) 0.0272(13) 0.0134(12) 0.0059(11) 0.0034(11)
C6 0.0379(17) 0.0362(15) 0.0260(13) 0.0182(13) 0.0097(12) 0.0035(11)
C7 0.0405(17) 0.0313(15) 0.0247(13) 0.0149(13) 0.0020(12) 0.0006(11)
C8 0.0294(15) 0.0263(14) 0.0277(13) 0.0075(12) -0.0029(11) -0.0010(10)
C8A 0.0277(15) 0.0247(13) 0.0294(13) 0.0135(12) 0.0069(11) 0.0046(11)
C311 0.0288(15) 0.0199(12) 0.0217(12) 0.0105(11) 0.0039(10) 0.0019(10)
C312 0.0262(15) 0.0282(14) 0.0269(13) 0.0116(12) 0.0066(11) 0.0036(10)
C313 0.0353(16) 0.0245(13) 0.0249(13) 0.0161(12) 0.0097(11) 0.0027(10)
C314 0.0305(15) 0.0228(13) 0.0222(12) 0.0097(12) 0.0042(11) 0.0021(10)
C315 0.0275(15) 0.0270(13) 0.0259(13) 0.0114(12) 0.0026(11) 0.0036(10)
C316 0.0307(15) 0.0257(13) 0.0229(13) 0.0144(12) 0.0068(11) 0.0016(10)
C31 0.0229(15) 0.0226(13) 0.0287(13) 0.0105(11) 0.0067(11) 0.0067(10)
loop_
_atom_type_symbol
_atom_type_description
_atom_type_scat_dispersion_real
_atom_type_scat_dispersion_imag
_atom_type_scat_source
C C 0.0033 0.0016 'International Tables Vol C Tables 4.2.6.8 and 6.1.1.4'
H H 0.0000 0.0000 'International Tables Vol C Tables 4.2.6.8 and 6.1.1.4'
Cl Cl 0.1484 0.1585 'International Tables Vol C Tables 4.2.6.8 and 6.1.1.4'
N N 0.0061 0.0033 'International Tables Vol C Tables 4.2.6.8 and 6.1.1.4'
O O 0.0106 0.0060 'International Tables Vol C Tables 4.2.6.8 and 6.1.1.4'
loop_
_geom_angle_atom_site_label_1
_geom_angle_atom_site_label_2
_geom_angle_atom_site_label_3
_geom_angle
C2 O1 C8A 118.2(2)
C31 N3 C311 128.7(2)
C31 N3 H3 113.0(19)
C311 N3 H3 118(2)
C3 C2 O1 125.4(2)
C3 C2 H2 117.3
O1 C2 H2 117.3
C2 C3 C4 119.9(2)
C2 C3 C31 115.8(2)
C4 C3 C31 124.3(2)
O4 C4 C3 124.6(2)
O4 C4 C4A 121.1(2)
C3 C4 C4A 114.4(2)
C8A C4A C5 118.5(2)
C8A C4A C4 120.4(2)
C5 C4A C4 121.1(2)
C6 C5 C4A 120.3(3)
C6 C5 H5 119.9
C4A C5 H5 119.9
C5 C6 C7 119.9(2)
C5 C6 H6 120.1
C7 C6 H6 120.1
C8 C7 C6 121.1(2)
C8 C7 H7 119.5
C6 C7 H7 119.5
C7 C8 C8A 118.3(2)
C7 C8 H8 120.9
C8A C8 H8 120.9
O1 C8A C4A 121.7(2)
O1 C8A C8 116.3(2)
C4A C8A C8 122.0(2)
C316 C311 C312 119.6(2)
C316 C311 N3 116.3(2)
C312 C311 N3 124.1(2)
C313 C312 C311 119.5(2)
C313 C312 H312 120.3
C311 C312 H312 120.3
C314 C313 C312 119.9(2)
C314 C313 H313 120.0
C312 C313 H313 120.0
C313 C314 C315 121.2(2)
C313 C314 Cl14 119.82(18)
C315 C314 Cl14 119.0(2)
C316 C315 C314 119.1(2)
C316 C315 H315 120.4
C314 C315 H315 120.4
C315 C316 C311 120.7(2)
C315 C316 H316 119.6
C311 C316 H316 119.6
O3 C31 N3 124.6(2)
O3 C31 C3 121.2(2)
N3 C31 C3 114.1(2)
loop_
_geom_bond_atom_site_label_1
_geom_bond_atom_site_label_2
_geom_bond_distance
Cl14 C314 1.745(2)
O1 C2 1.346(3)
O1 C8A 1.377(3)
O3 C31 1.225(3)
O4 C4 1.241(3)
N3 C31 1.352(3)
N3 C311 1.405(3)
N3 H3 0.85(3)
C2 C3 1.343(4)
C2 H2 0.9500
C3 C4 1.457(4)
C3 C31 1.503(3)
C4 C4A 1.472(3)
C4A C8A 1.382(4)
C4A C5 1.400(4)
C5 C6 1.378(3)
C5 H5 0.9500
C6 C7 1.394(4)
C6 H6 0.9500
C7 C8 1.374(4)
C7 H7 0.9500
C8 C8A 1.392(3)
C8 H8 0.9500
C311 C316 1.393(4)
C311 C312 1.394(3)
C312 C313 1.393(3)
C312 H312 0.9500
C313 C314 1.375(4)
C313 H313 0.9500
C314 C315 1.384(4)
C315 C316 1.380(3)
C315 H315 0.9500
C316 H316 0.9500
loop_
_geom_hbond_atom_site_label_D
_geom_hbond_atom_site_label_H
_geom_hbond_atom_site_label_A
_geom_hbond_site_symmetry_A
_geom_hbond_distance_DH
_geom_hbond_distance_HA
_geom_hbond_distance_DA
_geom_hbond_angle_DHA
N3 H3 O4 . 0.85(3) 1.92(3) 2.680(3) 148(3)
C312 H312 O3 . 0.95 2.29 2.892(3) 121
C2 H2 O4 1_655 0.95 2.47 3.194(3) 133
C316 H316 O3 1_455 0.95 2.45 3.286(3) 146
loop_
_geom_torsion_atom_site_label_1
_geom_torsion_atom_site_label_2
_geom_torsion_atom_site_label_3
_geom_torsion_atom_site_label_4
_geom_torsion
C8A O1 C2 C3 2.8(4)
O1 C2 C3 C4 -0.1(4)
O1 C2 C3 C31 -178.7(2)
C2 C3 C4 O4 177.8(3)
C31 C3 C4 O4 -3.8(4)
C2 C3 C4 C4A -2.9(3)
C31 C3 C4 C4A 175.6(2)
O4 C4 C4A C8A -177.2(2)
C3 C4 C4A C8A 3.4(3)
O4 C4 C4A C5 3.2(4)
C3 C4 C4A C5 -176.1(2)
C8A C4A C5 C6 -0.8(4)
C4 C4A C5 C6 178.8(2)
C4A C5 C6 C7 1.1(4)
C5 C6 C7 C8 -0.8(4)
C6 C7 C8 C8A 0.1(4)
C2 O1 C8A C4A -2.2(3)
C2 O1 C8A C8 176.4(2)
C5 C4A C8A O1 178.6(2)
C4 C4A C8A O1 -1.0(4)
C5 C4A C8A C8 0.1(4)
C4 C4A C8A C8 -179.5(2)
C7 C8 C8A O1 -178.3(2)
C7 C8 C8A C4A 0.3(4)
C31 N3 C311 C316 175.7(2)
C31 N3 C311 C312 -5.0(4)
C316 C311 C312 C313 0.4(4)
N3 C311 C312 C313 -178.8(2)
C311 C312 C313 C314 0.0(4)
C312 C313 C314 C315 -0.5(4)
C312 C313 C314 Cl14 179.03(19)
C313 C314 C315 C316 0.6(4)
Cl14 C314 C315 C316 -178.97(18)
C314 C315 C316 C311 -0.1(4)
C312 C311 C316 C315 -0.4(4)
N3 C311 C316 C315 178.9(2)
C311 N3 C31 O3 0.4(4)
C311 N3 C31 C3 -179.8(2)
C2 C3 C31 O3 2.3(4)
C4 C3 C31 O3 -176.3(2)
C2 C3 C31 N3 -177.6(2)
C4 C3 C31 N3 3.9(4)
