#------------------------------------------------------------------------------
#$Date: 2015-05-13 23:11:39 +0300 (Wed, 13 May 2015) $
#$Revision: 136382 $
#$URL: svn://www.crystallography.net/cod/cif/2/24/05/2240589.cif $
#------------------------------------------------------------------------------
#
# This file is available in the Crystallography Open Database (COD),
# http://www.crystallography.net/. The original data for this entry
# were provided by IUCr Journals, http://journals.iucr.org/.
#
# The file may be used within the scientific community so long as
# proper attribution is given to the journal article from which the
# data were obtained.
#
data_2240589
loop_
_publ_author_name
'Sowmya, Haliwana B. V.'
'Suresha Kumara, Tholappanavara H.'
'Gopalpur, Negendrappa'
'Jasinski, Jerry P.'
'Millikan, Sean P.'
'Yathirajan, Hemmige S.'
'Glidewell, Christopher'
_publ_section_title
;
 Crystal structures of five (2-chloroquinolin-3-yl)methyl ethers:
 supramolecular assembly in one and two dimensions mediated by hydrogen
 bonding and \p--\p stacking
;
_journal_coeditor_code           SU5121
_journal_issue                   6
_journal_name_full               'Acta Crystallographica Section E'
_journal_page_first              609
_journal_page_last               617
_journal_paper_doi               10.1107/S2056989015008233
_journal_volume                  71
_journal_year                    2015
_chemical_formula_iupac          'C20 H14 Cl N O'
_chemical_formula_moiety         'C20 H14 Cl N O'
_chemical_formula_sum            'C20 H14 Cl N O'
_chemical_formula_weight         319.77
_chemical_name_systematic
;
2-Chloro-3-[(naphthalen-1-yloxy)methyl]quinoline
;
_space_group_crystal_system      monoclinic
_space_group_IT_number           4
_space_group_name_Hall           'P 2yb'
_space_group_name_H-M_alt        'P 1 21 1'
_symmetry_space_group_name_Hall  'P 2yb'
_symmetry_space_group_name_H-M   'P 1 21 1'
_atom_sites_solution_hydrogens   geom
_audit_creation_method           SHELXL-2014
_cell_angle_alpha                90
_cell_angle_beta                 98.527(5)
_cell_angle_gamma                90
_cell_formula_units_Z            2
_cell_length_a                   5.3165(3)
_cell_length_b                   10.5098(4)
_cell_length_c                   13.6201(7)
_cell_measurement_reflns_used    2014
_cell_measurement_temperature    173(2)
_cell_measurement_theta_max      72.572
_cell_measurement_theta_min      3.281
_cell_volume                     752.62(6)
_computing_cell_refinement
;
CrysAlisPro (Agilent, 2012)
;
_computing_data_collection
;
CrysAlisPro (Agilent, 2012)
;
_computing_data_reduction
;
CrysAlisRed (Agilent, 2012)
;
_computing_molecular_graphics
;
PLATON (Spek, 2009)
;
_computing_publication_material
;
SHELXL2014 (Sheldrick, 2015) and PLATON (Spek, 2009)
;
_computing_structure_refinement
;
SHELXL2014 (Sheldrick, 2015)
;
_computing_structure_solution
;
SHELXS97 (Sheldrick, 2008)
;
_diffrn_ambient_temperature      173(2)
_diffrn_measured_fraction_theta_full 0.999
_diffrn_measured_fraction_theta_max 0.985
_diffrn_measurement_device_type  'Agilent Eos Gemini'
_diffrn_measurement_method       '\w scans'
_diffrn_radiation_type           CuK\a
_diffrn_radiation_wavelength     1.54184
_diffrn_reflns_av_R_equivalents  0.0293
_diffrn_reflns_limit_h_max       6
_diffrn_reflns_limit_h_min       -6
_diffrn_reflns_limit_k_max       12
_diffrn_reflns_limit_k_min       -8
_diffrn_reflns_limit_l_max       16
_diffrn_reflns_limit_l_min       -16
_diffrn_reflns_number            4606
_diffrn_reflns_theta_full        67.684
_diffrn_reflns_theta_max         72.572
_diffrn_reflns_theta_min         3.281
_diffrn_standards_decay_%        0
_diffrn_standards_interval_count 0
_diffrn_standards_interval_time  0
_diffrn_standards_number         0
_exptl_absorpt_coefficient_mu    2.265
_exptl_absorpt_correction_T_max  0.834
_exptl_absorpt_correction_T_min  0.551
_exptl_absorpt_correction_type   multi-scan
_exptl_absorpt_process_details
;
(SADABS; Sheldrick, 2003)
;
_exptl_crystal_colour            colourless
_exptl_crystal_density_diffrn    1.411
_exptl_crystal_description       needle
_exptl_crystal_F_000             332
_exptl_crystal_size_max          0.340
_exptl_crystal_size_mid          0.100
_exptl_crystal_size_min          0.080
_refine_diff_density_max         0.217
_refine_diff_density_min         -0.194
_refine_ls_abs_structure_details
;
 Classical Flack method preferred over Parsons because s.u. lower.
;
_refine_ls_abs_structure_Flack   -0.007(18)
_refine_ls_extinction_method     none
_refine_ls_goodness_of_fit_ref   1.075
_refine_ls_hydrogen_treatment    constr
_refine_ls_matrix_type           full
_refine_ls_number_parameters     208
_refine_ls_number_reflns         2014
_refine_ls_number_restraints     1
_refine_ls_restrained_S_all      1.074
_refine_ls_R_factor_all          0.0344
_refine_ls_R_factor_gt           0.0332
_refine_ls_shift/su_max          0.000
_refine_ls_shift/su_mean         0.000
_refine_ls_structure_factor_coef Fsqd
_refine_ls_weighting_details
'w=1/[\s^2^(Fo^2^)+(0.0579P)^2^] where P=(Fo^2^+2Fc^2^)/3'
_refine_ls_weighting_scheme      calc
_refine_ls_wR_factor_gt          0.0883
_refine_ls_wR_factor_ref         0.0897
_reflns_number_gt                1938
_reflns_number_total             2014
_reflns_threshold_expression     I>2\s(I)
_cod_data_source_file            su5121sup1.cif
_cod_data_source_block           IV
_cod_database_code               2240589
_shelx_space_group_comment
;
The symmetry employed for this shelxl refinement is uniquely defined
by the following loop, which should always be used as a source of
symmetry information in preference to the above space-group names.
They are only intended as comments.
;
_shelx_estimated_absorpt_t_min   0.513
_shelx_estimated_absorpt_t_max   0.840
_shelx_hkl_file
;
   0   0  -1 985.045 63.8432   1
   0   0  -2 31851.4 782.124   1
   0   0   2 33219.3 783.061   3
   0   0   3 103471. 2231.49   3
   0   0  -3 101992. 2228.89   1
   0   0   4 42218.8 1125.91   3
   0   0  -4 42862.4 1132.29   1
   0   0   5 130374. 2987.10   3
   0   0  -5 137394. 3013.89   1
   0   0   6 1777.09 208.260   3
   0   0   7 20822.3 816.756   3
   0   0   7 20011.0 769.788   4
   0   0   8 7647.54 473.892   4
   0   0   9 145.687 84.7237   4
   0   0  10 21462.9 938.877   4
   0   0 -10 18120.9 955.249   8
   0   0 -11 6375.33 551.440  21
   0   0 -11 5927.07 528.744   8
   0   0  11 6340.01 500.564   4
   0   0 -12 9273.84 675.466  21
   0   0 -13 6788.80 561.158  21
   0   0  14 9462.35 594.403  14
   0   0 -14 10321.0 650.420  21
   0   0  15 908.107 166.347  14
   0   0  16 129.556 73.1306  14
   0  -1   0 71.1915 17.2247   2
   0   1   1 179013. 3535.50   4
   0   1   2 131861. 2617.49   3
   0  -1   2 125247. 2605.28   3
   0   1  -2 124105. 2622.48   1
   0   1   3 7763.23 327.475   3
   0   1  -3 7055.44 323.598   1
   0  -1  -4 43497.7 1121.20   1
   0   1   4 40502.6 1095.86   3
   0   1  -4 41535.3 1117.35   1
   0  -1   4 41029.7 1111.87   3
   0   1  -5 8847.71 349.974  10
   0  -1  -5 8495.12 426.085   1
   0   1  -5 8343.59 431.738   1
   0  -1   5 8692.30 437.367   3
   0   1   5 9074.81 432.223   3
   0  -1   6 47417.9 1333.13   3
   0   1   6 43464.9 1285.18   3
   0   1   6 43413.9 1252.07   4
   0   1   7 43858.9 1314.08   4
   0   1   7 39538.7 1297.75   3
   0   1   8 2195.45 255.214   4
   0  -1   8 3730.31 319.826   4
   0   1   9 15248.9 758.641   4
   0  -1   9 17729.9 787.874   4
   0  -1 -10 58.6350 91.1551   8
   0  -1  10 52.1581 79.7672   4
   0   1  10-22.8289 64.5505   4
   0   1 -10 112.582 106.563   8
   0   1 -11 28380.1 1269.82  21
   0  -1  11 30459.1 1168.49   4
   0  -1 -11 28118.8 1205.38   8
   0   1  11 25465.6 1033.21  23
   0   1 -12 5326.10 524.146  21
   0   1  12 5272.06 421.870  23
   0   1  13 52631.9 1746.77  14
   0   1 -13 57490.1 1940.30  21
   0  -1  14 7165.18 501.403  14
   0   1  14 7613.37 528.523  14
   0   1 -14 7824.21 593.028  21
   0   1  15 519.820 135.553  14
   0   1 -15 538.404 143.929  21
   0  -1  15 535.614 131.620  14
   0  -1  16 261.313 87.0172  20
   0   1  16 87.4733 61.4207  14
   0  -1  16 222.376 73.8205  14
   0  -2   0 44171.1 946.673   2
   0   2   1 147585. 2900.59   4
   0   2  -1 140147. 2894.58   2
   0   2  -1 143713. 2886.78   8
   0  -2   2 316797. 6303.94   1
   0  -2   2 310313. 6252.07   3
   0   2   2 320986. 6280.37   4
   0   2   2 318316. 6239.65   3
   0   2   3 38448.3 1017.39   4
   0   2  -3 41231.0 1108.55  10
   0   2   3 41161.9 1010.48   3
   0  -2   3 40197.3 1055.03   1
   0   2  -4 5154.05 308.702  10
   0   2   4 4976.80 282.534   3
   0  -2   4 5407.37 316.528   1
   0   2   4 4760.79 282.065   4
   0  -2   5 40444.7 1240.63   3
   0   2  -5 51699.2 1289.56  10
   0   2   5 48925.5 1270.99   4
   0  -2  -5 40750.7 1225.84   1
   0   2   5 49032.0 1259.31   3
   0   2   6 2334.36 230.216   3
   0   2   6 2230.58 226.552   4
   0  -2   6 1975.65 219.201   3
   0   2  -6 2330.54 208.121  10
   0   2   7 19924.5 818.903   4
   0  -2   7 24637.6 906.611   3
   0  -2   8 6066.66 399.410   4
   0   2   8 3278.60 322.719   4
   0   2   9 3392.05 347.279   4
   0  -2   9 3327.42 320.400   4
   0   2  -9 3644.57 404.239   8
   0   2 -10 5486.76 527.711   8
   0   2  10 5844.74 479.364   4
   0   2  11 19254.6 877.415  23
   0   2 -11 17660.2 990.487  21
   0   2 -12 5760.74 550.318  21
   0   2  12 5173.51 437.943  23
   0   2  12 5131.79 456.802  14
   0   2 -13 3895.22 446.540  21
   0   2  13 3901.10 390.824  14
   0   2  14 2156.94 279.947  14
   0  -2  14 2550.47 278.389  14
   0   2 -14 2717.49 352.694  21
   0   2 -15 4143.27 377.265  21
   0   2  15 3581.51 317.637  14
   0   2  16 2068.46 196.834  14
   0  -2  16 2153.03 195.173  20
   0  -3   0 31.6160 25.8455   2
   0   3   0 34.4912 43.0211  10
   0   3   0 129.006 35.5402   7
   0   3  -1 62890.2 1315.80   8
   0   3   1 60598.4 1359.68   4
   0  -3   2 67110.5 1541.89   1
   0   3  -2 67911.6 1511.53   8
   0   3   2 69924.1 1579.12  11
   0   3   2 66073.6 1530.74  12
   0  -3   2 63731.8 1419.34   3
   0   3  -2 67908.9 1501.65   2
   0   3  -2 66554.8 1677.75  10
   0   3  -2 69355.8 1589.52  11
   0   3   2 66642.8 1508.35   4
   0   3   3 52784.6 1287.35   4
   0  -3   3 50644.6 1224.79   3
   0   3  -3 52812.1 1331.59  11
   0   3  -3 51189.7 1260.39   2
   0   3  -3 51828.2 1254.65  12
   0   3  -3 52500.8 1424.43  10
   0  -3   3 52341.7 1317.20   1
   0   3  -4 127040. 2975.68  10
   0  -3   4 135689. 2817.86   3
   0   3  -4 128763. 2809.14   2
   0   3   5 92272.2 2228.53   4
   0  -3   5 97543.1 2237.33   3
   0   3  -5 90082.8 2312.75  10
   0  -3   6 46734.7 1358.19   3
   0   3  -6 47488.7 1404.24  10
   0   3   6 46783.8 1372.75   4
   0   3   7 19890.3 830.432   4
   0   3  -7 18713.1 885.858   8
   0   3  -8 30184.6 1238.02   8
   0   3   8 30952.5 1137.50   4
   0   3   9 2514.75 306.792   4
   0   3  -9 2417.34 331.442   8
   0   3  10 657.676 167.418   4
   0   3 -10 540.796 177.669   8
   0   3  11 5559.14 466.412  14
   0   3 -11 5078.30 507.369  21
   0   3  11 5904.65 474.410  23
   0   3 -12 1974.97 329.177  21
   0   3  12 2429.23 306.875  14
   0   3 -13 11131.8 750.988  21
   0   3  13 9291.97 602.769  14
   0   3 -14 11561.2 717.452  21
   0   3  14 11695.5 639.150  14
   0   3 -15 2555.49 294.698  21
   0   3  15 2262.97 243.018  14
   0  -3  16 1901.90 179.750  20
   0   3  16 1616.59 165.452  14
   0   4   0 29439.7 893.881  11
   0   4   0 27990.0 935.267  10
   0   4   0 28996.1 830.374  12
   0   4   1 34493.4 930.055  12
   0   4  -1 33491.9 907.571  12
   0   4   1 32917.8 974.695  11
   0  -4  -1 33771.7 831.476   2
   0   4  -1 33583.1 988.144  11
   0   4   1 36170.9 1021.04  10
   0   4   1 36560.7 859.409   7
   0   4  -1 32585.6 1057.08  10
   0   4   2 18977.7 639.592  12
   0  -4   2 21358.2 653.379   1
   0   4   2 20895.3 623.224   4
   0   4  -2 18277.8 757.737  10
   0   4   2 19111.4 681.324  11
   0   4  -2 19998.4 634.499  12
   0   4   2 21264.7 682.523  10
   0   4  -2 20158.6 571.357   8
   0   4  -2 19084.0 691.723  11
   0   4  -3 41525.9 1087.60  12
   0   4  -3 41126.1 1061.54   2
   0   4   3 43024.5 1092.54   4
   0   4   3 41271.6 1158.54  11
   0   4  -3 40043.9 1274.22  10
   0   4  -3 40174.5 1172.14  11
   0   4  -3 41220.4 1073.34   8
   0   4  -4 13609.4 602.837  11
   0   4  -4 13940.3 565.429   8
   0   4  -4 12762.5 649.744  10
   0   4  -4 13672.2 539.593  12
   0   4   4 12951.8 538.405   4
   0   4   5 38551.3 1153.69   4
   0   4  -5 37317.2 1118.57  12
   0   4  -5 38096.3 1198.48   8
   0   4  -5 38421.8 1297.15  10
   0   4   6 22011.4 867.754   4
   0   4  -6 23576.7 948.029   8
   0   4  -6 24476.6 984.542  10
   0   4  -6 25623.5 890.782  12
   0   4  -7 20682.2 940.925   8
   0   4   7 21607.8 886.399   4
   0   4  -7 21613.9 855.192  12
   0   4  -7 23604.1 958.939  10
   0   4  -8 41486.2 1373.13  12
   0   4   8 43149.7 1420.18   4
   0   4  -8 39323.1 1465.95   8
   0   4  -9 6479.65 542.224   8
   0   4  -9 6100.26 470.641  12
   0   4   9 6160.21 485.995   4
   0   4  10 2913.03 335.454  23
   0   4 -10 2570.62 349.096  21
   0   4  10 2385.26 292.634  14
   0   4 -10 2700.66 321.518  12
   0   4 -11 260.268 150.904  21
   0   4  11 560.749 153.092  14
   0   4  11 478.831 155.526  23
   0   4 -12 3997.18 450.104  21
   0   4  12 3714.90 374.508  14
   0   4 -13 3825.33 420.534  21
   0   4  13 3751.71 367.418  14
   0   4 -14 581.151 170.782  21
   0   4  14 586.916 145.648  14
   0   4 -15 304.481 119.028  29
   0   4  15 475.164 111.404  14
   0   5   0 32.1986 46.8547  12
   0   5   0 26.2963 66.2525  10
   0   5  -1 5105.04 346.609  11
   0   5   1 4932.59 348.805  10
   0   5  -1 4922.65 383.155  10
   0   5   1 5152.98 340.187  11
   0   5  -1 5454.17 306.044  12
   0   5   1 5294.16 306.039  12
   0   5  -2 52386.9 1349.66  12
   0   5  -2 48709.3 1540.14  10
   0   5   2 51048.9 1443.43  11
   0   5  -2 50375.3 1453.57  11
   0   5   2 52466.1 1376.61  12
   0   5  -3 30297.7 1135.11  10
   0   5   3 31871.9 1038.63  11
   0   5  -3 32235.8 960.115  12
   0   5  -3 30226.9 1044.10  11
   0   5  -4 31453.1 988.145  12
   0   5  -4 30294.5 1078.17  11
   0   5  -4 30009.6 1161.13  10
   0   5   4 33744.7 1004.01   4
   0   5   4 30885.9 1065.07  11
   0   5  -5 1734.92 202.961  12
   0   5   5 1475.96 189.937   4
   0   5  -5 1172.48 210.263  10
   0   5   5 1516.23 211.166  11
   0   5  -6 5368.48 378.358  12
   0   5   6 4912.34 373.545   4
   0   5   6 5402.94 417.163  11
   0   5  -6 4875.24 432.971  10
   0   5  -7 21805.0 1000.47  10
   0   5   7 21861.8 906.777   4
   0   5   7 22917.0 970.081  11
   0   5   8 6868.84 501.107   4
   0   5  -8 7202.44 537.575  10
   0   5   8 7091.95 533.459  11
   0   5   9 27237.1 1098.11  23
   0   5  -9 27951.9 1204.35  21
   0   5   9 28023.9 1086.89  14
   0   5   9 27854.3 1112.80  25
   0   5   9 28469.5 1145.46   4
   0   5   9 30055.0 1210.91  11
   0   5 -10 4612.37 469.872  21
   0   5  10 5011.90 459.317  11
   0   5  10 5419.90 442.844  14
   0   5 -11 3150.47 390.428  21
   0   5  11 3282.41 349.262  14
   0   5  12 10310.6 614.782  14
   0   5 -12 10607.3 666.872  13
   0   5 -12 10983.6 716.059  21
   0   5  13 976.154 181.917  14
   0   5 -13 967.932 208.364  21
   0   5  14 4598.24 339.554  14
   0   5 -14 4697.63 396.014  21
   0   5  14 4222.44 343.707  18
   0   5 -14 3918.27 378.654  29
   0   5  15 904.770 127.813  14
   0   5 -15 535.503 124.627  29
   0  -5  15 591.924 111.429  20
   0   5  15 769.330 122.817  18
   0   6   0 36329.6 1244.84  10
   0   6   0 36665.7 1203.71  11
   0   6   1 3436.64 318.855  10
   0   6  -1 3351.48 309.760  11
   0   6   1 3300.95 305.246  11
   0   6   1 3867.09 281.136  12
   0   6  -1 3422.65 341.726  10
   0   6  -2 35256.3 1312.77  10
   0   6   2 40642.7 1228.02  10
   0   6  -2 35516.0 1227.72  11
   0   6   2 39200.9 1153.59  12
   0   6   2 37463.0 1224.69  11
   0   6  -3 66079.4 1899.56  11
   0   6  -3 62551.6 1971.94  10
   0   6  -4 15708.9 837.252  10
   0   6   4 16711.4 774.344  11
   0   6  -4 17111.1 805.713  11
   0   6   5 26339.9 1030.26  11
   0   6  -5 22900.0 1061.70  10
   0   6  -6 787.082 190.201  10
   0   6   6 1475.23 235.631  11
   0   6  -7 14441.1 837.206  10
   0   6   7 17468.9 857.536  11
   0   6  -8 6589.35 540.188  26
   0   6   8 5713.04 459.769  25
   0   6  -8 6537.51 538.767  10
   0   6   8 6239.66 515.546  11
   0   6  -9 4080.96 449.474  13
   0   6   9 4385.46 383.779  14
   0   6  -9 3526.05 391.392  21
   0   6   9 4571.51 439.996  11
   0   6  10 11192.6 637.943  14
   0   6 -10 9929.10 694.684  13
   0   6 -10 10703.8 697.575  21
   0   6 -11 270.039 117.475  21
   0   6  11 125.080 87.8968  14
   0   6 -11 347.055 149.576  13
   0   6 -12 3490.11 367.984  13
   0   6  12 3528.77 360.150  18
   0   6 -12 3614.58 383.833  21
   0   6  12 4169.88 355.480  14
   0   6 -13 1701.07 227.617  13
   0   6 -13 1635.58 238.712  21
   0   6 -13 1685.86 259.500  29
   0   6  13 1611.79 204.848  14
   0   6  13 1566.41 220.030  18
   0   6 -14 763.878 157.293  29
   0   6  14 1029.68 154.104  18
   0   6  14 937.032 138.253  14
   0   7   0 31.0355 91.2478  10
   0   7   0-24.6217 94.0709  11
   0   7  -1 20391.4 905.451  11
   0   7  -1 20439.5 949.686  10
   0   7   1 20130.5 894.983  11
   0   7   1 22172.6 921.185  10
   0   7  -2 7746.26 573.305  10
   0   7  -2 8984.72 576.509  11
   0   7   2 8926.74 560.451  11
   0   7  -3 1782.93 282.281  10
   0   7   3 2374.36 286.941  11
   0   7  -3 2248.21 295.496  11
   0   7   4 29756.2 1158.78  11
   0   7  -4 30285.8 1199.26  11
   0   7  -4 28353.0 1224.78  10
   0   7  -5 1445.83 267.194  10
   0   7   5 2017.73 278.206  11
   0   7  -6 5628.34 520.210  10
   0   7   6 6645.55 519.298  11
   0   7  -7 3499.32 404.863  10
   0   7  -7 3740.29 417.817  26
   0   7   7 4223.20 413.236  18
   0   7   7 3617.20 393.314  11
   0   7  -7 3553.12 414.058  13
   0   7   7 3760.87 362.360  25
   0   7  -8 5303.81 504.671  13
   0   7   8 5383.08 449.518  25
   0   7   8 5855.43 500.537  11
   0   7   8 5833.41 499.684  18
   0   7  -8 5142.95 493.626  26
   0   7  -9 4074.74 449.718  13
   0   7  -9 4660.43 452.417  26
   0   7   9 3934.19 410.460  18
   0   7 -10 1246.82 259.879  13
   0   7  10 1148.53 227.335  18
   0   7  11 2299.14 256.555  14
   0   7 -11 2047.37 271.473  21
   0   7 -11 1731.37 281.653  29
   0   7 -11 1278.21 243.466  13
   0   7  11 2060.61 275.148  18
   0   7 -12 150.719 102.903  21
   0   7 -12 114.566 103.890  13
   0   7  12 155.234 95.0442  18
   0   7 -12 265.706 112.570  29
   0   7  12 129.601 78.1953  14
   0   7 -13 754.731 134.610  13
   0   7 -13 804.337 159.311  29
   0   7  13 830.513 141.067  18
   0  -7  13 818.926 119.688  20
   0   8   0 4618.69 432.955  10
   0   8   0 4270.99 408.821  11
   0   8   1 144.544 103.885  11
   0   8  -1 241.946 133.340  10
   0   8  -1 142.148 85.4339  11
   0   8   2 26774.5 1123.97  11
   0   8  -2 26285.6 1164.58  10
   0   8  -2 26407.2 1129.67  11
   0   8  -3 841.916 209.884  10
   0   8   3 1235.91 236.665  11
   0   8  -4 3584.52 413.575  10
   0   8   4 3463.15 376.160  11
   0   8  -4 2873.87 358.121  26
   0   8   4 3240.38 336.037  19
   0   8  -4 4526.03 456.813  11
   0   8   4 3187.16 354.240  18
   0   8   4 3387.79 350.808  24
   0   8  -4 3244.84 380.877  13
   0   8   5 17869.6 866.833  24
   0   8  -5 15137.4 878.009  13
   0   8   5 17309.1 809.470  19
   0   8  -5 15986.2 901.413  26
   0   8   5 15939.8 849.685  18
   0   8   5 16931.9 874.477  11
   0   8  -5 14532.0 869.983  10
   0   8   6 504.613 140.517  19
   0   8  -6 392.651 144.330  26
   0   8  -6 361.965 131.546  10
   0   8  -6 360.477 157.346  13
   0   8   6 413.047 148.986  11
   0   8   6 496.995 154.657  18
   0   8  -7 3061.18 389.058  26
   0   8   7 3756.90 398.617  18
   0   8  -7 3661.20 426.992  13
   0   8  -8 2065.83 313.230  26
   0   8  -8 2310.29 341.700  13
   0   8   8 3057.88 362.467  18
   0   8  -9 1658.82 282.867  13
   0   8   9 1916.61 276.348  18
   0   8  -9 1696.49 276.527  26
   0   8  -9 1157.79 220.673  29
   0   8  10 4956.54 427.051  18
   0   8 -10 5443.33 470.347  13
   0   8 -10 5502.29 463.403  29
   0   8 -11 607.518 152.314  29
   0   8 -11 301.541 120.080  13
   0   8  11 415.341 123.972  18
   0   8  12 1187.90 172.103  18
   0   8 -12 1167.08 175.349  29
   0   8  12 1400.58 187.328  24
   0   8 -12 1556.46 203.322  13
   0   8  13 1765.80 167.350  18
   0   9   0 56.5016 98.7958  19
   0   9   0-54.3801 152.671  11
   0   9   0-45.5499 79.3885  27
   0   9   0-110.257 127.171  18
   0   9   0 20.1096 90.6046  10
   0   9  -1 35346.2 1378.37  11
   0   9   1 37477.2 1403.34  18
   0   9  -1 35830.7 1412.31  10
   0   9   1 36410.9 1343.64  27
   0   9   1 35613.5 1330.62  19
   0   9  -1 36589.8 1379.32  26
   0   9   1 34997.1 1369.71  11
   0   9  -1 35862.7 1398.09  18
   0   9  -1 33454.3 1299.93  19
   0   9  -2 11346.0 731.540  13
   0   9   2 10966.8 701.854  18
   0   9  -2 10908.4 664.177  19
   0   9  -2 10792.3 718.192  10
   0   9   2 11449.6 683.048  19
   0   9  -2 10674.5 709.104  18
   0   9  -2 11144.2 713.142  11
   0   9   2 11251.5 708.892  11
   0   9  -2 11142.3 720.626  26
   0   9   3 542.760 160.901  19
   0   9  -3 507.025 165.363  10
   0   9  -3 486.360 174.433  26
   0   9  -3 731.957 209.871  18
   0   9  -3 265.938 110.807  19
   0   9  -3 738.982 219.855  11
   0   9   3 615.987 184.167  18
   0   9  -3 530.529 192.922  13
   0   9   3 591.528 173.581  11
   0   9   4 20307.3 925.341  19
   0   9   4 20984.2 992.846  11
   0   9  -4 18786.4 999.085  26
   0   9  -4 19591.2 1006.01  10
   0   9   4 19356.1 969.664  18
   0   9  -4 19167.2 1010.94  13
   0   9   5 5066.80 428.322  19
   0   9  -5 4603.60 470.805  26
   0   9   5 5223.25 456.200  24
   0   9   5 4599.14 448.363  18
   0   9  -5 4586.66 482.385  13
   0   9   6 1853.82 279.654  24
   0   9  -6 1548.49 279.557  26
   0   9   6 1917.61 290.453  18
   0   9  -6 1948.10 319.957  13
   0   9   6 2124.05 266.168  19
   0   9   7 3954.76 388.195  24
   0   9  -7 3245.42 397.764  13
   0   9   7 3110.42 361.350  18
   0   9  -7 2951.17 365.254  26
   0   9   8 1350.94 223.305  24
   0   9  -8 841.293 215.344  13
   0   9  -8 1180.02 228.765  26
   0   9   8 879.319 197.968  18
   0   9  -9 6973.62 537.731  13
   0   9   9 7065.89 503.575  18
   0   9 -10 546.238 153.334  13
   0   9  10 594.243 143.936  24
   0   9  10 470.088 131.513  18
   0   9  11 14889.1 599.023  24
   0   9  11 12954.7 587.558  18
   0   9 -11 13373.2 616.805  13
   0  10   0 51867.2 1721.69  27
   0  10   0 52255.1 1774.04  18
   0  10   0 49242.8 1673.49  19
   0  10  -1 6459.32 529.904  27
   0  10   1 6222.10 495.113  27
   0  10  -1 6374.19 511.022  26
   0  10   1 6166.77 494.856  19
   0  10  -1 6222.84 493.571  19
   0  10   1 5292.90 491.455  18
   0  10  -1 6016.88 524.280  18
   0  10  -2 32289.0 1239.13  19
   0  10   2 33967.1 1276.53  19
   0  10  -2 32885.6 1347.51  18
   0  10   2 33876.7 1340.53  18
   0  10  -2 31289.9 1313.82  27
   0  10  -2 33893.2 1332.20  26
   0  10   3 881.833 187.502  19
   0  10  -3 904.326 184.674  19
   0  10  -3 910.505 209.016  26
   0  10   3 694.145 184.147  18
   0  10  -4 15194.3 864.965  13
   0  10  -4 14501.0 830.561  26
   0  10   4 15193.2 769.247  19
   0  10   4 14605.1 815.838  18
   0  10   5 15004.4 741.333  19
   0  10  -5 14440.6 843.863  13
   0  10  -5 14791.9 828.451  26
   0  10   5 14167.2 786.079  18
   0  10   6 4533.40 366.350  19
   0  10  -6 5462.14 479.677  26
   0  10   6 4894.13 436.097  18
   0  10  -6 4866.20 465.211  13
   0  10  -7 2089.50 290.124  26
   0  10  -7 1774.76 281.737  13
   0  10   7 2247.05 263.345  24
   0  10   7 2002.94 272.818  18
   0  10   8 756.338 153.563  24
   0  10   8 543.269 145.647  18
   0  10  -8 367.791 145.781  13
   0  10   9 2132.53 219.112  24
   0  10   9 1664.16 211.779  18
   0  10  -9 1812.72 239.050  13
   0  10  10 2202.53 208.878  18
   0  11   0 18.9101 75.3487  27
   0  11   0 88.2534 118.100  18
   0  11   0 40.6426 99.8840  19
   0  11  -1 4078.84 370.705  19
   0  11  -1 3523.26 364.996  27
   0  11   1 3850.37 396.834  18
   0  11   1 3594.46 357.180  19
   0  11  -1 4602.09 447.508  18
   0  11  -2 6731.08 472.160  19
   0  11  -2 6983.05 506.183  26
   0  11  -2 7192.84 527.242  27
   0  11   2 7148.71 497.003  19
   0  11   2 6970.34 528.705  18
   0  11   3 870.294 192.177  18
   0  11  -3 761.806 157.383  19
   0  11  -3 1062.81 202.017  26
   0  11  -3 856.443 195.224  27
   0  11   3 647.064 159.227  19
   0  11   4 638.634 160.071  18
   0  11  -4 863.838 195.996  27
   0  11   4 829.618 163.074  19
   0  11  -4 601.827 162.431  26
   0  11  -5 327.783 129.519  27
   0  11  -5 394.416 132.590  26
   0  11   5 355.722 126.578  18
   0  11   5 436.265 126.859  19
   0  11   6 4378.66 310.094  19
   0  11  -6 4092.96 372.355  27
   0  11   6 4321.45 359.351  18
   0  11  -7 4792.22 376.172  27
   0  11   7 5209.92 368.549  18
   0  11  -8 2770.91 257.849  27
   0  11   8 2917.39 245.779  18
   0  12   0 6702.77 421.324  19
   0  12  -1 6393.15 405.228  19
   0  12   1 7327.34 480.959  18
   0  12   1 6749.33 423.929  19
   0  12  -1 6714.96 416.482  27
   0  12   2 3661.93 330.796  18
   0  12  -2 3515.47 283.462  19
   0  12  -2 3324.24 293.950  27
   0  12   2 3101.23 281.098  19
   0  12  -3 3103.32 283.355  27
   0  12   3 2849.98 259.442  19
   0  12   3 3019.20 287.773  18
   0  12  -4 303.298 104.064  27
   0  12   4 168.068 76.1183  19
   0  12   4 234.870 98.9900  18
   0  12  -5 985.165 153.273  27
   0  12   5 944.714 148.568  18
   0  12   5 1372.58 155.662  19
   0  12  -6 262.272 80.5790  27
   0  12   6 370.820 95.2409  18
  -1   0  16 4.33315 54.7170  14
   1   0 -15 1647.45 234.620  21
   1   0 -14 1680.09 273.629  21
   1   0 -13 1399.90 271.954  21
   1   0 -12 20377.8 1059.83  21
  -1   0  11 53742.5 1680.98   4
   1   0 -11 45304.3 1694.82   8
  -1   0  10 37261.3 1340.68   4
   1   0 -10 38603.3 1459.69   8
  -1   0   9 10909.5 614.189   4
   1   0  -9 9757.37 639.104   8
   1   0  -8 303.450 134.734   8
  -1   0   8 338.242 110.510   4
  -1   0   7 1509.27 196.648   4
   1   0  -7 1363.08 205.581   8
  -1   0   6 7969.20 424.462   4
   1   0  -6 7438.40 445.598   8
  -1   0   5 20106.3 674.610   1
  -1   0   5 18346.9 658.248   4
   1   0  -5 19198.6 710.733   8
  -1   0   4 3143.60 214.579   4
  -1   0   4 3347.05 217.613   1
   1   0  -4 3382.78 241.334   8
   1   0  -4 3280.67 222.232   2
   1   0  -3 30339.2 800.184   2
  -1   0   3 28578.2 791.963   4
   1   0  -2 81491.2 1791.08   8
  -1   0   2 80921.1 1766.37   7
   1   0  -2 85128.1 1765.80   2
  -1   0   1 257407. 5119.66   2
   1   0  -1 265321. 5153.17   6
  -1   0   1 255834. 5127.91   7
   1   0   0 5036.47 203.412   6
   1   0   1 52302.9 1176.68   6
   1   0   2 38118.3 949.928   6
   1   0   3 36589.0 957.326   5
   1   0   4 1022.01 136.633   5
   1   0   5 18936.2 717.121   3
   1   0   6 27043.5 959.667   3
   1   0   7 231.380 111.371   3
   1   0   8 20145.2 901.471   3
   1   0   9 2209.22 293.591   3
   1   0  10 209.702 108.964   3
   1   0  10 359.265 132.724   4
   1   0  11 6749.26 514.284  14
  -1   0 -11 7418.87 592.950  21
   1   0  12 3991.12 391.584  14
  -1   0 -12 4656.98 466.580  21
   1   0  13 6448.07 475.706  14
   1   0  14 761.578 156.971  14
   1   0  14 1138.18 191.192  20
   1   0  15 2976.53 240.810  14
   1   0  15 2802.35 235.050  20
  -1  -1  16 360.124 100.816  14
   1   1 -16 427.921 109.796  21
  -1   1  16 280.731 93.8898  14
  -1   1  15 1634.26 237.818  14
   1   1 -15 1759.06 259.004  21
   1   1 -14 1864.78 302.256  21
  -1   1  14 2206.56 257.197  23
   1   1 -13 9897.98 723.809  21
  -1   1  13 10166.0 606.969  23
   1   1 -12 77055.2 2473.85  21
  -1   1  12 76961.5 2193.89  23
   1  -1 -11 8171.60 588.687   8
   1   1 -11 6455.75 560.121   8
  -1   1  11 8006.59 539.973  23
  -1   1  11 6426.35 510.862   4
   1   1 -11 7019.67 603.921  21
  -1   1  10 9686.30 610.022   4
   1   1 -10 9050.06 660.786   8
   1  -1 -10 9387.19 628.340   8
   1  -1  -9 9609.88 600.188   8
   1   1  -9 8517.71 614.922   8
  -1   1   9 7984.80 532.671   4
  -1  -1   9 9441.79 558.324   4
  -1  -1   8 18527.6 769.136   4
  -1   1   8 18614.1 793.410   4
   1   1  -8 15563.2 814.979   8
   1  -1  -8 15798.7 765.914   8
  -1  -1   7 47740.8 1425.13   4
   1  -1  -7 49973.6 1496.43   8
  -1   1   7 51951.1 1489.23   4
  -1  -1   6 3010.76 248.857   4
  -1   1   6 4045.70 299.112   4
   1  -1  -6 3027.67 266.875   8
   1   1  -6 4102.49 342.104   8
  -1  -1   5 40755.6 1094.16   4
   1   1  -5 40098.3 1207.99   8
   1   1  -5 41631.5 1039.28   9
   1  -1  -5 43264.8 1155.96   8
   1   1  -5 42821.0 1170.74   2
  -1  -1   4 15927.1 535.342   4
   1   1  -4 17287.8 598.593   2
   1   1  -4 18874.4 654.193   8
  -1  -1   4 17785.6 608.193   1
   1  -1  -4 17715.3 585.572   8
   1   1  -4 18741.1 535.251   9
  -1   1   4 15873.1 581.132   4
   1   1  -3 112855. 2315.39   9
   1  -1  -3 105687. 2312.19   2
   1  -1  -3 108945. 2351.18   8
   1   1  -3 113797. 2403.59   2
  -1   1   3 106908. 2401.83   4
  -1   1   3 108754. 2355.52  12
  -1  -1   3 107987. 2314.24   4
   1   1  -3 117618. 2443.05   8
  -1   1   3 112961. 2317.61   1
  -1  -1   2 81212.1 1690.37   7
   1   1  -2 84905.5 1804.22   8
  -1   1   2 77655.0 1778.56   7
   1  -1  -2 80556.2 1684.22   2
   1  -1  -2 79779.4 1733.07   8
   1   1  -2 84268.8 1782.97   2
   1   1  -1 87487.9 1794.65   6
  -1   1   1 85507.2 1724.16   2
   1  -1  -1 80748.7 1805.51   6
   1   1  -1 84063.8 1825.30   8
  -1   1   1 87872.2 1836.25   7
   1  -1   0 59470.3 1242.22   6
   1   1   0 53118.2 1210.89   6
   1  -1   1 76944.9 1717.59   6
   1   1   1 83492.0 1718.07   6
   1   1   2 561718. 11010.1   5
   1   1   2 558508. 10992.6   6
   1  -1   2 560313. 11005.0   6
   1   1   3 9194.57 377.286   5
   1  -1   3 5503.34 273.536   5
  -1   1  -4 10773.8 475.458   1
   1   1   4 10274.2 470.999   5
   1   1   5 21342.2 777.202   3
   1  -1   5 23004.6 804.763   3
   1   1   6 49051.5 1467.65   3
   1  -1   6 54573.4 1516.18   3
   1   1   7 78433.3 2177.31   3
   1  -1   7 85966.2 2226.18   3
   1  -1   8 35236.1 1295.10   3
   1   1   8 39537.2 1341.66   3
   1  -1   9 617.969 163.874   3
   1   1   9 509.818 152.678   3
   1   1  10 7105.31 536.551   3
   1   1  10 7060.89 535.868   4
   1   1  11 497.529 142.742  14
  -1   1 -11 727.400 192.991  21
   1   1  12 4518.20 419.359  14
  -1   1 -12 3734.24 429.847  21
   1   1  13 4944.60 421.548  14
  -1   1 -13 4945.80 482.138  21
   1  -1  14 3459.14 324.979  20
   1   1  14 2864.40 295.566  14
   1  -1  15 4031.30 305.529  20
   1   1  15 4566.94 313.456  14
  -1   2  16 4230.44 295.969  14
  -1  -2  16 3787.35 264.320  14
   1   2 -16 3791.12 310.170  21
   1   2 -15 240.545 122.437  21
  -1   2  15 4.19361 78.6866  14
  -1   2  14 1815.19 258.565  14
   1   2 -14 2134.14 320.636  21
  -1   2  14 2155.79 262.587  23
  -1   2  13 224.386 110.008  23
   1   2 -13 276.192 151.276  21
  -1   2  12 1998.37 280.783  23
   1   2 -12 1922.24 336.466  21
  -1   2  11 35558.0 1304.34  23
   1   2 -11 35151.6 1488.77  21
   1   2 -10 4483.58 466.218   8
  -1   2  10 4407.81 412.515   4
  -1   2   9 14172.1 728.510   4
   1   2  -9 13640.9 807.761   8
   1  -2  -9 12708.0 682.019   8
   1   2  -8 18694.6 933.715   8
  -1   2   8 20264.3 859.509   4
  -1   2   7 47031.4 1409.28   4
   1  -2  -7 47990.1 1365.29   8
  -1  -2   6 142201. 3270.33   4
   1  -2  -6 157823. 3360.34   8
   1   2  -6 137488. 3488.10   8
  -1   2   6 167672. 3469.91   4
  -1   2   5 3859.04 282.394   4
  -1  -2   5 3905.77 233.106   4
   1   2  -5 3386.30 299.700   8
   1  -2  -5 4055.51 257.422   8
  -1  -2   4 39318.4 1011.67   4
   1   2  -4 45705.3 1149.69   9
   1   2  -4 44736.9 1176.76   2
   1  -2  -4 43103.9 1075.37   8
   1   2  -4 48557.1 1250.52   8
  -1   2   4 43861.0 1181.12   4
   1  -2  -3 43632.7 995.699   2
   1  -2  -3 43852.0 1033.62   8
   1   2  -3 46374.3 1119.87   9
  -1  -2   3 44584.6 971.413   7
  -1   2   3 45892.4 1145.38  12
   1   2  -3 41833.9 1145.67   8
   1   2  -3 46117.3 1112.18  11
   1   2  -3 42589.6 1125.31   2
   1   2  -2 2341.13 161.142   9
  -1   2   2 2105.90 167.534   7
   1   2  -2 2426.57 174.479   8
   1   2  -2 2258.10 154.969  11
   1  -2  -1 185783. 3786.75   6
  -1   2   1 182557. 3837.28   7
   1   2  -1 190639. 3736.92   6
  -1   2   0 58789.6 1214.66   1
   1  -2   0 62749.4 1325.79   6
   1   2   0 61412.9 1353.76  11
   1   2   0 59447.3 1284.45   6
   1  -2   1 979549. 19133.1   6
   1   2   1 976967. 19172.2  11
   1  -2   2 709513. 14140.6   6
   1   2   2 721301. 14182.1   5
  -1   2  -2 728851. 14122.9   1
  -1   2  -2 732995. 14186.8  12
  -1   2  -3 44545.2 1203.42  12
   1   2   3 44720.4 1221.03   5
   1  -2   3 47410.1 1104.85   5
  -1   2  -3 47504.0 1182.78   1
  -1   2  -4 18742.5 659.964   1
   1   2   4 17864.5 649.343   3
   1  -2   5 13969.5 601.972   3
   1   2   5 13120.5 576.317   3
   1   2   6 60107.3 1699.45   3
   1  -2   6 64660.1 1745.62   3
   1   2   7 6115.41 450.583   3
   1  -2   7 10289.2 569.880   3
   1   2   8 4777.98 407.393   4
   1   2   8 5098.70 424.594   3
   1  -2   9 8976.33 598.910   3
   1   2   9 9247.69 601.050   4
   1   2   9 10450.0 632.476   3
  -1   2 -10 2767.88 382.383  21
   1   2  10 2780.32 331.434  14
   1  -2  10 3299.00 365.444   3
   1   2  10 2938.90 343.910   4
   1   2  11 970.632 215.015  14
  -1   2 -11 964.890 220.758  21
   1   2  12 1304.35 233.367  14
  -1   2 -12 1489.46 291.864  21
   1   2  13 887.675 187.563  14
  -1   2 -13 1127.29 237.663  21
   1  -2  14 8468.42 516.217  20
   1   2  14 7756.76 490.535  14
  -1   2 -14 6696.92 505.825  29
   1  -2  15 3991.73 302.666  20
   1   2  15 3503.65 277.767  14
   1   3 -16 321.640 103.673  21
  -1   3  16 220.946 68.7035  14
  -1   3  15 4018.06 323.627  14
   1   3 -15 3541.49 358.466  21
  -1   3  14 2010.69 257.565  14
   1   3 -14 1404.77 268.946  21
  -1   3  14 1817.54 240.199  23
  -1   3  13 4387.58 409.540  14
  -1   3  13 4383.42 400.033  23
   1   3 -13 4475.71 484.059  21
   1   3 -12 5474.14 559.104  21
  -1   3  12 7220.00 525.366  23
   1   3 -11 1889.74 316.678  21
  -1   3  11 2141.11 289.473  23
  -1   3  11 1695.87 247.679  25
  -1   3  10 36146.9 1313.04   4
   1   3 -10 28621.5 1308.82   8
   1   3  -9 5520.00 507.902   8
  -1   3   9 5277.86 440.602   4
   1   3  -8 3784.38 400.204   8
  -1   3   8 3530.95 341.540   4
  -1   3   7 4520.74 368.120   4
   1   3  -7 4378.04 405.083   8
   1   3  -7 5657.21 412.267  10
   1   3  -6 86422.9 2353.37   8
  -1   3   6 91081.3 2284.50   4
   1   3  -5 58589.5 1657.04   8
  -1   3   5 63693.1 1646.65   4
   1   3  -4 1989.00 205.466   8
  -1   3   4 1828.90 196.299   4
   1   3  -4 1882.20 194.691  11
  -1   3   4 1836.57 190.055  12
   1   3  -3 8510.54 390.580  11
   1   3  -3 7420.24 383.176   9
   1   3  -3 7968.23 382.183   8
  -1   3   3 7586.04 386.186  12
   1  -3  -3 8381.78 233.264   2
  -1   3   3 7853.64 341.452  11
  -1   3   2 35277.5 969.595   7
  -1   3   2 36176.7 1002.68  12
   1   3  -2 34804.0 941.320   8
  -1  -3   2 33509.6 960.353   2
  -1   3   2 35096.7 906.876  11
   1   3  -2 35601.2 987.478   9
   1   3  -2 35986.6 972.102  11
   1   3  -2 37214.0 830.170   6
   1   3  -1 36051.2 990.296   9
   1  -3  -1 35790.2 894.603   6
  -1   3   1 36826.2 1022.17  12
   1   3  -1 37791.8 831.185   6
  -1  -3   1 37902.3 989.595   2
  -1   3   1 40171.6 994.696   7
   1   3  -1 38611.8 1003.03  11
   1   3   0 84157.5 1777.28   6
  -1   3   0 82239.1 1965.62  12
   1   3   0 82236.9 1919.09   9
   1   3   0 85233.4 1940.47  11
  -1   3  -1 206080. 4404.96  10
   1   3   1 203322. 4225.04   9
   1  -3   1 206901. 4165.06   6
  -1   3  -1 201462. 4320.91  12
  -1   3  -1 207761. 4231.46  11
   1   3   1 206250. 4286.16  11
   1   3   1 209320. 4238.65   5
   1   3   2 31494.2 919.634   5
  -1   3  -2 30873.6 889.284  11
   1   3   2 32056.6 847.972   9
  -1   3  -2 32792.3 950.178  12
   1   3   2 31833.1 928.071  11
  -1   3  -3 58499.4 1502.22  12
   1   3   3 60577.5 1357.38   9
   1   3   3 58401.5 1426.28   3
   1   3   4 39775.4 1101.89   3
  -1   3  -4 37454.6 1129.82  12
  -1   3  -5 65200.7 1727.38  12
   1   3   5 64503.8 1682.11   3
   1  -3   5 61294.2 1683.10   3
  -1   3  -6 5384.58 399.052  12
   1   3   6 6137.95 411.479   3
   1   3   7 4679.59 384.536   4
   1   3   7 4464.29 379.512   3
  -1   3  -7 5012.41 404.150  12
  -1   3  -8 15444.9 790.934  12
   1   3   8 16167.6 775.306   3
   1   3   8 14569.1 763.939   4
  -1   3  -9 263.488 120.627  12
   1   3   9 441.694 137.223   4
   1  -3   9 497.759 153.213   3
   1   3  10 9891.59 633.359  14
  -1   3 -10 9451.52 694.471  21
  -1   3 -10 9405.57 645.759  12
  -1   3 -11 8050.14 654.599  21
   1   3  11 8301.38 581.191  14
  -1   3 -11 7649.35 582.132  12
   1   3  12 12029.9 706.902  14
  -1   3 -12 11869.3 781.536  21
   1   3  13 12576.8 687.810  14
  -1   3 -13 12543.8 772.930  21
   1   3  14 5863.49 415.892  14
   1  -3  14 7012.43 456.999  20
  -1   3 -14 5590.79 452.124  29
   1  -3  15 15104.6 597.360  20
   1   3  15 13782.3 567.639  14
   1   4 -16 3628.13 268.916  21
  -1   4  15 241.205 84.7353  14
   1   4 -15 203.653 84.6739  13
   1   4 -15 213.724 111.006  21
  -1   4  14 7950.59 486.900  14
   1   4 -14 6934.99 549.890  21
   1   4 -13 326.268 159.607  21
  -1   4  13 322.228 125.972  14
  -1   4  13 452.317 143.848  23
  -1   4  12 3029.82 332.633  14
   1   4 -12 2795.14 381.569  21
  -1   4  12 3318.77 354.985  23
   1   4 -12 3134.71 363.040  30
  -1   4  11 1700.40 251.044  14
  -1   4  11 1508.02 238.765  25
   1   4 -11 1698.40 301.088  21
  -1   4  11 1294.29 227.469  23
   1   4 -11 1244.43 246.341  30
   1   4 -10 1603.81 286.078  21
  -1   4  10 1594.50 251.989  23
   1   4 -10 1663.46 272.852  30
  -1   4  10 1971.12 263.034  25
   1   4  -9 21679.8 1044.38   8
  -1   4   9 20408.6 950.244   4
  -1   4   8 15802.7 781.029   4
   1   4  -8 13887.3 784.552   8
   1   4  -7 1653.21 246.926   8
   1   4  -7 1558.51 234.854  10
  -1   4   7 2204.89 267.681   4
  -1   4   6 5833.73 411.899   4
   1   4  -6 5701.98 422.846   8
   1   4  -6 5770.33 447.453  10
   1   4  -5 16681.1 709.079   8
  -1   4   5 17287.3 673.281  11
   1   4  -4 34055.7 1066.27  11
  -1   4   4 32718.9 1057.67  12
   1   4  -4 33620.9 1029.88   8
  -1   4   4 33090.2 992.637  11
  -1   4   3 545.563 113.590  12
  -1   4   3 652.918 117.801   7
   1   4  -3 759.846 120.914   8
   1   4  -3 913.185 143.919  11
  -1   4   3 832.551 120.266  11
   1   4  -2 75961.7 1947.44   9
   1   4  -2 81393.1 1938.38  11
  -1   4   2 77429.7 1936.00  12
   1  -4  -2 74768.7 1735.79   6
  -1   4   2 80929.6 1888.90   7
   1   4  -2 84838.8 1832.80   8
  -1   4   2 81127.7 1867.60  11
   1   4  -1 34562.0 1035.50  11
   1   4  -1 33025.4 1036.29   9
  -1   4   1 35766.3 989.213  11
   1  -4  -1 36810.6 864.154   6
  -1   4   1 37667.4 1070.05  12
  -1   4   1 36404.5 987.700   7
   1   4   0 23563.7 783.885   9
  -1   4   0 24068.0 754.354  11
  -1   4   0 23644.3 795.083  12
   1   4   0 25893.1 705.684   5
   1   4   0 23737.9 787.749  11
  -1   4   0 23808.7 851.923  10
   1   4   1 55567.9 1457.46   9
  -1   4  -1 57025.0 1453.22  11
   1   4   1 57634.0 1499.27  11
  -1   4  -1 60824.2 1526.93  12
  -1   4  -1 56064.8 1598.58  10
   1   4   1 59343.4 1434.76   5
  -1   4  -2 21390.6 844.876  10
   1   4   2 21733.7 705.569   9
  -1   4  -2 21820.8 778.012  12
  -1   4  -2 19896.9 720.543  11
   1   4   2 22129.9 769.910  11
   1   4   2 22431.8 744.597   5
   1   4   3 26137.0 791.677   4
  -1   4  -3 25258.0 970.884  10
  -1   4  -3 25224.4 878.359  12
   1   4   3 26494.6 895.406  11
  -1   4  -4 146817. 3372.12  12
   1   4   4 148181. 3276.63   4
   1   4   4 146742. 3388.22  11
   1   4   5 15909.4 668.408   4
  -1   4  -5 15020.9 694.658  12
   1   4   6 18346.4 785.871   4
  -1   4  -6 19023.2 823.573  12
  -1   4  -7 4493.20 398.915  12
   1   4   7 4468.08 382.176   4
   1   4   8 3099.88 336.497   4
  -1   4  -8 2491.14 316.263  12
   1   4   9 4107.46 406.075   4
   1   4   9 3817.25 376.784  14
  -1   4  -9 3378.39 394.739   8
  -1   4  -9 4062.02 423.667  21
  -1   4  -9 4434.66 426.693  12
  -1   4 -10 6110.69 545.532  21
  -1   4 -10 6328.34 527.810  12
   1   4  10 6773.64 519.013  14
   1   4  11 7644.23 562.045  14
  -1   4 -11 8410.89 648.207  21
   1   4  12 4441.52 409.534  14
  -1   4 -12 4952.39 484.049  21
   1   4  13 2512.83 290.551  14
  -1   4 -13 2754.15 353.304  29
   1   4  14 1924.23 229.837  14
  -1   4 -14 1915.39 257.345  29
   1  -4  15 5897.90 327.339  20
   1   4  15 5900.99 329.609  22
   1   5 -15 3061.23 245.623  13
   1   5 -15 3327.45 289.478  21
  -1   5  15 4012.33 290.872  18
  -1   5  15 3557.77 238.853  14
  -1   5  14 454.546 141.217  18
  -1   5  14 578.093 126.713  14
   1   5 -14 399.752 133.225  13
   1   5 -14 453.469 148.571  21
   1   5 -13 4148.24 428.521  21
  -1   5  13 4755.63 371.915  14
  -1   5  12 2616.88 308.927  23
   1   5 -12 2197.47 328.794  21
  -1   5  12 2602.82 293.023  14
  -1   5  11 1085.46 213.892  23
   1   5 -11 1357.44 251.868  30
  -1   5  11 1319.89 218.086  14
  -1   5  11 1223.25 221.475  25
   1   5 -11 976.117 238.883  21
  -1   5  10 3518.42 360.604  23
  -1   5  10 3323.34 358.167  25
   1   5 -10 3029.33 386.412  21
   1   5 -10 3667.69 412.372  30
   1   5  -9 626.058 181.445   8
  -1   5   9 887.919 183.859  23
   1   5  -9 449.994 154.939  21
  -1   5   9 928.896 188.756  25
   1   5  -9 843.637 185.863  30
  -1   5   9 625.349 163.838  11
   1   5  -8 9752.40 636.468   8
  -1   5   8 10047.9 604.932  11
   1   5  -8 9593.62 647.321  10
  -1   5   7 9018.21 544.465  11
   1   5  -7 7842.87 587.149  10
   1   5  -7 9272.59 580.092   8
   1   5  -6 4978.07 451.560  10
   1   5  -6 5370.28 405.491   8
  -1   5   6 6031.92 419.056  11
   1   5  -5 37213.0 1394.02  10
   1   5  -5 39355.9 1320.03  11
  -1   5   5 40111.1 1270.49   7
   1   5  -5 43673.0 1279.99   8
  -1   5   5 43606.7 1286.92  11
  -1   5   4 53966.0 1545.91  12
  -1   5   4 54300.0 1480.44  11
   1   5  -4 50497.8 1534.40  11
  -1   5   4 51819.2 1464.24   7
  -1   5   3 175320. 3751.13   7
  -1   5   3 163577. 3810.75  12
  -1   5   3 170006. 3750.45  11
   1   5  -3 171052. 3845.76  11
  -1   5   2 15480.6 587.805   7
  -1   5   2 13876.5 626.491  12
   1   5  -2 14635.6 648.109  11
  -1   5   2 14929.6 605.103  11
  -1   5   1 69840.5 1738.58  11
  -1   5   1 65071.8 1762.15  12
   1   5  -1 67016.9 1791.54  11
  -1   5   1 69900.5 1811.55  10
  -1   5   0 43373.2 1296.73  12
  -1   5   0 46900.0 1388.89  10
  -1   5   0 45183.7 1272.03  11
   1   5   0 44903.6 1321.26  11
   1   5   1 5563.88 376.075  11
  -1   5  -1 5768.28 376.671  12
  -1   5  -1 6191.29 375.616  11
  -1   5  -1 6203.13 437.746  10
  -1   5  -2 34561.0 1226.97  10
  -1   5  -2 34056.7 1092.72  11
  -1   5  -2 34089.8 1112.77  12
   1   5   2 35412.5 1137.83  11
  -1   5  -3 4376.53 344.882  11
  -1   5  -3 4246.76 343.866  12
   1   5   3 4291.65 346.818  11
  -1   5  -3 4116.69 379.645  10
  -1   5  -4 7977.63 498.691  12
   1   5   4 7234.87 482.735  11
  -1   5  -5 30824.7 1135.85  12
   1   5   5 30160.8 1123.68  11
  -1   5  -6 2344.94 290.034  12
   1   5   6 2427.97 294.046  11
   1   5   7 988.552 182.754   4
  -1   5  -7 1056.75 199.896  12
   1   5   7 914.476 187.522  11
   1   5   8 2622.27 312.038   4
   1   5   8 2168.97 280.851  14
   1   5   8 2637.06 330.734  11
  -1   5  -8 2342.39 318.529  12
   1   5   9 3035.36 341.014  14
  -1   5  -9 2996.72 367.104  21
   1   5   9 3196.79 367.390  11
  -1   5  -9 3337.22 381.821  12
   1   5  10 11052.6 676.555  14
  -1   5 -10 12722.2 781.285  21
   1   5  11 523.032 152.978  14
  -1   5 -11 521.585 171.328  21
   1   5  12 724.230 171.790  14
  -1   5 -12 924.002 220.316  29
  -1   5 -13 1468.50 247.483  29
   1   5  13 1755.08 230.486  14
   1  -5  13 923.205 164.704  20
   1   5  13 1523.08 203.362  18
   1  -5  14 6248.34 364.075  20
   1   5  14 5575.93 359.305  22
  -1   5 -14 4327.82 361.410  29
   1   5  14 4785.98 300.271  18
   1   6 -14 1493.29 199.561  13
   1   6 -14 1691.04 215.746  21
  -1   6  14 1534.79 197.609  18
   1   6 -13-111.611 94.9110  13
   1   6 -13 18.5974 97.0854  21
  -1   6  13-51.3626 103.176  18
   1   6 -12 2774.23 340.834  21
  -1   6  12 2867.11 336.138  18
  -1   6  11 904.058 185.094  23
   1   6 -11 817.626 201.841  21
  -1   6  11 792.735 184.016  25
   1   6 -10 489.159 180.324  30
  -1   6  10 493.451 158.317  25
  -1   6  10 230.789 144.653  23
   1   6 -10 331.945 152.575  21
  -1   6   9 5335.63 431.845  23
   1   6  -9 5400.11 507.355  30
   1   6  -9 5226.63 479.777  21
  -1   6   9 5108.46 443.754  25
   1   6  -8 671.179 203.333  26
  -1   6   8 721.934 157.683   7
   1   6  -8 432.355 160.977  30
   1   6  -8 578.727 171.187  10
  -1   6   8 664.558 171.760  11
  -1   6   8 635.183 156.542  23
  -1   6   8 519.308 151.596  25
   1   6  -7 6608.85 565.265  10
  -1   6   7 7494.31 514.989   7
  -1   6   7 7843.30 530.748  11
  -1   6   6 10370.5 591.628  11
   1   6  -6 9613.59 680.845  10
  -1   6   6 9802.41 570.844   7
  -1   6   5 199.870 95.6066  11
   1   6  -5-2.04224 77.0086  10
  -1   6   5 242.041 96.9101   7
  -1   6   4 5170.70 364.328   7
   1   6  -4 4201.35 422.006  10
   1   6  -4 4049.34 378.623  11
  -1   6   4 5085.63 378.111  11
   1   6  -3 15603.8 839.421  10
   1   6  -3 15965.7 760.641  11
  -1   6   3 16783.9 750.513  12
  -1   6   3 17446.4 733.902  11
  -1   6   2 3325.60 294.384  11
  -1   6   2 2769.95 280.855  12
   1   6  -2 2596.06 279.980  11
  -1   6   1 39923.2 1241.30  12
   1   6  -1 35887.2 1237.68  11
  -1   6   1 36831.7 1192.71  11
  -1   6   0 14721.9 729.931  10
  -1   6   0 14429.9 659.319  11
  -1   6   0 14055.4 665.698  12
   1   6   0 14376.0 696.514  11
  -1   6  -1 2198.39 244.611  11
   1   6   1 2006.83 247.900  11
  -1   6  -1 2342.43 257.136  12
  -1   6  -1 2415.51 289.256  10
   1   6   2 10844.9 604.382  11
  -1   6  -2 11287.7 601.120  11
  -1   6  -2 12244.0 690.091  10
  -1   6  -2 11184.9 590.854  12
  -1   6  -3 919.463 200.463  10
  -1   6  -3 1017.27 183.643  12
   1   6   3 793.487 171.517  11
  -1   6  -3 1020.76 206.086  11
  -1   6  -4 23626.8 974.886  12
   1   6   4 23206.4 980.949  11
  -1   6  -5 11514.8 666.256  12
   1   6   5 10490.4 646.768  11
  -1   6  -6 9051.02 610.876  12
   1   6   6 8609.18 598.054  11
  -1   6  -7 1276.35 239.515  26
  -1   6  -7 1381.48 244.335  12
   1   6   7 1209.87 229.695  11
   1   6   7 1600.26 238.571  14
   1   6   7 1343.51 223.995  18
  -1   6  -7 1073.59 215.227  29
  -1   6  -7 1240.46 228.985  13
  -1   6  -8 9963.90 652.657  13
  -1   6  -8 9216.61 613.433  21
   1   6   8 8849.55 625.128  11
   1   6   8 8971.76 596.655  18
   1   6   8 9325.53 603.520  14
  -1   6  -8 9298.12 681.303  29
  -1   6  -8 10814.3 697.988  12
  -1   6  -9 16811.0 873.475  13
  -1   6  -9 16421.8 867.202  21
   1   6   9 17250.1 845.869  18
  -1   6  -9 14424.5 881.499  29
   1   6   9 15832.3 816.226  14
   1   6  10 7430.10 532.404  14
   1   6  10 7746.63 543.290  18
  -1   6 -10 8404.13 600.558  21
  -1   6 -10 7008.48 602.034  29
   1   6  11 5039.19 417.187  14
   1   6  11 4390.26 389.960  18
  -1   6 -11 4292.48 446.066  29
  -1   6 -12 2295.87 310.951  29
   1   6  12 1966.08 247.067  14
   1  -6  12 1634.62 210.203  20
   1   6  12 1678.98 221.052  18
   1  -6  13 165.027 89.7340  20
   1   6  13 32.7760 51.5343  18
   1   6  13 91.6142 84.1079  22
  -1   6 -13 48.7169 86.4690  29
   1   6  14 2153.60 185.235  22
  -1   6 -14 1843.12 203.786  29
  -1   7  14 5186.83 308.214  18
   1   7 -13 476.060 114.902  21
  -1   7  13 286.079 105.431  18
   1   7 -13 447.473 129.801  13
   1   7 -13 400.376 119.177  29
   1   7 -12 3672.92 373.643  13
   1   7 -12 3554.94 331.910  21
  -1   7  12 3430.28 340.043  18
  -1   7  11 2404.54 306.719  18
   1   7 -11 2552.69 338.750  13
  -1   7  10 25260.2 1057.26  25
   1   7 -10 27631.7 1225.33  13
  -1   7  10 25415.5 1118.20  18
  -1   7   9 3866.70 384.913  25
  -1   7   9 3686.99 402.728  18
   1   7  -9 3519.60 421.824  13
   1   7  -9 3879.27 422.955  26
   1   7  -8 15667.2 904.147  26
  -1   7   8 16012.1 802.248  25
   1   7  -8 14957.3 867.739  10
   1   7  -8 14332.5 874.093  13
  -1   7   8 16648.2 873.179  18
  -1   7   7 10725.2 676.394  18
   1   7  -7 9642.44 699.059  10
   1   7  -7 10146.7 704.718  13
  -1   7   7 10135.9 612.985  25
   1   7  -7 9666.16 679.355  30
   1   7  -7 10568.9 729.675  26
   1   7  -6 2551.14 367.512  10
   1   7  -6 2042.84 305.071  30
  -1   7   6 2820.83 329.269  18
   1   7  -6 2912.86 364.005  28
   1   7  -6 2625.25 355.595  26
   1   7  -6 2455.27 327.082  13
  -1   7   6 2747.92 309.031  11
   1   7  -5 13621.5 841.032  10
  -1   7   5 15902.4 762.638  11
   1   7  -5 13270.2 775.115  11
   1   7  -4 226.678 126.256  10
   1   7  -4 360.592 156.043  11
  -1   7   4 357.265 129.262  11
   1   7  -3 2531.70 340.217  10
  -1   7   3 2588.62 292.259  11
  -1   7   3 2643.47 298.382  12
   1   7  -3 2147.99 293.549  11
  -1   7   2 30257.9 1129.48  12
   1   7  -2 29984.5 1183.08  11
  -1   7   2 33477.2 1166.25  11
   1   7  -2 31895.8 1299.19  10
  -1   7   1 9622.46 565.436  12
  -1   7   1 10111.3 579.345  11
   1   7  -1 9270.85 590.726  11
   1   7  -1 9116.34 633.810  10
   1   7   0 19648.1 947.445  10
   1   7   0 18236.4 870.710  11
  -1   7   0 19493.9 847.545  12
  -1   7   0 19990.0 856.442  11
  -1   7  -1 8007.06 519.865  12
   1   7   1 8170.80 575.320  10
  -1   7  -1 7983.94 520.954  11
   1   7   1 7557.15 531.127  11
  -1   7  -2 10820.8 632.428  11
  -1   7  -2 10464.5 607.092  12
   1   7   2 10343.7 634.377  11
   1   7   3 43663.5 1530.58  11
  -1   7  -3 49124.5 1538.70  12
  -1   7  -3 46262.2 1544.57  11
  -1   7  -4 2566.96 309.594  12
   1   7   4 1738.20 265.406  11
  -1   7  -5 20422.1 938.480  12
   1   7   5 20458.1 975.051  11
   1   7   6 18551.1 829.636  19
  -1   7  -6 17937.9 953.048  26
   1   7   6 17801.5 863.235  18
  -1   7  -6 18155.4 930.716  13
   1   7   6 17265.4 903.659  11
  -1   7  -6 18319.6 945.622  29
  -1   7  -7 1855.04 299.322  26
   1   7   7 1352.07 246.716  11
  -1   7  -7 1209.39 243.542  13
   1   7   7 1427.21 242.317  18
  -1   7  -7 1150.84 243.981  29
   1   7   8 6216.79 493.051  18
  -1   7  -8 6641.31 570.529  29
  -1   7  -8 6326.32 531.087  13
  -1   7  -9 8587.48 607.639  13
   1   7   9 8222.71 564.778  18
  -1   7  -9 8624.43 649.718  29
  -1   7 -10 2393.05 300.842  13
   1   7  10 1889.66 258.276  18
  -1   7 -10 1621.32 274.067  29
  -1   7 -11 2652.52 331.802  29
   1   7  11 2328.28 262.290  18
   1   7  12 5392.64 350.476  22
   1   7  12 4524.89 323.605  18
  -1   7 -12 5125.58 415.329  29
   1   7  13 4777.72 273.763  22
   1   7  13 5032.13 323.363  24
  -1   7 -13 4406.14 328.628  29
   1   8 -13 2708.66 234.792  13
  -1   8  13 2692.89 222.848  18
  -1   8  12 798.350 155.719  18
   1   8 -12 606.793 153.913  13
   1   8 -11 14831.9 781.196  13
  -1   8  11 14555.9 726.303  18
   1   8 -10 4653.24 420.451  26
   1   8 -10 4765.04 456.606  13
  -1   8  10 4636.63 419.115  18
  -1   8   9 4490.73 395.577  25
   1   8  -9 4387.60 465.067  13
  -1   8   9 4949.50 450.845  18
   1   8  -9 5073.98 471.540  26
  -1   8   8 7130.14 507.395  25
   1   8  -8 6372.78 564.676  13
   1   8  -8 6693.81 570.282  26
  -1   8   8 7886.51 578.564  18
  -1   8   7 1156.48 210.313  25
   1   8  -7 1089.31 245.495  13
  -1   8   7 890.747 206.717  18
   1   8  -7 897.825 235.888  26
  -1   8   6 4666.65 400.550  25
   1   8  -6 5002.69 498.960  10
   1   8  -6 4698.07 471.134  13
  -1   8   6 4690.57 449.518  18
   1   8  -6 4371.21 474.118  26
   1   8  -5 1414.81 281.025  10
   1   8  -5 1149.27 236.817  13
   1   8  -5 1156.90 249.923  26
   1   8  -5 1308.70 246.383  28
  -1   8   5 1331.74 216.249  19
  -1   8   5 1269.00 233.001  18
   1   8  -4 9489.50 688.349  26
   1   8  -4 10872.6 698.138  13
  -1   8   4 11365.0 637.305  19
   1   8  -4 10391.1 703.023  28
   1   8  -4 10524.4 695.396  11
  -1   8   4 10931.2 677.011  18
   1   8  -4 10062.5 732.837  10
   1   8  -3 8407.62 580.553  24
  -1   8   3 7359.07 541.677  18
  -1   8   3 8966.78 573.695  11
  -1   8   3 7870.81 549.783  27
   1   8  -3 7418.26 572.670  11
   1   8  -3 7846.33 635.504  10
  -1   8   3 7955.36 534.640  19
   1   8  -3 7649.22 585.165  28
   1   8  -2 2955.45 388.690  10
  -1   8   2 2801.36 312.160  12
   1   8  -2 2324.52 314.197  11
  -1   8   2 2821.62 317.219  11
   1   8  -1 29150.3 1264.91  10
   1   8  -1 27319.2 1167.86  11
  -1   8   1 28384.8 1099.96  12
  -1   8   1 29061.6 1130.22  11
   1   8   0 2692.83 352.637  10
  -1   8   0 3131.09 323.477  12
  -1   8   0 2705.70 313.928  11
   1   8   0 2249.43 311.448  11
   1   8   1 26047.0 1130.52  11
  -1   8  -1 26707.9 1095.35  11
  -1   8  -2 10410.2 680.380  13
   1   8   2 10794.6 657.192  19
  -1   8  -2 10496.3 665.988  18
  -1   8  -2 11326.1 679.317  11
   1   8   2 10133.5 667.613  11
   1   8   3 70798.9 2092.52  18
  -1   8  -3 70475.6 2185.87  26
  -1   8  -3 74649.3 2222.28  13
   1   8   3 71328.0 2147.00  24
  -1   8  -3 67457.8 2135.02  18
   1   8   3 72069.5 2107.82  19
   1   8   3 70801.6 2167.25  11
  -1   8  -4 22167.0 1075.48  26
  -1   8  -4 24213.1 1110.75  13
   1   8   4 23425.9 1063.06  24
   1   8   4 22196.7 993.143  19
   1   8   4 23439.9 1026.45  18
   1   8   4 22039.8 1041.97  11
   1   8   5 490.260 162.703  11
  -1   8  -5 460.759 159.351  26
   1   8   5 474.961 162.809  24
  -1   8  -5 582.775 185.609  13
   1   8   5 496.433 141.616  19
   1   8   5 456.555 137.036  18
   1   8   6 37869.9 1475.64  24
  -1   8  -6 38474.6 1533.45  26
  -1   8  -6 41773.8 1531.97  29
  -1   8  -6 39658.2 1523.94  13
   1   8   6 41727.1 1399.35  19
   1   8   6 39699.4 1441.97  18
  -1   8  -7 1891.95 290.407  29
   1   8   7 1620.23 270.717  24
  -1   8  -7 1505.38 268.803  13
   1   8   7 2017.54 284.027  18
   1   8   8 7285.34 558.688  24
  -1   8  -8 6811.72 547.174  13
   1   8   8 7046.03 517.301  18
  -1   8  -8 6722.58 556.277  29
   1   8   9 4316.55 410.041  24
  -1   8  -9 3494.52 371.539  13
  -1   8  -9 4053.14 415.361  29
   1   8   9 3530.19 348.128  18
   1   8  10 645.153 169.586  24
  -1   8 -10 608.162 140.461  13
   1   8  10 534.264 134.066  18
  -1   8 -10 665.265 168.066  29
   1   8  11 4622.40 362.082  24
   1   8  11 3633.98 288.300  18
  -1   8 -11 4038.98 355.385  29
   1   8  12 2245.04 216.927  24
  -1   8 -12 2013.85 214.647  29
   1   9 -12 4621.68 304.310  13
  -1   9  12 4338.08 277.196  18
  -1   9  11 6557.63 405.999  18
   1   9 -11 5580.03 408.988  13
   1   9 -10 7798.01 488.934  26
  -1   9  10 7752.85 498.527  18
   1   9 -10 7403.45 523.705  13
   1   9  -9 6484.18 498.046  26
  -1   9   9 5981.43 474.559  18
   1   9  -9 6120.28 506.597  13
   1   9  -8 11311.8 712.986  26
   1   9  -8 10026.0 684.171  13
  -1   9   8 10198.7 568.490  25
  -1   9   8 10224.0 651.916  18
   1   9  -7 14722.2 854.756  13
  -1   9   7 15738.8 834.572  18
   1   9  -7 14419.6 851.594  26
  -1   9   7 15335.0 722.343  25
  -1   9   6 3163.81 368.005  18
   1   9  -6 3100.09 387.351  13
   1   9  -6 3268.62 405.645  26
  -1   9   6 3245.68 324.521  19
   1   9  -5 6452.42 551.449  13
   1   9  -5 6502.46 573.524  26
  -1   9   5 7559.03 511.858  19
  -1   9   5 5887.61 508.845  18
   1   9  -4 239.952 141.795  13
   1   9  -4 206.052 129.823  26
  -1   9   4 302.389 109.252  19
  -1   9   4 289.721 140.956  18
   1   9  -4 126.178 95.7846  28
   1   9  -3 4688.79 485.673  26
  -1   9   3 4514.88 410.364  19
   1   9  -3 5226.36 475.766  13
   1   9  -3 5466.70 524.838  10
   1   9  -3 4595.74 418.372  19
   1   9  -3 5302.14 480.544  18
  -1   9   3 5010.32 465.133  18
   1   9  -3 4584.39 455.753  11
  -1   9   3 4991.32 459.469  27
   1   9  -3 4898.69 480.947  28
   1   9  -2 4010.45 439.347  26
   1   9  -2 3863.31 443.199  10
   1   9  -2 3437.58 369.178  19
  -1   9   2 3659.06 374.517  19
   1   9  -2 3681.08 400.762  11
  -1   9   2 3884.77 408.632  18
   1   9  -2 3845.32 407.217  24
   1   9  -2 3384.04 394.997  28
   1   9  -2 4083.86 420.693  18
  -1   9   2 4431.01 428.690  27
  -1   9   1 406.692 144.777  27
   1   9  -1 477.741 181.751  10
   1   9  -1-32.9148 99.7713  26
   1   9  -1 284.980 118.416  24
   1   9  -1 381.121 147.826  28
   1   9  -1 233.933 126.582  19
   1   9  -1 288.810 127.249  18
  -1   9   1 316.995 118.619  18
  -1   9   1 498.933 158.681  19
   1   9  -1 322.945 139.341  11
   1   9   0 2266.30 306.747  19
   1   9   0 2611.79 350.132  10
   1   9   0 2455.97 323.578  24
  -1   9   0 2425.85 305.900  19
  -1   9   0 2637.04 341.660  18
   1   9   0 2326.88 320.581  11
   1   9   0 2503.96 323.000  28
   1   9   0 2609.08 332.913  18
  -1   9   0 2123.03 302.598  27
  -1   9  -1 6075.76 500.226  26
  -1   9  -1 5695.33 469.718  19
   1   9   1 5891.42 503.922  24
  -1   9  -1 6175.52 527.349  27
   1   9   1 5146.33 469.510  19
  -1   9  -1 6070.01 519.053  18
   1   9   1 5560.33 481.201  18
   1   9   1 6319.98 527.137  11
  -1   9  -2 17583.5 906.228  26
   1   9   2 16830.2 886.122  24
   1   9   2 15419.0 835.625  19
  -1   9  -2 16098.9 821.288  19
   1   9   2 16844.5 866.015  18
   1   9   2 16372.7 882.997  11
  -1   9  -2 14888.3 865.397  27
  -1   9  -2 16601.5 894.974  18
  -1   9  -3 26.2067 90.3127  26
   1   9   3 105.136 118.830  24
   1   9   3 72.9111 88.4981  19
  -1   9  -3 49.5680 90.2473  19
   1   9   3-210.655 111.631  18
   1   9   3 13.9955 111.378  11
   1   9   4 13840.6 776.955  18
   1   9   4 14551.9 777.749  19
  -1   9  -4 13831.3 724.034  19
  -1   9  -4 14626.6 860.431  13
  -1   9  -4 13824.7 823.462  26
   1   9   4 13070.4 786.326  24
  -1   9  -5 1744.52 291.201  26
  -1   9  -5 1580.45 290.905  13
   1   9   5 1614.13 241.427  19
   1   9   5 1745.65 269.854  18
   1   9   5 1689.65 279.253  24
   1   9   6 5274.76 473.027  24
  -1   9  -6 5304.94 495.739  13
   1   9   6 5373.69 430.608  19
   1   9   6 5167.84 447.059  18
  -1   9  -7 6596.01 538.986  13
   1   9   7 6259.47 507.272  24
   1   9   7 7064.01 505.799  18
   1   9   8 3203.21 344.904  24
  -1   9  -8 3342.78 359.299  13
   1   9   8 2851.37 300.352  18
  -1   9  -8 2986.69 329.895  29
   1   9   9 219.915 108.110  24
   1   9   9 52.8271 62.0706  18
  -1   9  -9 251.740 100.597  29
  -1   9 -10 2508.74 237.445  27
   1   9  10 3242.46 291.446  24
   1   9  10 2807.72 237.656  18
  -1   9 -10 2781.72 263.832  29
   1   9  11 1686.42 181.533  24
   1  10 -10 3018.37 273.755  13
  -1  10  10 2995.03 253.201  18
   1  10  -9 3721.13 328.994  26
  -1  10   9 3812.09 326.773  18
   1  10  -9 3855.97 348.655  13
   1  10  -8 9368.11 595.738  13
  -1  10   8 10544.4 599.712  18
   1  10  -8 10410.6 614.181  26
   1  10  -7 939.583 208.014  26
   1  10  -7 847.042 195.461  13
  -1  10   7 985.140 204.731  18
   1  10  -6 147.086 128.327  13
  -1  10   6 204.060 102.395  19
  -1  10   6 233.006 139.547  18
   1  10  -6 94.3356 113.752  26
   1  10  -5 1713.13 286.174  26
   1  10  -5 1562.74 265.487  13
  -1  10   5 2317.53 272.414  19
  -1  10   5 1866.87 276.083  18
   1  10  -4 2366.26 337.933  26
   1  10  -4 2924.32 356.391  13
  -1  10   4 2665.05 330.849  18
  -1  10   4 2340.92 283.973  19
   1  10  -3 2004.26 307.023  26
  -1  10   3 2263.89 286.664  19
  -1  10   3 1846.11 280.738  18
   1  10  -3 1948.89 262.888  19
   1  10  -2 1469.49 283.758  18
   1  10  -2 691.148 191.637  28
  -1  10   2 863.968 183.836  19
  -1  10   2 735.561 188.102  18
   1  10  -2 786.047 188.534  19
   1  10  -2 767.251 192.278  26
  -1  10   2 877.665 204.678  27
   1  10  -1 11108.6 696.519  26
   1  10  -1 11148.2 688.064  24
   1  10  -1 10264.0 650.164  19
  -1  10   1 10219.9 632.335  19
   1  10  -1 9833.36 662.001  18
  -1  10   1 9940.61 665.012  18
   1  10  -1 10330.9 677.016  28
  -1  10   1 10235.4 678.587  27
  -1  10   0 862.316 210.982  27
   1  10   0 827.215 197.898  24
   1  10   0 887.727 192.087  19
  -1  10   0 729.895 170.514  19
   1  10   0 552.905 151.894  18
  -1  10   0 639.445 177.076  18
  -1  10  -1 5204.96 488.589  27
  -1  10  -1 5020.92 434.881  19
   1  10   1 5007.47 459.073  18
   1  10   1 5516.11 477.273  24
   1  10   1 5349.13 465.673  19
  -1  10  -1 5642.71 499.917  18
   1  10   2 6901.86 537.409  24
  -1  10  -2 6435.83 487.837  19
   1  10   2 6790.09 521.154  19
   1  10   2 5879.36 494.778  18
  -1  10  -2 7215.67 570.086  18
  -1  10  -2 6030.83 528.673  27
  -1  10  -3 2266.35 326.769  27
   1  10   3 2742.88 338.900  24
   1  10   3 2724.86 320.232  19
  -1  10  -3 2440.41 295.515  19
   1  10   3 2734.31 328.298  18
   1  10   4 8465.78 560.497  19
  -1  10  -4 7798.68 504.070  19
   1  10   4 8039.95 557.828  18
   1  10   4 8040.35 575.943  24
  -1  10  -4 8226.50 609.115  27
   1  10   5 115.654 92.9643  24
  -1  10  -5 212.414 126.903  27
   1  10   5 210.682 121.401  19
   1  10   5 119.888 98.9637  18
  -1  10  -6 546.267 171.132  27
   1  10   6 317.136 121.344  18
   1  10   6 524.615 145.821  24
  -1  10  -7 2201.39 280.634  27
   1  10   7 2141.99 250.391  18
   1  10   7 2530.86 284.541  24
  -1  10  -8 886.985 172.995  27
   1  10   8 910.854 167.729  24
   1  10   8 849.710 146.090  18
  -1  10  -9 2870.88 249.964  27
   1  10   9 2824.18 221.688  18
  -1  11   8 9372.82 469.838  18
  -1  11   7 7693.87 459.654  18
   1  11  -7 7500.23 471.556  26
   1  11  -6 446.985 142.761  26
  -1  11   6 462.102 104.642  19
  -1  11   6 495.058 130.733  18
   1  11  -5 6081.08 468.609  26
  -1  11   5 5797.65 385.921  19
  -1  11   5 5632.15 435.368  18
   1  11  -5 5276.21 410.041  27
   1  11  -4 2368.91 271.326  27
   1  11  -4 2836.59 329.987  26
  -1  11   4 2597.04 306.825  18
  -1  11   4 2623.77 274.541  19
   1  11  -3 10676.9 564.556  19
  -1  11   3 10596.6 588.229  19
  -1  11   3 10423.1 636.177  18
   1  11  -3 11423.9 665.947  26
   1  11  -2 6907.70 505.228  26
  -1  11   2 6373.54 495.886  18
   1  11  -2 6739.13 465.302  19
  -1  11   2 6320.11 457.035  19
   1  11  -1 928.722 190.560  19
  -1  11   1 1097.99 200.471  19
  -1  11   1 674.424 181.492  18
  -1  11   1 823.515 193.549  27
  -1  11   0 15538.1 806.437  27
   1  11   0 14745.0 773.375  18
   1  11   0 15147.9 753.556  19
  -1  11   0 15168.7 738.978  19
  -1  11   0 15140.7 800.220  18
  -1  11  -1 7228.17 531.511  27
   1  11   1 6940.85 494.715  24
   1  11   1 6454.92 475.983  19
  -1  11  -1 6392.54 458.320  19
   1  11   1 6701.44 496.235  18
   1  11   2 3461.50 343.573  24
   1  11   2 3061.19 323.705  19
  -1  11  -2 3373.65 319.428  19
   1  11   2 2957.56 321.978  18
  -1  11  -2 3817.63 387.403  27
  -1  11  -3 8596.19 578.663  27
   1  11   3 8183.19 528.285  24
   1  11   3 8211.24 516.205  19
  -1  11  -3 7857.53 476.502  19
   1  11   3 7676.68 506.986  18
   1  11   4 1226.93 193.997  19
   1  11   4 823.666 171.402  18
   1  11   4 1346.68 207.953  24
  -1  11  -4 1049.60 211.831  27
   1  11   5 6930.79 448.629  24
   1  11   5 6151.55 411.013  18
  -1  11  -5 6796.60 478.307  27
   1  11   6 1374.00 187.746  24
   1  11   6 1126.25 163.198  18
  -1  11  -6 1278.05 198.451  27
   1  11   7 2221.35 194.312  18
   1  11   7 2551.22 227.957  24
  -1  11  -7 2603.15 247.771  27
  -1  12   6 7164.66 370.430  18
  -1  12   5 211.298 89.3917  18
  -1  12   5 260.252 74.6340  19
  -1  12   4 8958.82 428.389  19
  -1  12   4 8353.97 467.250  18
   1  12  -4 8530.90 456.300  26
  -1  12   3 7743.67 424.484  19
  -1  12   3 8261.83 477.701  18
   1  12  -3 7975.71 438.319  26
   1  12  -2 618.346 132.848  19
  -1  12   2 415.271 109.352  19
  -1  12   2 778.012 176.051  18
   1  12  -1 5775.46 366.928  19
  -1  12   1 5296.46 361.524  19
   1  12   0 9710.45 501.611  19
  -1  12   0 9439.82 493.206  19
   1  12   1 9298.55 492.106  19
  -1  12  -1 9018.60 469.669  19
   1  12   2 4156.90 313.497  19
  -1  12  -2 3216.14 261.689  19
  -1  12  -2 3800.16 321.548  27
  -1  12  -3 580.640 130.774  27
  -1  12  -3 312.238 80.9378  19
   1  12   3 526.850 117.537  18
   1  12   4 3754.08 256.367  18
  -1  12  -4 4404.29 320.049  27
  -1  12  -5 34.1667 52.4947  27
  -2   0  16 2566.61 237.256  14
   2   0 -15 5854.87 426.956  21
  -2   0  14 410.494 123.320  23
   2   0 -14 461.961 156.300  21
  -2   0  13 211.732 101.865  23
   2   0 -13 137.683 118.945  21
  -2   0  12 45.5428 102.511  23
   2   0 -12-314.818 158.432  21
  -2   0  11 9452.28 620.735  23
   2   0 -10 42109.8 1541.30   8
   2   0  -9 1718.74 268.284   8
  -2   0   9 1861.44 251.343   7
   2   0  -8 5681.66 457.999   8
  -2   0   8 6239.59 448.646   7
   2   0  -7 10910.9 607.318   8
  -2   0   7 10255.4 560.951   7
  -2   0   6 24042.8 872.491   7
   2   0  -6 24660.0 924.491   8
   2   0  -5 403147. 8309.12   8
  -2   0   5 405603. 8255.11   7
  -2   0   4 58727.9 1502.12   7
   2   0  -4 58967.8 1536.34   8
  -2   0   3 898.810 103.174  12
  -2   0   3 1181.04 140.166   7
   2   0  -3 1090.67 148.456   6
  -2   0   2 36471.2 937.838  12
   2   0  -2 37392.4 1049.28   6
   2   0  -1 5460.99 297.722   6
  -2   0   1 4751.60 231.985  12
  -2   0   1 5492.37 266.964   2
   2   0   0 20495.2 663.867   6
  -2   0   0 20691.2 602.968  12
   2   0   1 2948.00 225.652   6
  -2   0  -1 3690.62 214.448  12
   2   0   2 96559.0 2199.38   6
  -2   0  -2 91128.9 2093.11  12
   2   0   3 6276.75 378.302   6
   2   0   3 6926.01 376.046   5
  -2   0  -3 6765.24 357.136  12
   2   0   4 131.821 78.9142   5
   2   0   5 12163.7 604.366   5
   2   0   6-36.2964 61.9791   3
   2   0   7 4672.62 414.895   3
   2   0   8 28191.0 1173.53   3
   2   0   9 18929.1 905.198  20
   2   0  10 992.362 203.955  20
   2   0  11 203.240 126.761  20
   2   0  12 268.408 111.131  22
   2   0  12 27.7217 85.1531  20
   2   0  13 99.8573 113.620  20
   2   0  14 1677.52 193.701  20
   2   1 -16 711.008 128.667  21
  -2   1  16 872.119 140.843  14
  -2   1  15 127.789 76.7376  23
   2   1 -15 79.5217 90.8092  21
  -2   1  14 1454.05 216.023  23
   2   1 -14 1179.00 239.671  21
  -2   1  13 5250.79 440.111  23
   2   1 -13 5190.94 528.017  21
  -2   1  12 8604.30 594.118  23
   2   1 -12 8250.86 683.088  21
  -2   1  11 31414.7 1250.08  23
  -2  -1  11 31142.6 1205.66  23
   2   1 -10 1093.21 245.651   8
   2  -1 -10 1328.42 249.203   8
  -2   1  10 1197.90 218.882   7
   2   1  -9 11291.4 738.025   8
   2  -1  -9 15941.3 786.734   8
   2   1  -8 1862.97 277.957   8
  -2   1   8 1841.06 250.780   7
   2   1  -7 6107.75 479.569   8
   2  -1  -7 9213.43 522.208   8
  -2   1   7 7303.56 482.265   7
  -2  -1   7 8432.46 469.767   7
   2  -1  -6 22046.0 803.304   8
  -2  -1   6 20547.9 735.517   7
   2   1  -5 44193.8 1189.16   9
   2   1  -5 44840.0 1352.66   8
   2  -1  -5 42352.0 1248.58   8
  -2   1   5 46980.2 1324.98   7
  -2  -1   5 44900.5 1213.87   7
  -2   1   4 111261. 2486.01   1
  -2   1   4 113398. 2536.05  12
   2   1  -4 121803. 2681.50   8
   2  -1  -4 114310. 2563.95   8
  -2  -1   4 119006. 2508.14   7
  -2   1   3 5881.33 336.790   7
  -2   1   3 6546.08 319.822  12
   2   1  -3 6170.38 336.736   6
  -2   1   2 27509.8 811.214  12
   2   1  -2 27245.2 833.102   6
   2  -1  -2 29068.7 868.704   6
   2  -1  -1 43959.3 1152.28   6
   2   1  -1 44400.0 1131.81   6
  -2  -1   1 41872.3 1121.20   2
  -2   1   1 44140.1 1116.64  12
   2  -1   0 18193.2 613.770   6
  -2   1   0 18581.6 599.950  12
   2  -1   1 141493. 3002.04   6
  -2   1  -1 135671. 2958.00  12
   2   1   1 132295. 2963.97   6
   2  -1   2 4898.22 304.554   6
   2   1   2 4357.42 288.958   6
  -2  -1  -2 4568.55 241.294  12
   2  -1   3 7239.12 392.991   6
   2   1   3 4391.71 314.503   6
   2  -1   3 6262.05 339.438   5
  -2   1  -3 4542.59 300.968  12
   2   1   3 4831.58 327.617   5
  -2   1  -4 34439.7 1081.38  12
   2  -1   4 36235.0 1082.20   5
   2   1   4 33325.7 1103.40   5
   2  -1   5 4856.75 356.543   5
  -2   1  -5 4352.15 341.022  12
   2   1   5 4780.78 376.623   5
   2  -1   6 24553.6 989.043   3
   2   1   6 23787.1 972.464   3
   2  -1   7 35261.5 1294.37   3
   2   1   7 34268.0 1272.19   3
   2   1   8 25660.3 1102.48   3
   2  -1   8 27631.6 1136.65   3
   2   1   9 15085.9 774.968  20
  -2   1  -9 13359.2 794.384  12
   2   1  10 119.563 93.2874  14
   2   1  10 99.7290 94.9796  20
   2  -1  10 203.232 94.8657  20
  -2   1 -10 112.916 106.661  12
   2   1  11 4600.47 420.285  14
   2   1  11 5669.53 453.980  20
   2  -1  11 4290.89 428.307  20
   2   1  12 7572.75 512.199  14
   2  -1  12 6744.09 513.011  20
   2   1  13 3398.23 305.400  14
   2  -1  13 3612.71 342.887  20
   2   1  13 4179.84 347.560  22
   2  -1  14 5236.16 356.970  20
   2   1  14 5073.67 325.734  22
   2   2 -16 1083.30 161.525  21
  -2   2  16 1215.19 147.209  14
   2   2 -15 1577.17 246.112  21
  -2   2  15 1863.87 211.272  23
  -2   2  15 1839.35 226.261  14
   2   2 -14 563.583 177.561  21
  -2   2  14 616.495 153.639  23
  -2   2  13 7181.77 514.781  23
   2   2 -13 5930.30 568.203  21
  -2   2  12 7760.95 561.659  23
   2   2 -12 6939.19 633.379  21
  -2   2  11 4301.14 419.163  23
   2   2 -11 3980.44 415.484  30
  -2   2  10 41069.5 1473.68  23
   2   2 -10 38478.9 1577.93   8
   2   2  -9 14345.6 857.435   8
  -2   2   9 17351.1 845.960   7
   2   2  -8 18427.7 930.036   8
   2  -2  -8 17483.5 773.653   8
  -2   2   8 19089.2 872.293   7
   2   2  -7 15595.9 810.613   8
   2  -2  -7 17298.8 716.918   8
  -2   2   7 16652.5 777.635   7
   2   2  -6 22791.8 804.598   9
   2   2  -6 21061.8 903.985   8
   2  -2  -6 20172.0 761.494   8
  -2   2   6 22407.3 875.846   7
   2   2  -5 6879.06 380.299   9
   2   2  -5 6108.87 422.268   8
  -2   2   5 7604.43 444.917   7
   2   2  -4 10479.3 472.111   9
  -2   2   4 10233.9 477.306  12
   2   2  -4 9471.79 502.803   8
  -2   2   4 10099.4 509.481   7
  -2   2   3 8316.06 436.851   7
  -2   2   3 8891.08 428.590  12
   2  -2  -3 9319.50 438.705   6
   2   2  -3 9237.84 417.303   6
   2   2  -2 15104.6 549.620   6
  -2   2   2 16188.7 603.183  12
   2   2  -1 23898.4 702.291   6
  -2   2   1 25667.8 773.689  12
   2   2   0 201800. 3991.92   6
  -2   2   0 189955. 4053.57  12
   2   2   0 194197. 3897.98  11
   2   2   1 41663.0 1099.60   6
  -2   2  -1 44027.0 1181.10  12
   2   2   1 41257.8 1042.53  11
   2  -2   2 10470.2 480.498   6
   2   2   2 11505.6 492.558   6
  -2   2  -2 10588.7 495.472  12
   2   2   2 10454.4 435.496  11
   2  -2   3 11377.4 536.280   6
  -2   2  -3 14225.9 598.291  12
   2  -2   3 11383.5 485.412   5
   2   2   3 14186.5 607.782   5
  -2   2  -4 14804.9 648.569  12
   2  -2   4 13724.4 580.286   5
   2   2   4 13597.0 652.682   5
   2   2   5 37381.2 1261.69   5
  -2   2  -5 34764.7 1179.87  12
  -2   2  -6 26765.2 1042.16  12
   2  -2   6 30121.7 1108.75   3
   2   2   6 27454.4 1066.53   3
   2  -2   7 2671.19 317.608   3
  -2   2  -7 3659.75 366.995  12
   2   2   7 3719.23 368.093   3
  -2   2  -8 844.441 188.127  12
   2   2   8 1327.37 236.538   3
   2   2   9 1639.79 259.210  14
  -2   2  -9 1473.69 256.902  12
  -2   2  -9 1881.21 305.202  29
  -2   2 -10 12953.3 821.808  29
   2   2  10 12581.9 730.309  14
   2  -2  10 11455.1 706.084  20
   2   2  11 129.245 120.748  14
  -2   2 -11 283.920 143.185  29
   2  -2  11 145.911 120.106  20
   2   2  12 5153.67 429.936  14
   2  -2  12 5278.56 444.706  20
   2   2  13 2954.48 291.767  14
   2   2  13 2892.19 299.062  22
   2   2  14 1748.22 197.201  22
   2  -2  14 1719.06 208.740  20
   2   3 -16 1354.69 169.177  21
  -2   3  15 1219.00 169.281  23
  -2   3  15 1037.46 153.192  14
   2   3 -15 1186.93 212.234  21
  -2   3  14 4998.93 388.367  14
   2   3 -14 4878.96 469.342  21
  -2   3  14 5083.90 396.090  23
   2   3 -13 1541.76 252.514  30
  -2   3  13 1903.71 269.945  23
   2   3 -13 1651.82 304.580  21
   2   3 -12 4682.54 452.571  30
  -2   3  12 5037.12 411.685  25
  -2   3  12 4533.15 422.941  23
   2   3 -12 4326.20 496.125  21
  -2   3  11 21783.9 928.256  25
  -2   3  11 21154.4 983.985  23
   2   3 -11 21212.5 1037.94  30
   2   3 -10 41486.6 1506.71  30
  -2   3  10 43076.7 1386.15  25
   2   3  -9 22911.8 1128.01   8
  -2   3   9 25640.5 1077.09   7
   2   3  -8 5049.48 477.947   8
  -2   3   8 5665.88 454.229   7
   2   3  -7 11714.1 698.076   8
  -2   3   7 12207.5 665.786   7
   2   3  -6 20121.3 899.979   8
  -2   3   6 20650.4 863.663   7
   2   3  -6 21869.1 859.671   9
   2   3  -5 4801.76 352.566   9
   2   3  -5 4086.01 348.729   8
  -2   3   5 4291.92 345.800   7
   2   3  -4 38248.4 1146.50   9
  -2   3   4 35107.2 1140.26  12
   2   3  -4 37183.7 1170.45   8
   2   3  -4 40009.7 1084.85  11
  -2   3   4 35120.9 1155.08   7
   2   3  -4 37213.5 1051.74   6
   2  -3  -4 35044.5 1087.06   6
  -2   3   3 1561.11 190.230   7
   2   3  -3 1441.44 179.217   9
   2  -3  -3 1412.72 173.231   6
  -2   3   3 1627.43 192.475  12
   2   3  -3 1641.18 164.315  11
   2  -3  -2 39930.2 1125.61   6
   2   3  -2 41197.0 1063.09   6
  -2   3   2 43435.8 1230.69  12
   2   3  -2 40410.7 1174.71   9
   2   3  -2 41897.1 1104.33  11
   2   3  -1 55337.7 1353.87   6
   2   3  -1 54715.7 1478.98   9
  -2   3   1 56695.2 1511.00  12
   2   3  -1 54210.0 1383.88  11
   2   3   0 63440.8 1550.05  11
   2  -3   0 62405.8 1566.74   6
   2   3   0 63930.8 1525.68   6
  -2   3   0 66835.3 1684.75  12
   2   3   1 6990.97 357.036   6
  -2   3  -1 6150.26 392.557  12
   2   3   1 6837.39 358.669  11
   2   3   2 22606.7 792.237  11
  -2   3  -2 23715.7 874.377  12
   2   3   2 22326.5 828.439   5
   2  -3   3 166527. 3582.77   6
  -2   3  -3 160709. 3666.43  12
   2   3   3 154783. 3648.77   5
   2   3   3 158560. 3568.71  11
  -2   3  -4 29687.2 1044.03  12
   2   3   4 25759.3 1010.54   5
  -2   3  -5 4788.49 396.486  12
   2   3   5 5396.09 404.033   3
  -2   3  -6 10991.3 647.237  12
   2  -3   6 11715.5 658.091   3
   2   3   6 12400.3 657.381   3
  -2   3  -7 1097.49 208.706  12
   2   3   7 1447.60 236.039   3
   2  -3   7 1550.40 248.688   3
   2   3   8 3793.96 388.233  14
   2   3   8 4674.44 437.615   3
  -2   3  -8 3908.26 409.666  12
   2   3   9 4645.35 441.243  14
  -2   3  -9 4549.54 453.431  12
  -2   3  -9 5656.67 536.080  29
   2   3  10 1393.74 252.113  14
   2  -3  10 1394.64 244.036  20
  -2   3 -10 1553.89 292.832  29
   2   3  11 5920.79 489.605  14
   2  -3  11 6345.95 498.856  20
  -2   3 -11 5729.79 543.170  29
   2   3  12 874.186 180.145  14
  -2   3 -12 1012.28 212.087  29
   2   3  13 1474.45 208.246  14
   2   3  13 1778.85 234.239  22
  -2   3 -13 1795.14 244.134  29
   2   3  14 1205.57 166.991  22
   2  -3  14 861.950 149.254  20
  -2   4  15 5830.25 313.711  14
   2   4 -15 5495.55 400.218  21
  -2   4  15 5352.64 328.606  18
  -2   4  14 652.736 146.260  23
   2   4 -14 585.771 172.595  21
  -2   4  14 787.436 145.286  14
  -2   4  13 2893.70 316.761  23
   2   4 -13 2672.57 331.586  30
   2   4 -13 2942.28 376.257  21
  -2   4  13 3030.49 298.976  14
  -2   4  12 1749.65 247.602  25
  -2   4  12 1792.08 265.571  23
  -2   4  12 2014.95 263.191  14
   2   4 -12 1468.35 279.841  21
   2   4 -12 1976.71 314.053  30
  -2   4  11 1627.02 247.752  25
  -2   4  11 1710.80 260.878  23
   2   4 -11 1505.75 301.908  21
   2   4 -11 1798.15 296.978  30
   2   4 -10 14614.4 843.074  30
  -2   4  10 15795.6 784.244  25
  -2   4  10 13955.6 771.901  23
   2   4  -9 10431.9 677.192  30
  -2   4   9 9226.85 594.515  23
   2   4  -9 9803.62 725.142  16
   2   4  -9 10319.1 711.043   8
  -2   4   9 10095.0 642.539   7
  -2   4   9 9391.24 582.456  25
   2   4  -8 17569.2 925.743   8
  -2   4   8 18754.2 881.593   7
   2   4  -7 11790.6 708.632   8
  -2   4   7 13912.5 717.867   7
   2   4  -6 15290.2 764.224   8
  -2   4   6 15775.0 751.621   7
   2   4  -5 9617.46 578.365   9
  -2   4   5 11393.6 604.105  12
   2   4  -5 11044.2 596.181   8
  -2   4   5 11199.3 597.186   7
   2  -4  -5 12759.9 574.510   6
   2   4  -4 874.833 170.689   9
  -2   4   4 1079.47 178.504  12
   2   4  -4 1511.54 193.300  11
   2  -4  -4 1027.56 155.884   6
  -2   4   4 1059.16 173.528   7
   2  -4  -3 15287.4 594.882   6
   2   4  -3 14697.7 673.513   9
  -2   4   3 14684.4 672.340  12
   2   4  -3 15031.7 620.241  11
  -2   4   3 15793.8 674.158   7
   2  -4  -2 49709.9 1317.89   6
   2   4  -2 50224.8 1453.13   9
  -2   4   2 51260.0 1484.60  12
   2   4  -2 51915.0 1387.87  11
   2   4  -1 6022.80 358.526  11
   2  -4  -1 6873.87 350.087   6
   2   4  -1 5799.52 381.714   9
  -2   4   1 5543.73 387.577  12
   2   4   0 15574.5 608.098  11
  -2   4   0 16145.9 676.224  12
   2   4   0 14982.4 623.732   9
   2   4   1 98402.7 2381.59   9
   2   4   1 98962.2 2378.15  11
  -2   4  -1 102731. 2499.51  12
   2   4   1 103520. 2405.71   5
   2  -4   1 95821.1 2298.46   6
   2   4   2 75181.6 1937.35   9
  -2   4  -2 73703.2 2061.65  12
   2   4   2 76312.3 2027.62   5
   2   4   2 73872.0 1970.95  11
   2   4   3 278377. 6019.57  11
   2   4   3 296424. 5926.16   9
  -2   4  -3 274591. 6123.98  12
   2   4   3 274669. 6077.97   5
  -2   4  -4 63558.1 1864.51  12
   2   4   4 62411.4 1791.58  11
   2   4   4 63210.7 1859.75   5
  -2   4  -5 15570.5 781.379  12
   2   4   5 14964.9 731.504  11
  -2   4  -6 1105.45 214.553  12
   2   4   6 2031.32 272.171  11
   2   4   7 37048.6 1307.80   4
   2   4   7 34111.4 1309.59  11
  -2   4  -7 36255.6 1381.47  12
   2   4   8 7049.26 537.992  11
   2   4   8 7863.08 573.276  14
  -2   4  -8 6845.79 561.019  12
  -2   4  -8 7017.41 595.420  29
   2  -4   9 2909.15 340.054  20
  -2   4  -9 2698.96 346.199  12
   2   4   9 3014.94 348.757  11
   2   4   9 3222.29 372.819  14
  -2   4  -9 3036.67 400.936  29
   2   4  10 3549.20 385.120  14
   2  -4  10 2777.83 333.451  20
  -2   4 -10 3166.33 407.640  29
   2   4  11 827.389 191.530  14
   2  -4  11 675.284 176.199  20
  -2   4 -11 897.863 218.944  29
   2   4  12 942.824 190.664  14
   2   4  12 1267.68 222.417  22
   2  -4  12 1427.76 225.460  20
  -2   4 -12 1063.62 220.246  29
   2   4  13 2504.29 267.797  22
   2  -4  13 2214.37 245.006  20
  -2   4 -13 1919.23 250.603  29
   2   4  14 284.894 88.2727  22
   2  -4  14 206.966 77.1203  20
   2   5 -15 2045.96 213.334  21
   2   5 -15 1841.36 199.881  13
   2   5 -14 1047.78 198.752  21
  -2   5  14 1258.25 176.540  18
  -2   5  13 3497.84 323.805  23
   2   5 -13 3618.59 392.593  21
  -2   5  13 3658.94 340.887  18
  -2   5  12 709.551 188.672  23
  -2   5  12 592.464 156.676  25
   2   5 -12 577.806 189.769  21
   2   5 -12 559.009 185.650  30
  -2   5  11 1795.52 263.933  25
  -2   5  11 1551.37 250.388  23
   2   5 -11 1344.26 268.296  21
   2   5 -11 1686.44 301.696  30
   2   5 -10 2582.39 351.124  30
  -2   5  10 2643.00 317.994  25
  -2   5  10 2588.23 313.307  23
   2   5 -10 2628.64 375.266  21
  -2   5   9 1161.50 213.127  25
   2   5  -9 1181.12 247.017  30
  -2   5   9 1154.50 220.947  23
   2   5  -8 57129.6 1884.02  30
  -2   5   8 59546.3 1787.91  25
   2   5  -8 56101.6 1848.98   8
  -2   5   8 59518.5 1838.21   7
   2   5  -8 56636.7 1968.90  16
   2   5  -7 11711.2 760.559  10
   2   5  -7 13058.0 723.981   8
  -2   5   7 13461.6 724.602   7
  -2   5   6 4443.84 393.295   7
   2   5  -6 5245.62 419.023   8
  -2   5   5 663.517 153.434   7
  -2   5   4 25977.6 975.083   7
  -2   5   4 25699.2 1007.41  12
   2   5  -4 24180.5 939.322  11
   2   5  -3 23517.1 973.460   9
  -2   5   3 25053.3 970.594  12
   2   5  -3 23496.5 898.932  11
   2   5  -2 2296.18 274.430   9
  -2   5   2 2553.36 283.904  12
   2   5  -2 2491.04 258.470  11
   2   5  -1 1312.16 208.942   9
  -2   5   1 1299.66 207.473  12
   2   5  -1 1368.49 189.623  11
   2   5   0 5938.43 401.196  11
   2   5   0 5249.63 396.027   9
  -2   5   0 5008.99 401.285  12
   2   5   1 124.000 82.8408  11
   2   5   1 86.0138 78.4290   9
  -2   5  -1-18.3393 94.1430  12
   2   5   1 96.9444 71.0937   5
   2   5   2 17974.6 756.579   9
   2   5   2 18376.2 788.865   5
   2   5   2 15681.3 735.613  11
  -2   5  -2 16471.7 795.317  12
   2   5   3 61701.5 1806.02  11
  -2   5  -3 63882.1 1901.82  12
  -2   5  -4 32572.5 1254.93  12
   2   5   4 32076.5 1185.98  11
  -2   5  -5 3523.29 386.969  12
   2   5   5 2955.92 333.248  11
  -2   5  -6 8382.10 615.593  12
   2   5   6 7993.11 570.051  11
   2   5   7 16640.8 875.908  14
   2  -5   7 18888.0 835.593  20
  -2   5  -7 18027.4 952.089  12
   2   5   7 18397.1 912.328  11
   2   5   8 1573.24 252.514  11
   2   5   8 1524.77 257.475  14
   2  -5   8 1184.37 211.140  20
  -2   5  -8 1725.96 283.028  12
  -2   5  -8 1492.86 287.141  29
   2   5   9 2731.59 340.794  14
   2  -5   9 2884.11 323.101  20
  -2   5  -9 2842.02 383.705  29
   2   5  10 2896.48 346.889  14
   2  -5  10 2540.29 298.770  20
  -2   5 -10 3320.94 410.535  29
   2   5  11 636.412 170.725  22
   2  -5  11 486.162 141.522  20
  -2   5 -11 522.638 169.201  29
   2   5  12 4780.99 388.612  22
   2  -5  12 5074.01 373.738  20
  -2   5 -12 4442.88 410.325  29
   2   5  13 2961.05 249.261  24
   2   5  13 3401.36 282.566  22
   2  -5  13 3522.76 269.307  20
  -2   5 -13 2722.49 273.935  29
   2   6 -14 208.465 103.925  13
   2   6 -14 122.142 86.7188  21
  -2   6  14 206.069 78.3585  18
   2   6 -13 6173.61 449.503  21
  -2   6  13 5860.48 398.715  18
  -2   6  12 3048.36 314.722  25
  -2   6  12 3061.10 300.956  23
   2   6 -12 3153.17 357.763  21
  -2   6  12 2766.26 302.852  18
  -2   6  11 2926.41 326.895  25
  -2   6  11 2942.96 313.141  23
   2   6 -11 2995.45 377.492  30
   2   6 -11 2759.72 352.358  21
  -2   6  11 2687.38 314.241  18
  -2   6  10 11825.2 687.341  25
  -2   6  10 11251.3 642.478  23
   2   6 -10 11839.7 767.085  30
   2   6 -10 11959.4 769.034  21
  -2   6  10 11569.3 694.890  18
  -2   6   9 10450.9 615.834  23
   2   6  -9 10284.4 709.590  21
  -2   6   9 9991.47 643.339  18
   2   6  -9 9636.86 692.121  30
  -2   6   9 10568.8 645.365  25
  -2   6   8 20866.0 966.439  25
  -2   6   8 22333.8 933.429  23
   2   6  -8 22761.5 1129.62  16
   2   6  -8 22130.1 1110.81  10
  -2   6   8 23954.9 1020.55  18
   2   6  -8 21949.2 1073.00  30
   2   6  -8 24366.3 1094.41  28
  -2   6   7 4741.88 420.191  15
   2   6  -7 4470.96 477.851  10
   2   6  -7 4495.03 443.826  30
  -2   6   7 3800.30 370.359  18
   2   6  -7 4179.60 440.667  16
   2   6  -7 4652.07 453.953  28
  -2   6   6 990.953 186.867   7
   2   6  -6 1344.50 272.385  10
   2   6  -5 1891.62 279.391  11
  -2   6   5 1384.12 210.434   7
  -2   6   4 1538.81 243.471  12
   2   6  -4 1230.47 210.705  11
  -2   6   3 10152.1 614.995  12
   2   6  -3 9578.07 574.789  11
  -2   6   2 9272.06 581.550  12
   2   6  -2 8540.94 536.932  11
  -2   6   1 19795.0 881.523  12
   2   6  -1 17077.2 798.146  11
   2   6   0 16704.3 788.456  11
  -2   6   0 17802.6 843.091  12
  -2   6  -1 9522.90 604.042  12
   2   6   1 9226.25 565.813  11
  -2   6  -2 27916.3 1119.76  12
   2   6   2 26184.6 1056.98  11
  -2   6  -3 21843.6 988.278  12
   2   6   3 19309.7 898.941  11
  -2   6  -4 8944.03 622.462  12
   2   6   4 8371.98 579.330  11
   2   6   5 149071. 3693.83  11
  -2   6  -5 145717. 3765.08  12
  -2   6  -5 149080. 3790.90  29
   2   6   6 4877.59 434.460  22
  -2   6  -6 5015.01 484.913  12
   2   6   6 5114.81 460.101  11
  -2   6  -6 5188.00 499.871  29
   2   6   7 24684.0 1068.49  22
  -2   6  -7 24207.6 1129.32  12
   2   6   7 22442.5 1043.85  11
  -2   6  -7 22983.2 1139.22  29
   2   6   8 8016.68 580.008  22
  -2   6  -8 7667.80 631.983  29
   2  -6   9 1272.47 211.097  20
  -2   6  -9 1254.18 248.391  29
   2   6   9 1116.47 220.134  22
   2   6  10 5257.85 439.567  22
   2  -6  10 4845.26 379.405  20
  -2   6 -10 4594.02 464.723  29
   2  -6  11 1467.93 200.619  20
   2   6  11 879.204 176.333  22
  -2   6 -11 902.161 201.300  29
  -2   6 -12 1724.20 234.355  29
   2   6  12 1625.51 205.563  24
   2   6  12 1851.69 214.123  22
   2  -6  12 1249.29 162.569  20
   2   6  13 2780.89 213.793  22
  -2   6 -13 2378.88 221.605  29
   2   7 -13 1006.84 176.400  13
  -2   7  13 1109.03 151.116  18
   2   7 -12 1755.73 262.564  13
  -2   7  12 1934.31 234.017  18
  -2   7  11 4082.94 363.570  25
  -2   7  11 4043.42 367.156  18
   2   7 -11 3656.77 399.653  13
   2   7 -10 2439.38 315.586  26
  -2   7  10 1935.70 270.789  25
  -2   7  10 1984.85 244.248  23
  -2   7  10 2201.03 284.358  18
   2   7 -10 2230.03 333.881  30
  -2   7   9 27893.3 1130.19  25
   2   7  -9 29564.7 1284.76  26
  -2   7   9 29829.2 1183.80  18
   2   7  -9 27994.2 1257.46  30
  -2   7   8 12940.6 725.149  25
  -2   7   8 14426.0 775.342  18
   2   7  -8 13839.0 845.501  30
  -2   7   7 10160.8 635.188  25
  -2   7   7 11233.5 672.580  18
   2   7  -7 10304.9 744.914  10
   2   7  -7 11372.3 748.739  28
   2   7  -7 10519.8 726.615  30
  -2   7   6 26201.3 1100.38  15
   2   7  -6 26676.1 1177.46  30
   2   7  -6 25879.5 1261.27  10
  -2   7   6 27837.0 1113.49  18
   2   7  -6 26301.2 1202.56  28
   2   7  -5 4022.65 460.718  10
   2   7  -5 3875.09 426.619  28
   2   7  -5 3707.69 395.076  30
  -2   7   5 3311.65 346.245  18
  -2   7   5 3444.34 359.118  15
   2   7  -4 34591.0 1461.87  10
   2   7  -4 35987.1 1411.65  28
  -2   7   4 33512.3 1302.45  12
   2   7  -4 34322.7 1295.80  11
  -2   7   3 9586.26 623.536  12
   2   7  -3 8774.19 592.782  11
  -2   7   2 34396.6 1284.27  12
   2   7  -2 31292.6 1224.98  11
  -2   7   1 19992.3 935.590  12
   2   7  -1 17878.3 873.617  11
  -2   7   0 1583.87 258.387  12
   2   7   0 1656.14 252.612  11
   2   7   1 14356.3 780.168  11
  -2   7  -1 14502.2 801.096  12
   2   7   2 1413.17 242.036  11
  -2   7  -2 1809.06 277.556  12
   2   7   3 18798.3 945.116  24
  -2   7  -3 20516.2 986.154  12
   2   7   3 19771.7 919.794  19
   2   7   3 18753.7 926.870  11
  -2   7  -3 19527.5 957.242  29
   2   7   4 3777.21 412.893  24
  -2   7  -4 3600.82 401.811  12
   2   7   4 4168.78 404.953  19
   2   7   4 3502.61 381.978  11
  -2   7  -4 4132.33 427.191  29
   2   7   5 8173.38 591.312  11
   2   7   5 8943.35 646.261  24
  -2   7  -5 8669.86 635.375  12
  -2   7  -5 8800.29 652.558  29
   2   7   6 1354.95 250.840  24
  -2   7  -6 1087.11 238.333  29
   2   7   7 1023.83 222.428  24
  -2   7  -7 1307.29 260.640  29
   2   7   8 495.540 155.201  24
   2   7   8 303.129 106.352  22
  -2   7  -8 485.605 166.264  29
   2   7   9 4011.35 403.146  24
   2   7   9 4526.66 387.199  22
  -2   7  -9 3993.20 425.121  29
   2   7  10 81.3570 80.2197  24
   2   7  10-6.92802 102.914  22
  -2   7 -10 108.935 109.633  29
   2   7  11 7713.35 467.747  24
   2   7  11 8831.39 461.545  22
  -2   7 -11 7892.20 509.803  29
   2   7  12 645.310 112.774  24
  -2   7 -12 648.449 127.981  29
   2   8 -12 919.284 169.623  13
  -2   8  12 756.048 128.530  18
  -2   8  11 65.2649 78.2787  25
   2   8 -11-41.2819 103.797  13
  -2   8  11 111.499 75.8375  18
   2   8 -10 5707.43 449.581  26
  -2   8  10 6007.02 433.359  25
   2   8 -10 6113.19 494.644  13
  -2   8  10 6402.21 455.376  18
   2   8  -9 2293.63 319.033  26
  -2   8   9 1987.12 258.366  25
  -2   8   9 1960.43 265.828  18
   2   8  -9 2264.34 316.188  13
   2   8  -8 7224.06 594.288  26
  -2   8   8 6439.16 481.758  25
  -2   8   8 7134.98 521.568  18
   2   8  -8 6406.38 541.438  13
   2   8  -7 14129.0 870.797  26
  -2   8   7 12685.7 708.714  25
   2   8  -7 14240.9 844.125  28
   2   8  -7 13642.4 810.438  13
  -2   8   7 14509.1 781.365  18
   2   8  -7 15188.1 854.244  30
  -2   8   6 7526.61 526.025  25
   2   8  -6 8111.26 597.505  13
  -2   8   6 7325.62 543.550  18
   2   8  -6 8118.47 617.238  30
   2   8  -6 7981.81 636.370  28
   2   8  -5 160.607 119.761  30
  -2   8   5-226.173 107.996  15
   2   8  -5 55.1072 96.4378  10
  -2   8   5 45.8917 77.1994  19
  -2   8   5 80.9127 71.3208  18
   2   8  -5 208.840 139.006  28
   2   8  -4 922.057 224.785  11
  -2   8   4 921.376 187.295  15
   2   8  -4 747.016 223.560  10
  -2   8   4 781.532 178.325  18
   2   8  -4 681.960 197.330  28
   2   8  -3 524.063 173.116  28
   2   8  -3 775.898 231.458  10
  -2   8   3 394.735 139.788  15
  -2   8   3 766.287 184.126  12
  -2   8   3 599.879 169.581  18
   2   8  -3 560.663 162.211  24
   2   8  -3 622.799 173.999  11
   2   8  -2 6891.01 578.615  28
  -2   8   2 6280.84 475.940  15
   2   8  -2 5789.45 506.512  24
   2   8  -2 6158.66 578.546  10
  -2   8   2 7149.69 544.584  12
   2   8  -2 5657.03 476.671  19
  -2   8   2 7140.71 518.248  18
   2   8  -2 5686.32 491.177  11
  -2   8   2 6716.31 531.704  27
  -2   8   1 1174.17 231.836  27
   2   8  -1 945.386 215.359  24
   2   8  -1 1295.92 275.626  10
   2   8  -1 1081.34 221.140  19
  -2   8   1 1459.56 245.513  12
  -2   8   1 1010.52 202.409  18
  -2   8   1 1255.73 217.528  15
   2   8  -1 1090.45 214.609  11
   2   8  -1 1171.97 246.321  28
   2   8   0 20441.8 999.792  24
   2   8   0 22240.6 1096.82  10
  -2   8   0 21449.8 1004.09  12
   2   8   0 19500.3 960.091  19
  -2   8   0 20757.0 951.829  18
   2   8   0 19063.0 956.192  11
   2   8   0 22052.7 1055.69  28
  -2   8   0 19797.2 971.906  27
  -2   8  -1 1375.47 245.829  27
   2   8   1 1622.28 281.420  24
   2   8   1 1318.74 248.695  19
  -2   8  -1 1611.30 263.959  12
  -2   8  -1 1702.96 258.069  18
   2   8   1 2284.01 329.248  28
   2   8   1 1432.91 252.838  11
  -2   8  -2 5666.47 497.598  27
   2   8   2 5256.72 491.116  24
  -2   8  -2 5379.71 489.675  12
   2   8   2 4760.55 451.531  19
   2   8   2 5711.76 506.560  28
   2   8   2 4657.29 447.579  11
  -2   8  -3 6544.49 537.301  27
   2   8   3 6160.92 537.133  24
  -2   8  -3 6589.53 543.186  12
   2   8   3 6872.69 541.188  19
   2   8   3 6183.96 522.334  11
  -2   8  -3 7154.67 559.172  29
  -2   8  -4 4896.96 463.542  27
   2   8   4 4736.16 475.714  24
   2   8   4 5538.18 484.652  19
  -2   8  -4 5467.13 499.101  29
  -2   8  -5 5953.92 508.000  27
   2   8   5 5813.57 520.721  24
  -2   8  -5 5635.69 512.061  29
  -2   8  -6 2006.17 288.787  27
   2   8   6 1734.56 289.130  24
  -2   8  -6 1942.44 300.108  29
   2   8   7 1027.70 225.178  24
  -2   8  -7 1439.80 262.014  29
   2   8   8 1919.38 280.436  24
  -2   8  -8 2168.53 302.986  29
   2   8   9 1251.76 206.000  24
  -2   8  -9 1416.30 229.257  29
   2   8  10 7708.58 470.122  24
  -2   8 -10 8391.28 510.301  29
   2   8  11 3578.69 263.194  24
  -2   8 -11 3456.68 275.026  29
   2   9 -11 4761.29 335.757  13
  -2   9  11 4892.86 296.505  18
   2   9 -10 5052.66 367.352  26
  -2   9  10 5276.17 350.657  25
   2   9 -10 4947.36 389.935  13
  -2   9  10 5390.60 363.434  18
   2   9  -9 6953.27 498.909  26
  -2   9   9 6519.55 424.122  25
   2   9  -9 6955.89 492.377  13
  -2   9   9 7266.09 467.122  18
   2   9  -8 2090.68 304.136  26
  -2   9   8 2585.52 277.819  25
   2   9  -8 2561.80 317.556  13
  -2   9   8 1968.99 257.975  18
   2   9  -7 4566.04 468.221  26
  -2   9   7 3793.90 346.963  25
   2   9  -7 4409.60 416.174  13
  -2   9   7 4342.09 398.271  18
   2   9  -6 23700.7 1165.86  26
  -2   9   6 23271.9 960.776  25
   2   9  -6 25087.2 1072.67  13
  -2   9   6 26335.6 1074.18  18
   2   9  -6 25380.7 1152.44  28
   2   9  -5-44.2070 126.587  26
  -2   9   5 324.286 115.378  19
  -2   9   5 199.197 107.459  18
  -2   9   5 24.7198 75.3407  25
   2   9  -5 218.780 138.688  28
  -2   9   4 5534.79 422.167  25
  -2   9   4 5439.89 443.833  19
  -2   9   4 5450.03 463.320  18
   2   9  -4 5135.05 506.588  28
   2   9  -3 3952.99 443.751  28
  -2   9   3 3649.02 370.460  19
  -2   9   3 4167.74 403.758  18
   2   9  -2 2132.28 320.740  24
   2   9  -2 1542.87 251.252  19
  -2   9   2 2401.69 305.752  18
   2   9  -2 2148.93 328.722  28
  -2   9   2 1891.55 295.808  27
   2   9  -1 5911.67 523.247  24
   2   9  -1 6615.30 532.246  19
  -2   9   1 7219.38 538.136  18
   2   9  -1 6005.17 542.098  28
  -2   9   1 6079.51 521.154  27
   2   9   0 5079.79 479.884  24
   2   9   0 4768.82 456.108  19
  -2   9   0 5322.82 463.507  18
   2   9   0 5309.41 499.103  28
  -2   9   0 5523.95 496.216  27
   2   9   1 7904.65 605.981  24
   2   9   1 8157.46 603.609  19
  -2   9  -1 9118.51 617.100  18
   2   9   1 9199.87 654.616  28
  -2   9  -1 8534.01 626.104  27
  -2   9  -2 1261.03 247.707  27
   2   9   2 1308.90 255.481  24
   2   9   2 978.824 229.185  19
   2   9   2 1290.33 240.131  28
  -2   9  -3 466.906 164.610  27
   2   9   3 223.200 121.519  24
   2   9   4 6366.45 536.430  24
  -2   9  -4 6138.18 516.296  27
  -2   9  -5 3775.74 385.524  27
  -2   9  -5 3703.89 383.754  29
   2   9   5 3590.36 391.263  24
  -2   9  -6 9443.89 598.691  27
   2   9   6 9937.68 641.789  24
  -2   9  -6 9895.98 628.184  29
   2   9   7 6765.04 502.638  24
  -2   9  -7 7710.04 526.495  29
  -2   9  -7 6450.96 449.982  27
   2   9   8 754.986 164.082  24
  -2   9  -8 799.645 166.873  29
   2   9   9 5902.30 388.264  24
  -2   9  -9 5966.19 387.326  29
   2   9  10 5615.72 320.166  24
   2  10  -9 2856.64 263.024  26
   2  10  -9 2777.24 251.107  13
  -2  10   9 2493.64 224.397  18
  -2  10   8-48.2341 62.0176  25
   2  10  -8 126.958 87.9785  13
  -2  10   8-11.2161 74.3871  18
   2  10  -8 199.605 100.182  26
   2  10  -7 1517.18 219.852  13
   2  10  -7 1421.92 239.836  26
  -2  10   7 1328.35 202.447  18
  -2  10   7 1194.23 166.942  25
   2  10  -6 444.701 173.176  26
  -2  10   6 467.208 137.718  18
   2  10  -5 13017.8 777.814  26
  -2  10   5 13161.9 639.318  19
  -2  10   5 12995.4 690.275  18
   2  10  -4 1479.29 265.416  26
  -2  10   4 1356.11 205.066  19
  -2  10   4 1445.35 237.086  18
   2  10  -4 1688.88 279.852  28
   2  10  -3 9140.92 651.367  26
  -2  10   3 9109.30 565.767  19
  -2  10   3 8853.04 579.468  18
   2  10  -3 8774.57 631.284  28
   2  10  -2 3162.84 378.940  26
   2  10  -2 4056.51 386.907  19
  -2  10   2 3364.59 346.575  19
  -2  10   2 3163.47 346.301  18
   2  10  -2 3357.59 389.308  28
   2  10  -1 2914.45 352.225  24
   2  10  -1 3391.19 371.733  26
   2  10  -1 3530.72 371.036  19
  -2  10   1 3007.93 329.904  19
  -2  10   1 2930.83 335.103  18
   2  10  -1 3323.45 387.171  28
  -2  10   1 3485.47 381.098  27
   2  10   0 8871.96 617.903  24
   2  10   0 9161.00 609.989  19
  -2  10   0 8679.08 573.071  19
  -2  10   0 10030.9 623.893  18
   2  10   0 9428.56 638.595  28
  -2  10   0 9485.47 636.179  27
   2  10   1 2512.30 328.958  24
   2  10   1 2917.39 359.490  19
  -2  10  -1 2583.94 308.892  19
   2  10   1 2677.09 329.490  28
  -2  10  -1 2595.99 333.065  27
   2  10   2 4915.34 454.327  24
  -2  10  -2 4962.91 416.041  19
  -2  10  -2 5368.10 470.465  27
   2  10   3 2574.28 325.664  24
  -2  10  -3 2867.61 302.046  19
  -2  10  -3 3144.67 348.063  27
  -2  10  -4 824.422 187.816  27
   2  10   4 685.645 178.850  24
  -2  10  -4 954.793 170.236  19
   2  10   5 3173.91 336.742  24
  -2  10  -5 2861.06 308.719  27
   2  10   6 3319.50 323.731  24
  -2  10  -6 2997.31 288.063  27
   2  10   7 2807.75 274.032  24
  -2  10  -7 2763.99 242.341  27
   2  10   8 5527.52 340.432  24
   2  11  -7 2090.65 224.591  26
  -2  11   7 1744.25 178.813  18
   2  11  -6 622.758 137.935  26
  -2  11   6 341.236 103.076  18
   2  11  -5 744.516 169.413  26
  -2  11   5 856.635 132.762  19
  -2  11   5 573.287 129.325  18
   2  11  -4 4679.55 394.620  26
  -2  11   4 5254.53 357.985  19
  -2  11   4 5003.93 370.966  18
   2  11  -3 1466.22 227.158  26
  -2  11   3 1455.70 197.893  19
  -2  11   3 1256.23 193.615  18
   2  11  -2 270.552 112.572  26
   2  11  -2 218.575 113.814  28
  -2  11   2 336.861 113.294  19
  -2  11   1 308.495 112.451  19
   2  11  -1 408.892 139.182  28
  -2  11   0 149.104 92.6065  19
   2  11   0 96.2206 93.7883  28
   2  11   1 3237.21 330.495  24
  -2  11  -1 2875.92 288.866  19
  -2  11  -1 3345.41 333.746  27
  -2  11  -2 2582.60 289.525  27
   2  11   2 2696.79 297.118  24
  -2  11  -2 2500.24 257.158  19
  -2  11  -3 382.617 130.752  27
   2  11   3 346.128 125.625  24
  -2  11  -3 308.684 89.4751  19
  -2  11  -4 1074.72 173.222  27
   2  11   4 1035.54 174.515  24
   2  11   5 2095.27 223.235  24
  -2  11  -5 2014.89 211.203  27
   2  11   6 232.749 83.9686  24
  -2  12   3 802.201 116.334  19
  -2  12   2 3668.89 261.631  19
  -2  12   1 1652.70 180.740  19
  -2  12   0 4159.39 281.440  19
  -2  12  -1 166.242 69.6854  19
  -2  12  -2 3302.59 221.448  19
  -3   0  15 2358.28 200.969  23
   3   0 -15 1968.19 213.935  21
  -3   0  14 6782.11 429.569  23
   3   0 -14 5734.22 458.597  21
  -3   0  13 751.755 172.931  23
   3   0 -13 736.165 200.723  21
  -3   0  12 187.136 124.995  23
  -3   0  11 16349.3 869.592  23
  -3   0  10 4495.06 445.855  23
  -3   0   9 31.6693 80.8726  23
   3   0  -9 363.891 146.940  31
   3   0  -8 432.236 146.544   6
  -3   0   7 5164.87 411.821   7
   3   0  -7 4299.12 408.469   6
   3   0  -6 20311.5 904.658   6
   3   0  -5 21573.0 903.399   6
   3   0  -4 14985.5 694.786   6
   3   0  -3 3.65498 71.8711   6
   3   0  -2 46.8866 74.7441   6
   3   0  -1 28415.7 980.705   6
   3   0   0 12720.1 602.621   6
   3   0   1 46391.8 1394.59   6
   3   0   2 41858.7 1338.78   6
   3   0   3 2396.45 281.581   6
   3   0   3 4560.40 363.718   5
   3   0   4 161.716 104.659   5
   3   0   5 1174.77 220.015   5
  -3   0  -5 1093.47 192.842  12
  -3   0  -6 9884.34 604.441  12
   3   0   7 21798.1 1047.71  20
  -3   0  -7 23643.5 1044.85  12
   3   0   8 6554.75 499.947  22
   3   0   8 6147.34 525.825  20
   3   0   9 4874.75 421.628  22
   3   0   9 4501.38 447.881  20
   3   0  10-163.863 99.1117  22
   3   0  10 38.0594 97.6621  20
   3   0  11 3378.71 351.231  20
   3   0  12 837.587 177.038  20
   3   0  13 1056.81 149.222  20
  -3   1  15 905.115 136.392  23
   3   1 -15 987.309 172.008  21
  -3   1  14 118.565 88.5586  23
   3   1 -14-192.631 117.548  21
  -3  -1  13 1821.58 242.137  23
   3   1 -13 2253.87 344.835  21
   3  -1 -13 1916.70 285.509  21
  -3   1  12 7463.61 555.490  23
  -3  -1  12 7921.32 556.206  23
   3   1 -12 6937.32 547.524  30
  -3   1  11 2900.22 355.835  23
  -3  -1  11 3179.54 366.981  23
  -3   1  10 10000.1 666.531  23
  -3  -1  10 9379.18 636.739  23
  -3   1   9 4235.10 418.468  23
  -3  -1   9 3475.61 375.740  23
   3   1  -9 3132.50 379.402   6
   3  -1  -9 3604.36 353.918  31
   3   1  -9 3392.84 390.349   8
  -3   1   9 3971.13 396.291   7
   3   1  -9 4421.75 473.786  16
   3  -1  -8 9762.45 645.666   6
   3   1  -8 10782.6 686.269   6
   3  -1  -7 4187.09 397.183   6
   3   1  -7 3966.33 396.939   6
   3   1  -6 9581.39 504.040   9
   3  -1  -6 8274.83 549.930   6
   3   1  -6 7928.63 535.048   6
   3  -1  -5 6338.07 457.577   6
   3   1  -5 6767.27 465.105   6
   3  -1  -4 8548.96 510.062   6
   3   1  -4 9168.48 521.314   6
   3  -1  -3 64070.7 1782.82   6
   3   1  -3 65716.8 1767.38   6
   3  -1  -2 5297.89 377.664   6
   3   1  -2 7896.31 443.870   6
   3  -1  -1 5078.23 363.151   6
   3   1  -1 5054.79 356.197   6
  -3   1   1 4920.44 322.061  12
   3  -1   0 22652.2 843.193   6
  -3   1   0 22438.8 779.267  12
   3  -1   1 32663.6 1120.97   6
   3   1   1 33774.5 1124.06   6
  -3   1  -1 36429.4 1098.67  12
   3  -1   2 98437.4 2481.20   6
  -3   1  -2 100004. 2416.17  12
   3  -1   3 8835.75 553.661   6
   3   1   3 9990.86 575.200   6
  -3   1  -3 11033.5 572.875  12
   3  -1   3 9523.30 536.624   5
   3   1   3 10875.1 597.393   5
  -3   1  -4 20092.7 861.000  12
   3  -1   4 20339.2 870.222   5
   3   1   4 21157.5 929.287   5
  -3   1  -5 7028.08 501.178  12
   3   1   5 7703.29 554.565   5
   3  -1   5 8593.27 557.627   5
  -3   1  -6 422.492 137.834  12
   3   1   6 531.767 166.652   3
   3   1   7 4283.39 405.236  22
   3   1   7 3522.47 387.100  20
   3  -1   7 3675.19 396.624  20
  -3   1  -7 3460.95 381.132  12
   3   1   8 10261.1 653.842  22
   3   1   8 9091.25 635.187  20
   3  -1   8 9274.31 659.789  20
  -3   1  -8 8889.02 624.710  12
   3   1   9 3533.54 376.891  22
   3   1   9 2730.95 343.813  20
   3  -1   9 2974.50 376.452  20
   3   1  10 2889.45 328.720  22
   3   1  10 2353.85 302.872  20
   3   1  11 95.6424 75.9709  22
   3   1  11 135.359 103.178  20
   3  -1  11 112.650 107.110  20
   3   1  12 2472.88 251.921  22
   3  -1  12 2522.25 282.109  20
   3  -1  13 5499.83 345.054  20
  -3   2  15 489.585 101.758  23
  -3   2  15 484.965 98.7096  14
   3   2 -15 665.089 140.687  21
  -3   2  14 4675.71 359.033  23
   3   2 -14 4235.97 410.161  21
   3   2 -13 2622.84 317.972  30
  -3   2  13 2122.42 272.755  23
   3   2 -13 1677.82 295.226  21
  -3   2  12 6841.42 523.022  23
   3   2 -12 5788.26 508.153  30
  -3   2  11 1046.67 229.272  23
   3   2 -11 1014.34 228.437  30
  -3   2  10 3327.29 383.556  23
  -3  -2  10 3436.80 373.303  23
  -3   2   9 15064.1 829.788  23
  -3  -2   9 16860.3 849.133  23
   3  -2  -9 17435.1 803.812  31
   3   2  -9 17226.9 979.600  16
  -3   2   8 6153.28 496.531   7
   3  -2  -8 5001.77 448.326   6
   3   2  -8 5022.63 451.644   6
  -3   2   7 2163.08 286.330   7
   3   2  -7 1729.14 258.167   6
   3  -2  -7 2415.61 300.634   6
   3   2  -6 7710.87 497.968   9
   3   2  -6 8962.00 557.695   6
   3  -2  -6 7992.08 532.569   6
   3   2  -5 961.114 174.607   9
   3  -2  -5 610.088 141.499   6
   3   2  -5 813.047 165.167   6
   3  -2  -4 70947.0 1899.49   6
   3   2  -4 60843.7 1799.45   6
   3   2  -4 65198.9 1828.13   9
  -3   2   4 75060.7 1858.60  12
   3  -2  -3 56651.9 1620.87   6
   3   2  -3 54638.1 1555.43   6
  -3   2   3 59577.0 1593.22  12
   3  -2  -2 12610.1 600.407   6
   3   2  -2 10963.0 544.339   6
  -3   2   2 12522.8 578.977  12
   3  -2  -1 7668.56 456.235   6
   3   2  -1 6625.00 407.678   6
  -3   2   1 7322.54 432.714  12
   3   2   0 2261.68 240.919   6
  -3   2   0 2634.15 255.760  12
   3  -2   1 743.675 152.871   6
   3   2   1 422.639 125.339   6
  -3   2  -1 418.219 116.942  12
   3   2   2 26497.5 974.284   6
  -3   2  -2 25532.6 960.022  12
  -3   2  -3 4137.17 372.390  12
   3  -2   3 4999.31 368.895   5
   3   2   3 4140.00 377.009   5
  -3   2  -4 11296.2 646.571  12
   3   2   4 10912.8 661.915   5
   3   2   5 483.828 161.789   5
  -3   2  -5 229.471 112.795  12
   3   2   6 558.930 157.580   3
  -3   2  -6 603.831 163.571  12
   3   2   7 1430.45 259.913  22
   3  -2   7 1335.44 237.900  20
  -3   2  -7 1045.37 212.599  12
   3   2   8 15369.8 847.242  22
   3  -2   8 13729.5 806.638  20
  -3   2  -8 13834.6 805.755  12
   3   2   9 17999.8 931.878  22
   3  -2   9 19509.4 969.074  20
   3   2  10 708.011 186.159  22
   3  -2  10 818.714 207.423  20
   3   2  11 4438.21 394.999  22
   3  -2  11 4180.58 399.286  20
   3   2  12 160.092 98.8414  22
   3  -2  12 241.903 119.712  20
   3   2  13 345.064 90.2451  22
   3  -2  13 483.406 115.118  20
  -3   3  15 1821.55 181.352  23
   3   3 -15 1819.65 214.360  21
  -3   3  14 959.939 163.072  23
   3   3 -14 845.805 168.978  30
   3   3 -14 872.313 196.203  21
  -3   3  13 864.689 186.917  23
   3   3 -13 478.151 192.920  21
   3   3 -13 830.456 193.072  30
  -3   3  12 4562.96 417.463  23
   3   3 -12 4105.58 428.401  30
  -3   3  11 7701.34 567.142  23
   3   3 -11 7364.52 597.854  30
  -3   3  10 11588.9 634.533  25
  -3   3  10 10786.3 691.980  23
   3   3 -10 11314.3 746.060  30
  -3   3   9 5636.16 431.651  25
  -3   3   9 5196.14 470.441  23
   3   3  -9 5487.74 551.571  16
  -3   3   8 1391.09 243.707  23
   3  -3  -8 1543.26 252.473   6
  -3   3   8 1794.24 267.961   7
   3   3  -8 1855.58 319.418  16
   3   3  -7 19133.5 890.756   9
   3  -3  -7 17377.5 849.312   6
   3   3  -6 14015.2 713.898   9
   3  -3  -6 12000.5 660.655   6
   3   3  -5 20881.0 890.168   9
   3  -3  -5 20333.7 863.725   6
   3  -3  -4 4819.55 373.357   6
   3   3  -4 3718.38 339.023   9
  -3   3   4 4213.65 354.115  12
   3   3  -3 5579.25 363.798   6
   3   3  -3 5651.40 408.937   9
  -3   3   3 5673.91 404.532  12
   3  -3  -2 32419.6 1104.81   6
   3   3  -2 33417.4 1061.43   6
   3   3  -2 33317.9 1154.00   9
  -3   3   2 36436.1 1179.57  12
   3  -3  -1 6466.37 418.597   6
   3   3  -1 6447.04 396.563   6
  -3   3   1 6554.10 441.085  12
   3  -3   0 17149.8 718.846   6
   3   3   0 15288.7 654.622   6
   3  -3   1 5215.03 389.848   6
   3   3   1 5406.74 384.445   6
  -3   3  -1 5294.03 406.509  12
  -3   3  -2 7307.25 505.076  12
   3   3   2 7274.83 503.006   5
   3  -3   3 20206.6 871.730   6
  -3   3  -3 19261.1 894.379  12
   3   3   3 20699.3 927.423   5
  -3   3  -4 3639.17 372.397  12
   3   3   4 3515.44 381.148   5
  -3   3  -5 4681.85 445.379  12
   3   3   5 4248.11 407.244   3
   3   3   5 4837.52 464.781   5
   3   3   6 33057.6 1327.18  22
   3  -3   6 34388.5 1289.96  20
  -3   3  -6 33676.5 1343.05  12
  -3   3  -6 34110.9 1417.32  29
   3   3   7 9559.53 666.500  22
   3  -3   7 6955.53 546.338  20
  -3   3  -7 7619.21 593.509  12
  -3   3  -7 9786.06 714.683  29
   3   3   8 5010.12 482.538  22
   3  -3   8 3417.22 390.272  20
  -3   3  -8 4386.90 487.191  29
   3   3   9 19447.1 979.045  22
   3  -3   9 18803.2 930.302  20
  -3   3  -9 19011.3 1022.15  29
   3   3  10 6129.71 509.304  22
  -3   3 -10 5412.91 495.184  29
   3   3  11 2795.08 324.100  22
   3  -3  11 2516.76 298.276  20
   3   3  12 2223.15 250.948  22
   3  -3  12 2108.94 242.722  20
   3   3  13 2132.35 191.992  22
   3  -3  13 2132.47 200.010  20
   3   4 -15 266.618 90.3285  21
  -3   4  14 3376.68 273.067  23
   3   4 -14 2757.70 299.263  21
   3   4 -14 2742.64 264.125  30
   3   4 -13 448.249 158.737  30
  -3   4  13 271.467 106.895  23
   3   4 -13 426.722 169.511  21
  -3   4  12 4304.94 350.422  25
  -3   4  12 4349.69 389.066  23
   3   4 -12 4110.77 452.569  21
   3   4 -12 4492.39 439.232  30
  -3   4  11 349.405 123.524  25
   3   4 -11 312.004 143.749  30
  -3   4  11 492.973 154.787  23
   3   4 -10 8232.11 639.149  30
  -3   4  10 8026.40 538.818  25
  -3   4  10 8511.14 596.817  23
  -3   4   9 30170.7 1163.95  25
  -3   4   9 30853.2 1232.29  23
   3   4  -9 29462.4 1283.51  30
   3   4  -9 32290.2 1438.60  16
  -3   4   8 18767.2 903.350  23
   3   4  -8 18406.8 1030.08  16
   3   4  -8 18560.5 954.086  30
  -3   4   7 47991.9 1589.09   7
  -3   4   7 46017.5 1525.56  15
   3   4  -7 45713.2 1691.81  16
   3  -4  -7 42633.5 1454.89   6
   3  -4  -6 22855.6 926.937   6
   3   4  -6 21088.7 988.090   9
   3  -4  -5 2228.44 263.248   6
   3   4  -5 2019.31 283.654   9
  -3   4   5 1865.96 252.168  12
   3   4  -4 3402.62 344.331   9
  -3   4   4 2918.23 312.746  12
   3  -4  -3 1908.57 225.587   6
   3   4  -3 1352.35 223.547   9
  -3   4   3 1582.20 228.999  12
   3   4  -2 102.331 86.5192   9
   3  -4  -2 284.363 98.5833   6
  -3   4   2 11.7376 71.3151  12
   3   4  -1 18644.8 833.139   9
  -3   4   1 18590.9 855.276  12
   3  -4   0 3415.49 311.083   6
   3   4   0 3618.93 337.272   9
  -3   4   0 3602.05 352.126  12
   3  -4   1 31069.1 1090.83   6
   3   4   1 29948.4 1090.71   9
  -3   4  -1 31593.0 1173.32  12
   3   4   1 27769.2 1085.00   5
   3   4   2 15915.8 752.436   9
   3  -4   2 17491.8 784.051   6
  -3   4  -2 16680.7 830.448  12
   3   4   2 17685.8 836.914   5
   3   4   3 2322.69 267.426   9
  -3   4  -3 2352.37 307.079  12
   3   4   3 2544.83 325.933   5
  -3   4  -4 22424.0 1030.90  12
   3   4   4 21459.5 1026.45   5
   3   4   5 21498.4 1020.91  22
   3  -4   5 23405.9 972.284  20
  -3   4  -5 21426.3 1038.03  12
  -3   4  -5 20617.7 1060.00  29
   3   4   6 48656.9 1711.86  22
  -3   4  -6 43373.2 1654.39  12
  -3   4  -6 46115.2 1764.71  29
   3   4   7 31887.1 1372.75  22
   3  -4   7 41132.9 1407.77  20
  -3   4  -7 30058.3 1329.40  12
  -3   4  -7 38730.4 1543.50  29
   3   4   8 4714.07 476.249  22
   3  -4   8 4605.72 431.419  20
  -3   4  -8 5803.63 554.087  29
   3   4   9 4072.55 429.242  22
   3  -4   9 4073.48 394.613  20
  -3   4  -9 4227.78 459.687  29
   3   4  10 2401.16 325.118  22
   3  -4  10 3094.44 330.996  20
  -3   4 -10 2732.45 346.980  29
   3   4  11 4037.05 367.320  22
  -3   4 -11 3626.29 350.035  29
   3  -4  11 3417.00 322.531  20
   3   4  12 1170.12 177.340  22
   3  -4  12 732.342 138.002  20
  -3   4 -12 943.320 140.412  29
  -3   5  14 202.657 78.3662  23
   3   5 -14 280.054 105.809  21
  -3   5  13 2586.45 254.230  23
   3   5 -13 2641.99 303.322  21
   3   5 -13 2464.26 285.507  30
  -3   5  12 154.391 80.0315  25
  -3   5  12 123.533 94.1365  23
   3   5 -12 18.8329 119.206  21
   3   5 -12 31.1725 106.925  30
  -3   5  11 1803.72 242.334  25
  -3   5  11 1608.40 239.977  23
   3   5 -11 1612.61 280.897  21
   3   5 -11 1703.61 292.475  30
  -3   5  10 11364.9 649.556  25
  -3   5  10 10603.5 641.089  23
   3   5 -10 10088.6 709.228  30
   3   5  -9 25234.9 1184.99  30
   3   5  -9 25863.4 1277.00  16
  -3   5   9 27752.1 1106.87  25
  -3   5   9 27213.3 1105.73  23
  -3   5   8 48673.5 1592.99  23
   3   5  -8 46868.3 1694.90  30
   3   5  -8 46658.3 1801.86  16
  -3   5   7 25052.6 1082.36  15
   3   5  -7 26230.5 1238.89  16
   3   5  -7 27562.4 1181.66  30
   3   5  -6 27092.1 1140.28  30
  -3   5   6 26244.1 1088.84  15
   3   5  -6 25497.5 1187.22  16
   3   5  -5 47147.9 1671.88   9
  -3   5   5 48780.0 1608.14  12
   3   5  -4 6340.74 521.401   9
  -3   5   4 6166.06 485.766  12
   3   5  -3 20188.5 949.464   9
  -3   5   3 19629.7 913.806  12
   3   5  -2 4477.45 413.453   9
  -3   5   2 4325.54 402.113  12
   3   5  -1 8948.23 579.897   9
  -3   5   1 7600.95 546.086  12
   3   5   0 18623.0 869.292   9
  -3   5   0 17656.9 879.107  12
   3   5   0 18855.1 833.997   5
   3   5   1 3204.59 341.341   9
  -3   5  -1 3934.51 395.121  12
   3   5   1 2847.41 324.298   5
   3   5   2 1674.91 240.280   9
  -3   5  -2 1928.34 277.593  12
   3   5   2 2149.50 298.396   5
   3   5   3 2815.79 351.867   5
  -3   5  -3 3221.75 370.335  12
   3   5   4 5653.63 486.513  22
  -3   5  -4 4910.21 469.412  12
  -3   5  -4 4817.93 478.740  29
   3   5   5 64465.5 2067.59  22
  -3   5  -5 62419.4 2073.46  12
   3   5   6 18094.9 969.050  22
   3  -5   6 21582.3 929.871  20
  -3   5  -6 18652.0 976.406  12
  -3   5  -6 18699.3 1029.08  29
   3   5   7 6537.77 569.060  22
  -3   5  -7 7556.90 635.242  29
   3   5   8 2946.48 371.477  22
   3  -5   8 3054.03 337.991  20
  -3   5  -8 3656.69 429.957  29
   3   5   9 582.773 175.197  22
   3  -5   9 653.672 169.837  20
  -3   5  -9 446.309 155.803  29
  -3   5 -10 5475.30 467.664  29
   3   5  10 6219.32 475.595  22
   3  -5  10 6514.03 441.575  20
   3   5  11 2746.27 278.436  22
   3  -5  11 2809.00 262.886  20
  -3   5 -11 2568.94 280.012  29
   3   5  12 1045.01 146.973  22
   3  -5  12 1283.64 146.526  20
  -3   6  13 497.965 105.028  23
   3   6 -13 501.079 134.285  13
   3   6 -13 330.930 107.351  21
  -3   6  12 2663.76 257.996  25
  -3   6  12 2656.52 252.553  23
   3   6 -12 2153.14 283.868  30
   3   6 -12 2690.77 299.083  21
  -3   6  11 2007.67 246.014  25
  -3   6  11 2501.98 267.306  23
   3   6 -11 2256.00 304.229  21
   3   6 -11 2002.11 299.925  30
  -3   6  10 1089.02 201.730  25
  -3   6  10 953.597 177.737  23
   3   6 -10 776.109 195.307  21
   3   6 -10 873.533 223.989  30
  -3   6   9 442.879 144.299  25
   3   6  -9 426.032 169.115  30
   3   6  -9 625.956 208.045  16
  -3   6   8 12056.1 689.313  25
   3   6  -8 11069.7 781.654  16
   3   6  -8 10779.4 726.246  30
  -3   6   7 25085.7 1093.05  15
   3   6  -7 25395.8 1152.62  30
   3   6  -7 24806.3 1210.53  16
   3   6  -7 27149.6 1175.03  28
  -3   6   6 33424.8 1311.80  15
   3   6  -6 35614.6 1378.00  30
   3   6  -6 35246.1 1451.61  16
   3   6  -6 35559.2 1415.03  28
  -3   6   5 15614.3 830.534  15
   3   6  -5 17094.7 930.998  28
   3   6  -5 17231.1 935.955  16
   3   6  -5 17904.9 884.193  30
  -3   6   4 2902.22 334.516  15
   3   6  -4 2551.23 342.461  28
  -3   6   4 2737.98 332.078  12
   3   6  -4 2503.74 340.521  16
   3   6  -3 506.959 156.402  16
   3   6  -3 404.548 140.536  24
  -3   6   3 192.333 106.265  15
   3   6  -3 348.384 152.255   9
  -3   6   3 283.277 130.023  12
  -3   6   2 2240.17 292.127  15
   3   6  -2 1711.90 287.414   9
  -3   6   2 2415.14 314.724  12
  -3   6   1 6858.22 515.011  15
   3   6  -1 7248.67 561.971   9
  -3   6   1 6885.34 539.683  12
   3   6   0 526.177 165.851   9
  -3   6   0 646.118 167.175  12
  -3   6   0 410.811 139.978  29
   3   6   1 12530.9 730.272  24
   3   6   1 13472.9 758.561   9
  -3   6  -1 12481.1 760.182  12
  -3   6  -1 12721.7 762.201  29
   3   6   2 17305.1 884.038  24
  -3   6  -2 16623.9 903.227  12
  -3   6  -2 16983.4 915.581  29
   3   6   3 14209.3 802.661  24
  -3   6  -3 12353.8 793.474  29
  -3   6  -3 13247.7 796.602  12
   3   6   4 62221.8 2011.61  24
   3   6   4 63823.4 1981.87  22
  -3   6  -4 63098.0 2040.54  12
  -3   6  -4 60304.1 2059.96  29
   3   6   5 19444.1 994.553  24
   3   6   5 21322.3 1014.11  22
  -3   6  -5 20725.5 1073.62  29
   3   6   6 5990.42 518.445  24
   3   6   6 5705.14 502.277  22
  -3   6  -6 5882.40 544.952  29
   3   6   7 3567.35 391.829  24
   3   6   7 3563.36 393.397  22
  -3   6  -7 3426.00 414.926  29
   3   6   8 710.924 174.225  24
   3   6   8 563.860 164.302  22
   3  -6   8 1035.06 184.240  20
  -3   6  -8 492.666 181.082  29
   3   6   9 1304.56 207.796  24
   3   6   9 1528.71 231.582  22
   3  -6   9 1303.86 190.480  20
  -3   6  -9 1726.10 275.967  29
   3   6  10 592.079 138.817  22
   3  -6  10 1002.92 156.883  20
  -3   6 -10 564.388 150.492  29
   3   6  11 2783.68 240.596  22
  -3   6 -11 2450.10 242.259  29
   3   7 -12 2440.74 251.094  13
  -3   7  11 765.552 148.126  25
   3   7 -11 921.803 201.707  30
   3   7 -11 917.348 186.162  13
   3   7 -10 1290.81 217.291  26
  -3   7  10 1655.31 231.159  25
   3   7 -10 1996.05 268.080  13
   3   7 -10 1467.96 266.809  30
  -3   7   9 3117.19 326.753  25
   3   7  -9 2374.47 304.001  13
   3   7  -9 3502.86 393.487  30
  -3   7   8 812.904 173.259  25
   3   7  -8 665.305 173.444  13
   3   7  -8 486.153 173.636  30
   3   7  -8 650.494 180.239  28
   3   7  -8 979.911 225.302  16
  -3   7   7 23137.4 1034.11  15
   3   7  -7 23532.1 1082.83  30
   3   7  -7 23799.3 1143.08  16
   3   7  -7 23413.0 1095.36  28
  -3   7   6 1481.44 254.330  15
   3   7  -6 1393.94 254.701  30
   3   7  -6 1705.60 288.989  28
   3   7  -6 1378.03 277.469  16
  -3   7   5 11446.8 702.411  15
   3   7  -5 12585.9 784.674  16
   3   7  -5 11736.9 781.295  28
  -3   7   4 4449.33 427.602  15
  -3   7   4 4636.56 445.910  12
   3   7  -4 5029.33 479.584  16
   3   7  -4 4634.25 480.763  28
  -3   7   3 5088.35 457.828  15
   3   7  -3 5901.12 545.010  28
  -3   7   3 6007.64 506.714  12
   3   7  -3 6134.63 514.077  16
  -3   7   2 14907.0 815.081  15
   3   7  -2 15163.5 843.869  24
  -3   7   2 14985.7 837.355  12
   3   7  -2 17066.0 875.024  16
   3   7  -2 16404.9 928.014  28
  -3   7   1 2446.71 318.284  15
   3   7  -1 2318.89 321.637  24
  -3   7   1 2033.77 307.563  12
  -3   7   0 1136.96 222.523  27
  -3   7   0 1267.68 231.172  15
   3   7   0 1058.71 210.974  24
  -3   7   0 1366.84 252.481  12
  -3   7   0 1209.64 228.353  29
  -3   7  -1 956.574 201.442  27
   3   7   1 760.961 192.381  24
  -3   7  -1 931.257 209.774  12
  -3   7  -1 744.391 187.569  29
   3   7   2 196.473 95.7393  24
  -3   7  -2-32.7205 101.905  12
  -3   7  -2 95.8657 95.9928  29
   3   7   3 9760.76 678.867  24
  -3   7  -3 9593.85 686.775  29
   3   7   4 14346.8 837.250  24
  -3   7  -4 14673.6 868.892  29
   3   7   5 3092.85 376.401  24
  -3   7  -5 3120.80 394.204  29
   3   7   6 8425.25 608.760  24
   3   7   6 9437.85 598.535  22
  -3   7  -6 8320.94 633.995  29
   3   7   7 19360.2 864.895  22
  -3   7  -7 18051.6 929.801  29
   3   7   8 3946.95 363.784  24
   3   7   8 5017.99 394.106  22
  -3   7  -8 3805.83 390.897  29
   3   7   9 1383.50 192.929  24
   3   7   9 1669.76 208.212  22
  -3   7  -9 1297.27 213.352  29
   3   7  10 2167.30 195.217  24
   3   7  10 2860.51 231.654  22
  -3   7 -10 2708.74 261.045  29
  -3   8  11 1335.22 166.023  25
   3   8 -11 1256.07 165.550  13
   3   8 -10 1856.59 223.884  26
  -3   8  10 2041.86 230.542  25
   3   8 -10 1893.04 228.117  13
   3   8  -9 4812.33 423.968  26
  -3   8   9 5542.65 402.860  25
   3   8  -9 5498.02 410.977  13
   3   8  -8 1752.39 281.669  26
  -3   8   8 1749.95 241.340  25
   3   8  -8 1828.81 274.993  30
  -3   8   7 911.129 185.716  25
   3   8  -7 1073.29 207.598  30
   3   8  -7 956.457 225.218  28
  -3   8   6 5079.94 438.799  15
   3   8  -6 5264.89 494.217  28
  -3   8   5 3.30950 79.6361  15
   3   8  -5-19.4974 87.6967  28
  -3   8   4 2989.09 344.615  15
   3   8  -4 3420.30 419.590  28
  -3   8   3 6985.38 537.894  15
   3   8  -3 7410.74 618.199  28
  -3   8   2 11959.6 717.129  15
   3   8  -2 11843.6 749.920  24
   3   8  -2 11887.5 789.788  28
  -3   8   1 4926.17 447.279  15
   3   8  -1 5012.38 474.227  24
   3   8  -1 4639.25 481.989  28
  -3   8   0 3968.92 402.531  15
   3   8   0 4100.22 434.707  24
   3   8   0 4240.89 461.383  28
  -3   8  -1 6826.34 534.934  15
   3   8   1 7120.76 577.429  24
  -3   8  -1 6728.48 548.643  29
  -3   8  -1 8204.81 588.823  27
  -3   8  -2 3001.09 351.344  15
   3   8   2 2998.66 380.004  24
  -3   8  -2 3232.66 378.392  29
  -3   8  -2 3435.62 374.783  27
  -3   8  -3 3802.77 393.848  15
   3   8   3 3922.53 424.517  24
  -3   8  -3 4364.18 438.444  29
  -3   8  -3 4042.84 389.309  27
  -3   8  -4 6269.85 531.385  29
   3   8   4 6022.42 516.358  24
   3   8   5 744.416 194.178  24
  -3   8  -5 648.576 180.983  29
   3   8   6 3680.24 374.298  24
  -3   8  -6 4054.63 400.538  29
   3   8   7 8649.95 537.486  24
  -3   8  -7 8466.25 560.009  29
  -3   8  -8 3686.12 336.272  29
   3   8   8 3879.39 316.213  24
   3   8   9 2857.69 228.704  24
  -3   8  -9 3075.78 265.306  29
  -3   9  10 4876.59 291.417  25
   3   9  -9 173.723 92.5542  26
  -3   9   9 87.0195 73.6396  25
   3   9  -8 2699.88 303.996  26
  -3   9   8 2457.00 247.810  25
   3   9  -7 178.619 123.834  26
  -3   9   7 245.465 105.447  25
  -3   9   6 365.105 116.819  25
   3   9  -6 520.051 173.199  28
  -3   9   5 1781.32 247.228  15
  -3   9   5 1824.47 242.526  25
  -3   9   5 1506.63 208.678  19
   3   9  -5 1419.29 257.617  28
  -3   9   4 128.302 92.3330  15
  -3   9   4 179.512 91.5915  19
   3   9  -4 200.696 122.371  28
  -3   9   3 12729.2 697.435  15
   3   9  -3 13112.6 802.938  28
  -3   9   2 2057.94 280.436  15
   3   9  -2 2179.85 326.787  28
  -3   9   1 9266.29 591.593  15
   3   9  -1 9325.94 640.177  24
   3   9  -1 9045.91 658.381  28
  -3   9   0 8739.47 571.549  15
   3   9   0 8541.02 610.210  24
   3   9   0 9435.45 664.607  28
  -3   9  -1 2021.69 271.603  15
   3   9   1 2033.71 299.708  24
   3   9   1 2036.34 306.484  28
  -3   9  -2 3911.01 365.859  15
   3   9   2 3988.04 407.194  24
  -3   9  -2 4720.48 417.610  29
   3   9   2 3351.72 368.157  28
  -3   9  -3 4507.80 384.144  15
   3   9   3 4151.21 413.549  24
  -3   9  -3 5108.57 433.943  29
   3   9   3 4286.16 396.395  28
  -3   9  -3 4451.55 387.709  27
  -3   9  -4 1785.54 231.645  15
   3   9   4 1727.90 258.563  24
  -3   9  -4 1832.77 254.943  29
  -3   9  -5 721.867 144.375  15
   3   9   5 747.236 172.897  24
  -3   9  -5 852.856 170.521  29
   3   9   6 41.9142 74.1713  24
  -3   9  -6-26.2663 63.8025  29
   3   9   7 1043.91 161.830  24
  -3   9  -7 957.082 155.890  29
   3  10  -8 239.597 91.5773  26
  -3  10   8 248.790 71.9974  25
   3  10  -7 1246.04 189.609  26
  -3  10   7 1406.64 161.419  25
   3  10  -6 2126.24 260.401  26
  -3  10   6 2034.07 204.308  25
   3  10  -5 39.6908 90.0889  26
  -3  10   5 92.5327 55.1214  25
  -3  10   5 94.4603 64.1883  19
   3  10  -5 58.3092 82.3012  28
   3  10  -4 6441.49 487.642  26
  -3  10   4 5978.27 375.329  25
  -3  10   4 6220.85 401.850  19
   3  10  -4 5987.83 474.260  28
  -3  10   3 1591.66 208.410  15
   3  10  -3 1814.41 264.262  26
  -3  10   3 1815.35 227.576  19
   3  10  -3 1410.64 239.165  28
   3  10  -2 168.099 118.400  26
  -3  10   2 159.806 87.1155  15
  -3  10   2 138.567 93.8943  19
   3  10  -2 105.862 93.9703  28
  -3  10   1 1803.70 221.854  15
  -3  10   1 1690.20 235.549  19
   3  10  -1 1580.14 252.980  28
  -3  10   0 2511.15 281.610  19
   3  10   0 2164.07 284.568  28
   3  10   1 7907.69 528.324  24
  -3  10  -1 8324.57 506.248  19
   3  10   1 8039.38 523.421  28
   3  10   2 1039.48 195.911  24
  -3  10  -2 1232.48 193.768  19
   3  10   2 927.841 173.650  28
   3  10   3 3601.25 338.227  24
  -3  10  -3 3943.99 309.165  19
   3  10   4 1882.37 229.134  24
  -3  10  -4 1916.58 192.631  19
   3  10   5 3300.43 277.152  24
   3  10   6 5160.83 308.192  24
   3  11  -5 6649.70 371.124  26
   3  11  -4 740.284 129.866  26
  -3  11   4 1059.59 129.271  19
   3  11  -3 812.171 134.983  26
  -3  11   3 1228.46 151.983  19
  -3  11   2 1545.54 178.982  19
   3  11  -2 1351.81 185.141  28
  -3  11   1 1158.73 160.332  19
   3  11  -1 1035.97 163.616  28
  -3  11   0 2648.86 235.798  19
   3  11   0 2621.49 243.623  28
  -3  11  -1 2933.34 238.066  19
   3  11   1 2188.28 205.098  28
  -3  11  -2 6192.72 332.184  19
  -4   0  14 1461.18 164.467  23
   4   0 -14 1245.09 167.665  21
  -4   0  13 3919.47 324.214  23
   4   0 -13 3066.22 328.534  21
   4   0 -13 3376.13 310.727  30
  -4   0  12 1907.75 265.790  23
  -4   0  11 8627.86 594.402  23
  -4   0  10 6432.46 527.479  23
  -4   0   9 858.794 204.739  23
  -4   0   8 12517.2 763.624  23
   4   0  -8 12674.5 731.209  31
  -4   0   7 1390.10 239.298  23
   4   0  -7 1192.44 219.150  31
   4   0  -6 1235.01 224.296  31
   4   0  -6 782.612 185.685  17
   4   0  -5 644.722 160.131   6
   4   0  -4 884.131 189.379   6
   4   0  -3 27679.3 1118.36   6
   4   0  -2 902.455 177.525   6
   4   0  -1 2143.11 285.356   6
   4   0   0 11316.7 668.351   6
   4   0   1 6698.18 519.295   6
   4   0   2 2871.67 341.771   6
   4   0   2 2874.81 329.815   5
   4   0   3 8666.93 577.976  22
   4   0   3 6985.41 560.081  20
   4   0   4 4574.18 421.251  22
   4   0   4 4471.05 458.665  20
   4   0   5 3940.74 399.725  22
   4   0   5 3671.71 422.196  20
   4   0   6 1253.95 222.222  22
   4   0   6 1181.75 256.603  20
   4   0   7 570.418 164.240  22
   4   0   7 653.764 202.638  20
   4   0   8-69.6918 83.3645  22
   4   0   8 246.999 138.574  20
   4   0   9 4238.40 415.100  20
   4   0  10 29372.9 1073.87  20
  -4   1  14 77.5977 68.7832  23
  -4  -1  14 209.630 65.1534  23
   4   1 -14 91.9458 68.5239  21
  -4   1  13 799.215 155.187  23
  -4  -1  13 909.204 157.221  23
   4   1 -13 559.258 162.358  21
   4   1 -13 713.756 153.106  30
  -4   1  12 1354.36 219.517  23
  -4  -1  12 864.340 176.150  23
   4   1 -12 1212.31 226.763  30
  -4   1  11 2859.51 337.712  23
  -4  -1  11 3183.68 348.807  23
  -4   1  10 8888.11 624.454  23
  -4  -1  10 9372.89 635.095  23
  -4   1   9 1541.93 271.024  23
  -4  -1   9 798.516 197.682  23
   4  -1  -9 896.580 217.928  31
   4   1  -9 1757.65 304.065  16
  -4   1   8 148.465 101.804  23
  -4  -1   8 208.738 122.492  23
   4  -1  -8 101.971 99.8131  31
   4   1  -8 214.924 128.206  16
   4   1  -7 175.530 119.394  31
  -4   1   7 163.334 128.787  23
   4  -1  -7 106.572 99.2944  31
   4  -1  -6 3190.68 347.646  31
   4   1  -6 4937.76 450.835  17
   4   1  -6 4428.79 400.630  31
   4  -1  -6 3445.52 363.222  17
   4   1  -6 5524.02 480.625  16
   4  -1  -5 9324.35 607.131   6
   4   1  -5 9685.19 620.322   6
   4   1  -5 8848.66 570.093   9
   4  -1  -4 20395.6 950.372   6
   4   1  -4 22990.6 987.925   6
   4  -1  -3 6293.28 486.444   6
   4   1  -3 5467.08 449.750   6
   4  -1  -2 1255.49 224.854   6
   4   1  -2 1572.27 236.162   6
   4  -1  -1 12965.1 719.660   6
   4   1  -1 13360.4 718.903   6
   4  -1   0 343.170 125.768   6
   4   1   0 626.950 168.969   6
   4  -1   1 11102.8 683.373   6
   4   1   1 11817.2 702.473   6
   4  -1   2 2249.23 306.824   6
   4   1   2 3243.58 351.962   6
   4  -1   2 2491.32 306.953   5
   4   1   2 3432.60 366.892   5
   4   1   3 22331.7 1006.65  22
   4  -1   3 20830.7 1019.12  20
   4   1   4 14240.7 831.345  20
   4  -1   4 12437.9 783.914  20
   4   1   5 2446.88 323.967  22
   4  -1   5 2300.75 344.999  20
   4   1   5 1979.95 316.273  20
   4   1   6 6627.02 569.945  20
   4  -1   6 5488.75 526.918  20
   4   1   7 8031.49 614.835  20
   4  -1   7 7040.44 594.545  20
   4   1   8 7957.22 553.290  22
   4   1   8 6952.09 547.307  20
   4  -1   8 7088.51 568.199  20
   4   1   9 3161.21 321.578  22
   4  -1   9 3032.72 364.937  20
   4   1  10 3415.49 293.470  22
   4  -1  10 3468.58 336.904  20
  -4   2  14 1267.38 152.161  23
   4   2 -14 873.104 151.779  21
  -4   2  13 2345.08 250.590  23
  -4  -2  13 2049.24 203.838  23
   4   2 -13 1897.74 268.236  21
   4   2 -13 2131.48 255.881  30
  -4   2  12 2242.21 279.628  23
  -4  -2  12 2288.47 255.877  23
   4   2 -12 1415.65 257.170  30
  -4   2  11 1090.04 214.715  23
  -4  -2  11 789.744 177.904  23
   4   2 -11 940.466 212.513  30
  -4   2  10 13521.1 778.483  23
  -4  -2  10 14967.6 795.634  23
   4  -2 -10 13716.6 731.885  31
  -4   2   9 1327.81 248.880  23
  -4  -2   9 931.129 209.810  23
   4  -2  -9 1185.29 228.732  31
   4   2  -9 1378.80 272.829  16
  -4   2   8 7776.60 584.282  23
  -4  -2   8 6172.87 514.199  23
   4  -2  -8 6626.10 512.696  31
   4   2  -8 7463.86 619.817  16
  -4   2   7 1286.86 244.621  23
   4  -2  -7 841.851 203.814  31
   4   2  -7 998.651 233.102  16
  -4   2   6 2611.68 331.515  23
   4  -2  -6 2226.35 295.108  31
   4   2  -6 3054.95 333.734   9
   4   2  -6 2225.50 298.181  31
   4   2  -6 2746.02 358.952  16
   4  -2  -6 2383.18 307.923  17
   4   2  -5 42698.3 1500.66  17
   4   2  -5 38848.7 1400.63   6
  -4   2   5 41693.2 1459.30  23
   4   2  -5 41506.2 1435.00   9
   4  -2  -5 41557.2 1411.17  17
   4   2  -5 40638.3 1403.79  31
   4   2  -5 44298.4 1551.12  16
   4  -2  -4 3590.02 363.303   6
   4   2  -4 2711.27 316.333   6
   4   2  -4 3041.65 333.343   9
   4  -2  -3 11945.9 675.545   6
   4   2  -3 8794.16 566.692   6
   4  -2  -2 134.773 91.2079   6
   4   2  -2 765.401 170.481   6
   4  -2  -1 2905.56 328.764   6
   4   2  -1 2547.90 299.943   6
   4  -2   0 10522.1 644.553   6
   4   2   0 10135.3 622.597   6
   4  -2   1 4811.65 440.869   6
   4   2   1 4895.87 434.059   6
   4   2   2 1231.55 232.106  22
   4  -2   2 1874.96 285.317  20
   4   2   2 1087.74 215.436  17
  -4   2  -2 1224.37 238.004  29
   4  -2   3 43655.6 1531.97  20
  -4   2  -3 40956.1 1557.05  29
   4   2   4 1897.93 299.349  22
   4  -2   4 2187.58 325.722  20
   4   2   5 3479.44 403.530  22
   4  -2   5 2496.85 357.476  20
   4   2   6 4003.59 427.530  22
   4  -2   6 5844.93 522.451  20
   4   2   7 16316.6 881.850  22
   4  -2   7 16046.2 889.463  20
   4   2   8 43926.9 1507.67  22
   4  -2   8 38173.5 1483.96  20
   4   2   9 7265.57 511.921  22
   4  -2   9 7906.55 553.728  20
   4   2  10 6345.53 421.388  22
   4  -2  10 5774.96 436.782  20
   4   2  11 389.073 91.8753  22
  -4   3  14 2906.25 212.788  23
   4   3 -14 2579.16 239.623  21
  -4   3  13 679.817 136.788  23
   4   3 -13 698.934 163.993  21
   4   3 -13 690.763 159.741  30
   4   3 -12 553.074 160.042  30
  -4   3  12 717.108 154.249  23
  -4   3  11 2578.50 308.516  23
  -4  -3  11 1826.32 242.614  23
   4   3 -11 1969.37 294.098  30
  -4   3  10 360.699 150.685  23
  -4  -3  10 392.397 144.408  23
   4  -3 -10 406.288 137.715  31
   4   3 -10 260.696 161.265  30
  -4   3   9 5509.10 488.389  23
  -4  -3   9 5845.45 484.457  23
   4  -3  -9 5751.06 459.558  31
   4   3  -9 5548.26 540.826  16
  -4   3   8 2908.80 352.960  23
  -4  -3   8 2706.33 330.585  23
   4   3  -8 3272.29 419.686  16
   4  -3  -8 2497.15 314.024  31
  -4   3   7 10432.0 620.234  15
  -4   3   7 10233.8 671.760  23
   4  -3  -7 10276.5 642.284  31
   4   3  -7 10346.9 735.956  16
  -4   3   6 33057.8 1206.50  15
  -4   3   6 33289.1 1276.35  23
   4   3  -6 28759.1 1204.79   9
   4  -3  -6 32720.1 1236.97  31
   4   3  -6 31241.4 1342.86  16
  -4   3   5 54535.6 1695.37  15
   4   3  -5 56192.2 1789.05   9
   4   3  -5 54312.6 1799.32  17
   4   3  -5 55560.8 1870.75  16
  -4   3   4 17441.1 818.159  15
   4   3  -4 15869.4 824.847   9
   4   3  -4 17551.4 872.896  17
   4   3  -4 17212.5 904.900  16
   4  -3  -3 15104.6 767.612   6
   4   3  -3 14476.3 779.496   9
   4   3  -3 15514.3 798.621  17
   4   3  -3 14225.6 807.614  16
   4  -3  -2 27705.3 1115.40   6
   4   3  -2 28454.1 1148.31   9
   4   3  -2 30862.0 1230.44  16
   4  -3  -1 18941.2 890.959   6
   4   3  -1 20116.8 939.937  22
   4   3  -1 20149.8 925.893   9
  -4   3   0 3266.49 380.382  29
   4   3   0 2821.92 339.991  22
   4  -3   0 2877.03 330.498   6
   4   3   1 8392.60 564.339  17
   4   3   1 8102.63 588.896  22
  -4   3  -1 9398.75 662.599  29
   4   3   2 1074.70 227.238  22
   4   3   2 790.055 178.019  17
  -4   3  -2 1021.97 226.804  29
   4   3   3 2418.09 337.569  22
   4   3   3 2785.86 311.040   9
   4  -3   3 3199.99 371.033  20
  -4   3  -3 2578.74 326.092  12
  -4   3  -3 2836.41 382.122  29
   4   3   4 9277.90 678.144  22
   4  -3   4 9360.91 646.042  20
  -4   3  -4 11014.3 757.623  29
  -4   3  -5 4338.46 477.124  29
   4   3   5 4267.79 453.462  22
   4  -3   5 4254.87 441.540  20
   4   3   6 9486.55 682.303  22
  -4   3  -6 8539.84 661.961  29
   4   3   7 4532.10 457.536  22
   4  -3   7 4229.96 432.854  20
  -4   3  -7 3842.52 422.243  29
   4   3   8 11217.9 700.139  22
   4  -3   8 13241.2 731.728  20
   4   3   9 820.437 183.858  22
   4  -3   9 632.957 171.633  20
   4   3  10 400.454 123.540  22
   4  -3  10 440.104 130.473  20
  -4   4  13 3583.90 265.823  23
   4   4 -13 3433.54 307.197  21
   4   4 -13 3324.99 287.738  30
  -4   4  12 1073.63 174.210  23
   4   4 -12 763.016 182.771  21
   4   4 -12 1003.46 199.380  30
  -4   4  11 1264.84 209.966  23
   4   4 -11 1162.08 236.253  30
  -4   4  10 677.142 136.533  25
  -4   4  10 628.434 164.079  23
   4   4 -10 705.059 192.957  30
   4   4  -9 324.159 162.988  30
  -4   4   9 462.645 125.253  25
  -4   4   9 319.746 136.014  23
  -4  -4   9 216.951 96.8203  23
   4  -4  -9 222.313 110.119  31
   4   4  -9 577.729 221.637  16
   4   4  -8 3841.75 428.713  30
  -4   4   8 4827.24 435.607  23
  -4  -4   8 4770.31 423.239  23
   4   4  -8 3788.72 466.846  16
   4  -4  -8 4974.08 429.792  31
  -4   4   7 13529.0 740.936  15
  -4   4   7 15450.0 805.944  23
   4  -4  -7 13678.7 740.394  31
   4   4  -7 12797.2 844.733  16
  -4   4   6 4734.18 425.812  15
   4   4  -6 5113.98 476.963   9
   4   4  -6 5128.25 514.969  16
  -4   4   5 14053.4 752.549  15
   4   4  -5 13245.0 780.966   9
   4   4  -5 13613.0 834.502  16
  -4   4   4 22869.3 1004.36  15
   4   4  -4 22130.2 1037.70   9
   4   4  -4 24116.4 1055.41  17
   4   4  -4 24763.9 1137.14  16
  -4   4   3 17762.6 856.345  15
   4   4  -3 16520.9 863.829   9
  -4   4   3 19028.5 875.187  12
   4   4  -3 15198.7 814.046  17
   4   4  -3 16003.6 891.103  16
  -4   4   2 13842.8 746.916  15
   4   4  -2 13797.4 768.335   9
  -4   4   2 13433.4 734.577  12
   4   4  -2 13678.3 735.170  17
   4   4  -2 12254.6 769.115  16
  -4   4   1 4442.30 416.604  15
   4   4  -1 4726.10 438.776  22
   4   4  -1 5256.02 452.987   9
  -4   4   1 5079.78 438.835  12
  -4   4   0 2291.46 326.975  29
   4   4   0 2590.51 335.156  22
   4   4   0 2098.65 287.035   9
  -4   4   0 1810.90 269.207  12
   4   4   1 1477.52 259.716  22
   4   4   1 1145.31 216.046   9
  -4   4  -1 1447.21 245.819  12
  -4   4  -1 1473.02 273.507  29
   4   4   2 5414.97 498.536  22
   4   4   2 5454.85 444.557   9
  -4   4  -2 5526.65 478.626  12
  -4   4  -2 5719.84 533.123  29
   4   4   3 5270.02 500.431  22
   4  -4   3 6614.90 517.251  20
  -4   4  -3 4723.01 446.158  12
  -4   4  -3 5901.76 550.893  29
   4   4   4 104.187 128.014  22
   4  -4   4 164.539 97.2691  20
  -4   4  -4 420.834 181.089  29
   4   4   5 6125.26 554.139  22
   4  -4   5 6649.85 528.780  20
  -4   4  -5 5919.48 556.393  29
   4   4   6 1895.88 314.201  22
   4  -4   6 2005.43 286.711  20
  -4   4  -6 1557.13 290.055  29
   4   4   7 4206.60 441.563  22
   4  -4   7 4935.85 431.968  20
  -4   4  -7 3337.00 394.381  29
   4   4   8 2450.03 319.213  22
   4  -4   8 1532.60 233.941  20
  -4   4  -8 2402.08 304.597  29
   4   4   9 346.415 139.121  22
   4  -4   9 307.643 123.828  20
  -4   4  -9 283.623 100.117  29
   4   4  10 601.222 135.585  22
   4  -4  10 871.004 145.754  20
   4   5 -13 2861.24 236.012  30
  -4   5  12 532.728 117.016  23
   4   5 -12 587.881 151.038  21
   4   5 -12 672.474 161.417  30
  -4   5  11 1550.03 185.841  25
  -4   5  11 1698.05 214.672  23
   4   5 -11 1583.96 244.418  21
   4   5 -11 1491.14 236.005  30
  -4   5  10 1665.51 216.563  25
  -4   5  10 2372.99 264.831  23
   4   5 -10 1769.23 290.955  30
  -4   5   9 3686.05 339.445  25
  -4   5   9 3682.36 350.205  23
   4  -5  -9 4570.27 368.236  31
   4   5  -9 3588.84 396.280  30
   4   5  -9 3092.20 398.366  16
   4  -5  -8 14070.8 705.316  31
   4   5  -8 12461.2 827.596  16
   4   5  -8 13257.9 780.947  30
  -4   5   7 3242.72 351.073  15
   4  -5  -7 3497.27 355.575  31
   4   5  -7 3516.73 392.820  30
   4   5  -7 3080.42 410.304  16
  -4   5   6 4040.76 399.127  15
   4   5  -6 4312.37 424.900  30
   4   5  -6 3652.90 441.117  16
  -4   5   5 4001.92 396.903  15
   4   5  -5 3791.00 446.219  16
   4   5  -5 4142.16 427.342  28
  -4   5   4 8545.03 594.853  15
   4   5  -4 9023.07 644.254   9
  -4   5   4 8656.99 585.831  12
   4   5  -4 9249.91 677.009  16
   4   5  -3 1931.51 311.203  16
  -4   5   3 2042.50 289.970  15
   4   5  -3 2421.60 326.723   9
  -4   5   3 2295.30 299.172  12
  -4   5   2 5294.47 464.163  15
   4   5  -2 5297.44 483.414   9
  -4   5   2 5304.85 458.556  12
   4   5  -2 4622.57 464.854  16
  -4   5   1 6511.89 524.145  15
   4   5  -1 7077.96 547.216   9
  -4   5   1 6885.62 530.110  12
   4   5  -1 6533.42 554.697  16
   4   5   0 1052.79 222.867  22
   4   5   0 970.951 202.753   9
  -4   5   0 1217.03 227.129  12
  -4   5   0 1093.67 242.037  29
   4   5   1 6535.80 510.117   9
   4   5   1 6476.14 535.300  22
  -4   5  -1 6742.71 531.465  12
  -4   5  -1 8086.45 632.641  29
   4   5   2 1076.85 232.309  22
  -4   5  -2 1194.80 247.458  29
   4   5   3 2342.13 335.977  22
  -4   5  -3 1972.27 320.360  29
   4   5   4 6190.65 545.821  22
  -4   5  -4 6361.10 570.318  29
   4   5   5 117.270 120.770  22
   4  -5   5 230.284 113.075  20
  -4   5  -5 121.141 133.925  29
   4   5   6 495.450 175.814  22
   4  -5   6 815.426 176.018  20
  -4   5  -6 724.089 197.287  29
   4   5   7 1836.18 280.932  22
   4  -5   7 1736.02 233.048  20
  -4   5  -7 1955.61 290.209  29
   4   5   8 1423.44 236.245  22
   4  -5   8 1225.54 188.596  20
  -4   5  -8 1531.61 234.200  29
   4   5   9 6848.80 440.168  22
  -4   5  -9 6271.17 404.877  29
   4   5  10 3717.34 263.102  22
   4   6 -12 530.200 118.991  30
  -4   6  11 497.524 103.693  25
   4   6 -11 688.744 139.462  21
   4   6 -11 448.523 140.703  30
  -4   6  10 294.137 96.9634  25
   4   6 -10 372.473 124.701  21
   4   6 -10 447.472 155.957  30
  -4   6   9 6646.09 442.607  25
   4   6  -9 6569.10 504.393  30
   4   6  -9 6490.17 538.507  16
  -4   6   8 10811.4 607.068  25
   4  -6  -8 9475.03 534.121  31
   4   6  -8 11216.2 675.028  30
   4   6  -8 10683.9 727.420  16
  -4   6   7 17833.5 840.833  15
   4  -6  -7 14533.5 724.171  31
   4   6  -7 16833.8 849.528  30
   4   6  -7 15100.1 899.816  16
  -4   6   6 9325.78 604.790  15
   4   6  -6 8418.20 657.724  16
   4   6  -6 8384.21 597.206  28
  -4   6   5 3215.24 355.468  15
   4   6  -5 3106.05 401.885  16
   4   6  -5 3388.77 396.865  28
   4   6  -4 112.106 136.876  16
  -4   6   4 29.6057 93.1186  15
   4   6  -4 263.846 156.294  28
  -4   6   3 8820.84 609.197  15
   4   6  -3 8917.03 661.809  16
  -4   6   2 4831.68 449.951  15
   4   6  -2 4589.90 466.736  16
  -4   6   1 6971.56 542.750  15
   4   6  -1 7320.46 592.585  16
  -4   6   0 16019.9 852.877  15
   4   6   0 14674.7 862.455  16
  -4   6  -1 2098.04 302.661  15
   4   6   1 2342.93 318.287  22
  -4   6  -1 2271.08 328.325  29
   4   6   2 7155.54 550.492  22
  -4   6  -2 7784.59 617.433  29
   4   6   3 11361.1 710.640  22
  -4   6  -3 12001.1 769.116  29
   4   6   4 364.898 140.747  22
  -4   6  -4 260.412 137.653  29
   4   6   5 5380.04 477.778  22
  -4   6  -5 5578.26 499.420  29
   4   6   6 1253.58 229.717  22
  -4   6  -6 1319.76 241.870  29
   4   6   7 4660.21 389.184  22
  -4   6  -7 4244.74 387.452  29
   4   6   8 1514.26 204.298  22
  -4   6  -8 1422.64 202.301  29
   4   6   9 2713.77 224.211  22
  -4   7  10 250.246 82.6835  25
   4   7 -10 435.069 122.841  30
  -4   7   9 5531.00 371.626  25
   4   7  -9 5304.59 403.468  30
  -4   7   8 7642.56 474.770  25
   4   7  -8 7858.35 505.775  30
   4   7  -8 7001.87 539.869  16
   4  -7  -7 15459.6 671.702  31
   4   7  -7 14433.8 724.027  30
   4   7  -7 14582.2 824.388  16
  -4   7   6 10799.4 637.752  15
   4   7  -6 9699.87 671.551  16
   4   7  -6 10754.7 659.770  28
  -4   7   5 1516.47 244.657  15
   4   7  -5 1188.72 231.801  28
   4   7  -5 1468.65 273.170  16
  -4   7   4 4532.58 418.815  15
   4   7  -4 4707.36 466.328  16
   4   7  -4 4292.37 449.197  28
   4   7  -3 1481.41 272.680  16
  -4   7   3 1251.68 228.569  15
   4   7  -3 1415.00 277.044  28
  -4   7   2 4292.63 416.137  15
   4   7  -2 3554.03 402.797  16
   4   7  -2 3659.07 430.094  28
  -4   7   1 4180.35 411.131  15
   4   7  -1 4403.23 442.761  16
  -4   7   0 4709.61 444.634  15
   4   7   0 5217.91 480.166  16
   4   7   1 1098.54 221.772  16
  -4   7  -1 1111.23 219.021  15
   4   7   2 415.095 169.707  16
  -4   7  -2 280.344 138.463  15
  -4   7  -2 317.445 137.775  29
   4   7   3 1385.40 239.350  16
  -4   7  -3 1248.70 229.537  15
  -4   7  -3 1412.98 253.239  29
   4   7   4 2012.35 254.336  22
  -4   7  -4 1761.51 272.842  29
   4   7   5 1159.88 197.135  22
  -4   7  -5 1197.46 217.891  29
   4   7   6 10822.4 550.702  22
  -4   7  -6 10087.2 592.120  29
   4   7   7 6242.40 364.433  22
  -4   7  -7 5744.20 401.300  29
   4   7   7 5805.39 347.283  16
  -4   7  -8 2135.88 192.066  15
  -4   7  -8 2700.46 230.596  29
   4   8  -9 1526.95 184.296  26
  -4   8   9 1935.39 189.845  25
   4   8  -8 3312.51 318.246  26
  -4   8   8 3641.63 288.424  25
  -4   8   7 2354.28 251.516  25
   4   8  -7 2193.71 264.446  16
   4   8  -7 2142.55 242.008  28
  -4   8   6 1969.28 243.384  25
   4  -8  -6 2297.31 230.982  31
   4   8  -6 2060.48 270.006  16
   4   8  -6 1431.76 221.421  28
  -4   8   5 20297.8 871.676  15
   4   8  -5 19535.1 904.765  16
   4   8  -5 19466.5 908.258  28
  -4   8   4 393.442 137.621  15
   4   8  -4 115.733 112.169  28
   4   8  -4 147.759 119.569  16
  -4   8   3 2387.61 295.904  15
   4   8  -3 2474.64 312.882  16
   4   8  -3 2769.28 349.416  28
  -4   8   2 3827.20 373.515  15
   4   8  -2 3643.36 360.230  16
   4   8  -2 3215.81 380.459  28
   4   8  -1 1902.80 260.303  16
  -4   8   1 1455.38 239.777  15
   4   8  -1 1504.10 270.755  28
  -4   8   0 4292.03 393.927  15
   4   8   0 4240.93 386.047  16
   4   8   0 3862.97 418.438  28
  -4   8  -1 3331.71 346.106  15
   4   8   1 3209.60 328.742  16
   4   8   1 3034.41 356.116  28
  -4   8  -2 3074.93 327.503  15
   4   8   2 3054.02 318.658  24
   4   8   2 3495.72 327.701  16
   4   8   2 2886.41 332.129  28
  -4   8  -3 7522.27 495.016  15
   4   8   3 7312.82 470.969  24
   4   8   3 7189.83 508.108  28
  -4   8  -4 891.452 164.711  15
   4   8   4 802.855 167.613  28
  -4   8  -5 20138.3 745.490  15
   4   8   5 14456.1 630.101  28
  -4   8  -6 14731.7 584.533  15
   4   9  -7 868.755 157.944  26
  -4   9   7 1001.26 138.818  25
   4   9  -6 2396.26 267.196  26
  -4   9   6 2887.79 245.044  25
   4   9  -6 2642.37 252.091  28
  -4   9   5 6405.55 388.171  25
   4   9  -5 6148.40 424.943  28
  -4   9   4 5758.85 396.513  15
  -4   9   4 6100.96 366.528  19
   4   9  -4 5403.22 420.859  28
  -4   9   3 444.201 124.828  15
   4   9  -3 932.430 194.670  28
  -4   9   2 2210.09 251.629  15
   4   9  -2 2244.34 287.053  28
  -4   9   1 3560.79 318.456  15
   4   9  -1 3290.96 343.120  28
  -4   9   0 478.572 130.418  15
   4   9   0 650.212 165.263  28
  -4   9  -1 4100.42 331.108  15
   4   9   1 4249.86 362.470  28
  -4   9  -2 1630.21 200.723  15
   4   9   2 1480.85 207.639  28
  -4   9  -3 581.201 122.747  15
   4   9   3 573.024 123.874  28
  -4   9  -4 3627.29 255.861  15
  -4   9  -4 3707.44 238.274  19
   4  10  -4 591.094 115.705  28
  -4  10   3 1407.98 144.933  19
   4  10  -3 1611.07 189.990  28
  -4  10   2 949.270 131.697  15
  -4  10   2 981.660 133.901  19
   4  10  -2 753.400 135.070  28
  -4  10   1 532.807 105.600  15
  -4  10   1 456.687 97.5313  19
   4  10  -1 421.625 105.352  28
  -4  10   0 518.465 102.689  19
   4  10   0 547.071 113.919  28
  -4  10  -1 197.085 72.6160  19
   5   0 -12 764.341 136.895  30
  -5   0  12 849.529 137.599  23
  -5   0  11 2637.32 273.851  23
  -5   0  10 2896.05 308.782  23
  -5   0   9 8455.71 567.596  23
  -5   0   8 6625.98 515.503  23
  -5   0   7-29.4035 108.771  23
   5   0  -7 43.7486 123.554  31
  -5   0   6 4081.08 411.184  23
   5   0  -6 4494.48 426.592  31
   5   0  -5 693.666 185.468  31
   5   0  -5 1262.31 232.821  17
   5   0  -4 2338.01 326.880  17
   5   0  -4 1424.03 246.842  31
   5   0  -3 23534.3 1007.41  31
   5   0  -3 22801.8 1050.26  17
   5   0  -2 9039.03 632.668  17
   5   0  -1 8596.82 621.829  17
   5   0   0 3325.39 387.479  17
   5   0   1 3204.80 384.551  17
   5   0   2 5262.11 490.492  17
   5   0   3 577.809 179.667  17
   5   0   4 9959.34 603.115  22
   5   0   4 7851.33 598.008  17
   5   0   5 908.267 177.911  22
   5   0   5 944.295 223.843  17
   5   0   6 3814.25 374.921  17
   5   0   7 3539.40 338.643  17
   5   0   8 7742.37 429.455  17
  -5   1  12 1184.70 157.396  23
  -5  -1  12 1086.39 146.044  23
   5   1 -12 843.993 145.186  30
   5  -1 -12 846.084 139.257  30
  -5   1  11 272.159 107.669  23
  -5  -1  11 222.803 99.2859  23
   5   1 -11 291.234 126.393  30
  -5   1  10 943.294 193.017  23
  -5  -1  10 1023.69 187.739  23
  -5   1   9 1136.73 215.378  23
  -5  -1   9 1238.04 223.676  23
  -5   1   8 185.973 133.714  23
  -5  -1   8 12.9814 80.2747  23
   5  -1  -8-44.8283 129.913  31
  -5   1   7 1193.13 236.189  23
  -5  -1   7 1187.21 236.161  23
   5  -1  -7 1078.47 218.875  31
   5   1  -7 1021.56 216.803  16
  -5   1   6 2881.10 347.574  23
   5  -1  -6 2132.74 309.814  31
   5   1  -6 2544.87 330.960  16
  -5   1   5 6321.87 511.500  23
   5   1  -5 6168.11 522.887  17
   5  -1  -5 6511.77 517.109  17
   5   1  -5 6186.56 498.060  31
   5  -1  -5 6686.11 529.195  31
   5   1  -5 6627.13 528.056  16
   5   1  -4 41888.0 1440.83  31
   5  -1  -4 44441.3 1523.85  17
   5   1  -4 41733.0 1496.67  16
   5  -1  -4 41642.1 1487.21  31
   5   1  -4 38301.9 1486.83  17
   5  -1  -3 36612.6 1348.62  31
   5   1  -3 32814.4 1342.91  17
   5  -1  -3 36835.8 1370.97  17
   5   1  -3 36406.5 1355.33  16
   5  -1  -2 21905.4 969.981  31
   5   1  -2 20608.8 1008.63  17
   5  -1  -2 20506.2 982.583  17
   5   1  -2 22893.5 1018.39  16
   5   1  -1 3415.76 393.767  17
   5  -1  -1 2845.97 355.338  17
   5   1  -1 3580.80 383.048  16
   5   1   0 6301.13 528.424  17
   5  -1   0 6209.92 524.096  17
   5   1   0 6220.80 510.312  16
   5   1   1 657.307 194.004  17
   5  -1   1 744.873 213.986  17
   5   1   2 4025.68 410.725  22
   5   1   2 3454.72 396.965  17
   5  -1   2 3858.11 424.337  17
   5   1   3 2622.52 334.317  22
   5   1   3 2362.57 334.446  17
   5  -1   3 1855.07 289.855  17
   5   1   4 865.333 196.594  22
   5   1   4 856.499 195.208  17
   5  -1   4 835.823 219.451  17
   5   1   5 3188.89 345.930  22
   5   1   5 3082.08 356.639  17
   5   1   6 1056.80 188.054  22
   5   1   6 1119.89 217.438  17
   5  -1   6 1381.48 237.069  17
   5   1   7 302.771 111.877  22
   5   1   7 321.034 126.466  17
   5  -1   7 620.234 163.215  17
   5   1   8 6136.54 352.561  17
   5  -1   8 6654.55 397.643  17
  -5   2  12 1029.37 138.684  23
   5   2 -12 864.256 144.284  30
   5   2 -11 445.151 139.391  30
  -5   2  11 747.946 145.621  23
  -5  -2  11 373.578 103.492  23
  -5   2  10 222.182 110.721  23
  -5  -2  10 263.419 102.743  23
   5   2 -10 259.861 144.723  30
  -5   2   9 8865.63 556.565  23
  -5  -2   9 7949.76 526.592  23
   5  -2  -9 7408.91 498.694  31
  -5   2   8 2877.91 326.975  23
  -5  -2   8 2534.31 309.514  23
   5  -2  -8 2629.84 313.012  31
   5   2  -8 2827.15 346.369  16
  -5   2   7 4044.57 395.997  23
  -5  -2   7 2775.15 341.851  23
   5  -2  -7 3336.32 361.317  31
   5   2  -7 3208.14 378.903  16
  -5   2   6 3789.01 391.526  23
   5  -2  -6 2978.55 350.386  31
   5   2  -6 3628.89 401.942  16
   5   2  -5 571.841 175.934  16
  -5   2   5 481.696 134.900  23
   5  -2  -5 436.518 164.917  31
   5  -2  -5 179.123 122.535  17
  -5   2   4 4462.15 414.639  23
   5  -2  -4 4862.87 455.946  31
   5   2  -4 3603.49 406.340  17
   5   2  -4 3982.11 423.066  16
   5   2  -3 21366.4 1031.54  17
   5  -2  -3 21515.3 1008.82  31
   5  -2  -3 24525.9 1030.85  17
   5   2  -3 22249.4 1048.43  16
   5  -2  -2 7117.16 538.338  31
   5   2  -2 6220.19 532.417  17
   5  -2  -2 8390.40 573.421  17
   5   2  -2 6889.39 552.761  16
   5   2  -1 999.227 224.606  16
   5   2  -1 1360.44 267.174  17
   5  -2  -1 1734.69 273.623  17
   5   2   0 727.386 196.189  16
   5   2   0 740.513 195.346  17
   5  -2   0 504.194 167.219  17
   5  -2   1 2304.97 309.870  17
   5   2   1 2073.56 310.607  17
   5   2   2 1903.69 301.097  22
   5   2   2 1700.33 287.281  17
   5  -2   2 1555.43 272.266  17
   5   2   3 705.123 200.411  22
   5   2   3 453.908 152.890  17
   5  -2   3 178.442 137.133  17
   5   2   4 1546.08 261.857  22
   5   2   4 1160.49 237.034  17
   5  -2   4 1384.86 247.311  17
   5   2   5 3980.61 392.539  22
   5   2   5 4724.04 403.322  17
   5  -2   5 4157.51 401.479  17
   5   2   6 364.462 132.318  22
   5   2   6 527.565 143.941  17
   5  -2   6 556.743 167.664  17
   5   2   7 924.929 168.556  22
   5  -2   7 1057.86 190.367  17
   5   2   8 2230.69 212.606  22
   5  -2   8 2399.91 232.808  17
   5   3 -12-34.9459 74.0152  21
   5   3 -12 148.989 82.5870  30
  -5   3  11 519.553 110.811  23
  -5  -3  11 476.560 99.1141  23
   5   3 -11 559.968 136.304  30
  -5   3  10 1734.23 218.138  23
  -5  -3  10 1593.68 202.930  23
   5   3 -10 1645.85 245.644  30
  -5   3   9 3296.69 314.974  23
  -5  -3   9 2980.09 305.016  23
   5   3  -9 2878.91 336.046  30
   5   3  -9 3059.56 343.148  16
   5  -3  -9 3124.04 309.900  31
  -5   3   8 4552.41 389.618  23
  -5  -3   8 3365.15 347.762  23
   5  -3  -8 3303.82 339.177  31
   5   3  -8 4441.76 421.155  30
   5   3  -8 3669.13 396.121  16
  -5   3   7 1038.41 201.943  23
  -5  -3   7 650.051 168.237  23
   5  -3  -7 697.495 182.795  31
   5   3  -7 1052.81 227.626  16
  -5   3   6 2796.91 313.365  23
   5  -3  -6 2192.98 307.718  31
   5   3  -6 2417.62 334.830  16
   5  -3  -5 9527.52 624.397  31
   5   3  -5 8973.28 652.565  16
   5   3  -4 164.516 115.640  16
   5   3  -4 130.346 136.700  17
   5  -3  -4 165.187 141.305  31
   5  -3  -4 158.195 117.549  17
   5   3  -3 5303.31 476.528  17
   5  -3  -3 3932.35 376.740  17
   5   3  -3 5376.23 496.028  16
   5   3  -2 5869.29 501.301  17
   5  -3  -2 5930.06 464.164  17
   5   3  -2 5726.27 511.503  16
   5   3  -1 165.746 137.243  16
   5   3  -1 248.120 136.429  17
   5  -3  -1 282.631 131.644  17
  -5   3   0 3463.27 356.092  15
   5   3   0 4127.91 408.933  17
   5  -3   0 4007.94 387.832  17
   5   3   0 3511.66 406.794  16
  -5   3  -1 2048.14 276.749  15
   5  -3   1 2011.32 286.539  17
   5   3   1 1967.79 287.761  17
   5   3   2 3907.71 422.935  22
   5   3   2 4331.14 401.044  17
   5  -3   2 3196.96 359.119  17
   5   3   3 823.924 205.732  22
   5   3   3 798.652 190.372  17
   5  -3   3 463.979 158.897  17
   5   3   4 8316.06 601.344  22
   5  -3   4 9947.33 596.696  17
   5   3   5 11006.4 658.353  22
   5  -3   5 9779.24 577.714  17
   5   3   6 128.067 115.283  22
   5  -3   6 341.919 130.866  17
   5   3   7 898.045 160.911  22
   5  -3   7 1314.24 185.549  17
   5   3   8 168.699 74.4870  22
   5  -3   8 137.307 67.6974  17
   5   4 -11 5729.51 371.246  21
   5   4 -11 6009.12 371.741  30
  -5   4  10 173.008 75.0863  23
  -5  -4  10 237.231 79.8425  23
   5   4 -10 207.838 114.733  30
  -5   4   9 1443.82 191.123  23
  -5  -4   9 1370.17 189.669  23
   5  -4  -9 1036.58 174.330  31
   5   4  -9 1172.43 207.029  30
   5   4  -9 1163.55 216.123  16
  -5  -4   8 2051.74 252.308  23
   5  -4  -8 2322.05 263.751  31
   5   4  -8 2443.89 296.685  30
   5   4  -8 2086.73 295.087  16
  -5  -4   7 4246.15 384.977  23
   5  -4  -7 4741.21 396.500  31
   5   4  -7 4846.10 415.753  30
   5   4  -7 4540.94 449.062  16
  -5   4   6 2534.63 276.409  15
   5  -4  -6 2021.77 289.676  31
   5   4  -6 2409.55 295.589  30
   5   4  -6 2864.66 358.792  16
   5   4  -5 48.5848 112.559  16
  -5   4   5 143.829 81.0787  15
   5  -4  -5 164.026 148.808  31
  -5   4   4 3193.74 323.332  15
   5  -4  -4 2895.53 345.329  31
   5   4  -4 2916.47 372.659  16
  -5   4   3 4032.70 372.135  15
   5   4  -3 3613.74 408.640  16
   5   4  -2 618.697 187.313  16
  -5   4   2 726.456 173.853  15
   5   4  -2 358.832 142.508  17
  -5   4   1 7638.45 529.751  15
   5   4  -1 7668.35 539.389  17
   5   4  -1 7388.74 588.953  16
   5   4   0 478.147 176.515  16
  -5   4   0 473.801 139.772  15
   5   4   0 630.336 167.103  17
   5  -4   0 733.053 165.834  17
  -5   4  -1 8952.38 586.663  15
   5  -4   1 8275.22 531.287  17
  -5   4  -2 7996.90 553.624  15
   5  -4   2 10510.0 583.808  17
   5   4   3 351.601 161.027  22
   5  -4   3 562.597 153.998  17
   5   4   4 8270.23 582.717  22
   5  -4   4 8941.74 520.967  17
   5   4   5 1422.02 242.501  22
   5  -4   5 1356.04 193.008  17
   5   4   6 2001.58 253.040  22
   5  -4   6 1479.73 185.105  17
   5   4   7 414.860 116.045  22
   5  -4   7 899.050 137.767  17
   5   5 -10 2125.66 214.842  21
   5   5 -10 2406.44 228.458  30
   5  -5  -9 1188.46 153.925  31
   5   5  -9 1645.51 211.879  30
  -5   5   8 229.964 83.1718  25
  -5  -5   8 216.395 84.7803  23
   5  -5  -8 320.252 116.788  31
   5   5  -8 328.705 121.575  30
   5   5  -8 225.467 133.863  16
  -5  -5   7 3966.72 337.827  23
   5  -5  -7 4429.06 357.891  31
   5   5  -7 5494.00 399.187  30
   5   5  -7 4747.09 443.531  16
  -5   5   6 4727.40 365.867  15
   5  -5  -6 4218.73 372.274  31
   5   5  -6 3963.81 419.280  16
  -5   5   5 4396.13 367.954  15
   5  -5  -5 4561.52 400.145  31
   5   5  -5 3676.76 409.743  16
   5   5  -4 528.106 179.011  16
  -5   5   4 607.543 153.912  15
  -5   5   3 2959.45 314.911  15
   5   5  -3 2837.86 362.913  16
   5   5  -3 2728.54 337.836  28
   5   5  -2 112.905 127.722  16
  -5   5   2 94.0232 94.0395  15
   5   5  -1 1011.38 225.343  16
  -5   5   1 667.749 159.923  15
  -5   5   0 17942.1 839.525  15
   5   5   0 17236.9 915.240  16
  -5   5  -1 2006.23 271.057  15
   5   5   1 2127.31 320.765  16
  -5   5  -2 2194.77 274.069  15
   5   5   2 2367.42 325.133  16
   5   5   3 510.007 181.987  16
  -5   5  -3 177.717 101.521  15
   5   5   4 738.511 190.845  16
  -5   5  -4 766.245 157.904  15
   5   5   4 886.926 191.377  22
  -5   5  -5 2088.70 233.230  15
   5   5   5 2404.92 270.075  22
   5  -5   5 2340.09 205.935  17
   5   5   5 2447.32 279.495  16
  -5   5  -6 1321.23 167.691  15
   5   5   6 1469.12 198.878  16
  -5   6   8 316.285 84.6554  25
   5  -6  -8 240.577 83.8286  31
   5   6  -8 161.765 107.806  16
  -5   6   7 4313.87 305.029  25
   5  -6  -7 4330.59 316.009  31
   5   6  -7 4031.51 377.338  16
   5  -6  -6 6140.34 401.478  31
   5   6  -6 4986.41 443.765  16
  -5   6   5 579.851 137.923  15
   5  -6  -5 457.789 139.125  31
   5   6  -5 529.689 185.392  16
   5   6  -4 1897.57 287.643  16
  -5   6   4 1403.61 207.237  15
   5   6  -4 1362.37 216.410  28
   5   6  -3 1734.08 277.208  16
  -5   6   3 1934.43 250.177  15
   5   6  -3 1892.64 267.173  28
   5   6  -2 210.834 148.872  16
  -5   6   2 195.817 96.1399  15
   5   6  -2 144.373 97.4307  28
  -5   6   1 9096.20 557.400  15
   5   6  -1 10562.0 661.485  16
  -5   6   0 3501.90 334.761  15
   5   6   0 3380.11 368.528  16
  -5   6  -1 3163.10 317.255  15
   5   6   1 3111.60 345.171  16
   5   6   2 624.229 170.657  16
  -5   6  -2 717.616 154.312  15
   5   6   3 697.821 161.066  16
  -5   6  -3 934.707 166.373  15
  -5   6  -4 2104.70 225.599  15
   5   6   4 2024.17 241.345  16
  -5   6  -5 1372.51 167.649  15
   5   6   5 1570.14 190.476  16
  -5   7   7 8614.19 401.160  25
   5   7  -7 9211.98 493.333  16
  -5   7   6 268.080 83.1830  25
   5  -7  -6 364.992 107.739  31
   5   7  -6 270.200 107.352  16
  -5   7   5 1321.34 179.164  15
   5  -7  -5 811.481 152.846  31
   5   7  -5 1493.76 225.701  16
  -5   7   4 2137.67 230.333  15
   5  -7  -4 2477.21 248.624  31
   5   7  -4 2374.22 282.280  16
   5   7  -4 1958.05 229.965  28
   5   7  -3 895.703 190.195  16
  -5   7   3 737.007 147.133  15
   5   7  -3 790.540 162.261  28
   5   7  -2 925.713 189.867  16
  -5   7   2 818.447 158.647  15
   5   7  -2 937.520 181.960  28
  -5   7   1 2466.36 259.668  15
   5   7  -1 2842.53 306.094  16
   5   7  -1 2030.09 268.106  28
   5   7   0 504.921 155.153  16
  -5   7   0 606.408 137.709  15
   5   7   0 444.535 126.770  28
  -5   7  -1 1752.40 212.978  15
   5   7   1 1630.25 226.924  16
   5   7   1 1657.64 233.500  28
  -5   7  -2 3714.27 298.319  15
   5   7   2 4199.81 334.916  16
   5   7   2 3955.48 329.574  28
  -5   7  -3 1645.92 185.267  15
   5   7   3 1811.29 202.962  16
   5   7   3 1295.28 178.608  28
  -5   7  -4 99.9824 61.4593  15
  -5   8   5 10317.6 429.703  25
   5  -8  -4 1765.58 170.186  31
  -5   8   3 618.941 113.372  15
   5   8  -3 483.939 110.082  28
   5   8  -3 407.103 104.281  16
  -5   8   2 2383.60 218.157  15
   5   8  -2 2377.05 231.958  16
   5   8  -2 2013.36 219.013  28
  -5   8   1 922.308 137.866  15
   5   8  -1 959.132 153.836  28
   5   8  -1 805.234 142.694  16
  -5   8   0 380.935 93.2727  15
   5   8   0 200.927 89.3397  28
  -5   8  -1 202.743 73.4408  15
   5   8   1 143.232 69.4891  28
  -6   0   9 3.42030 49.0530  23
   6   0  -9 23.0425 65.0409  30
  -6   0   8 1623.62 185.950  23
  -6   0   7 215.882 91.4035  23
  -6   0   6 511.019 136.936  23
  -6   0   5 1672.62 222.019  23
  -6   0   4 1649.35 218.411  23
  -6   0   3 788.357 170.912  23
   6   0  -3 751.808 190.529  17
   6   0  -2 38805.6 1324.10  17
   6   0  -1 630.918 171.706  17
   6   0   0 126.020 123.242  17
   6   0   1 566.633 165.214  17
   6   0   2 52.3663 95.9890  17
   6   0   3 220.225 123.375  17
   6   0   4 202.606 91.3616  17
  -6  -1   9 1362.75 154.256  23
  -6   1   8 338.725 97.1441  23
  -6  -1   8 302.746 100.524  23
   6   1  -8 195.357 89.5542  30
  -6   1   7 266.008 104.219  23
  -6  -1   7 359.236 121.252  23
  -6   1   6 2302.41 235.466  23
  -6  -1   6 1960.00 236.129  23
  -6   1   5 232.710 115.220  23
  -6  -1   5 510.079 137.594  23
  -6   1   4 9995.65 516.719  23
  -6  -1   4 9682.13 552.978  23
   6  -1  -4 10142.3 532.448  31
   6   1  -3 3909.85 372.370  17
   6  -1  -3 4214.57 359.767  17
   6   1  -2 15717.8 767.401  17
   6  -1  -2 16314.3 750.010  17
   6   1  -1 20531.5 879.391  17
   6  -1  -1 17829.7 804.313  17
   6   1   0 1427.44 239.638  17
   6  -1   0 1517.63 234.901  17
   6   1   1 2031.99 261.305  17
   6  -1   1 2409.93 272.386  17
   6   1   2 805.988 165.610  17
   6  -1   2 652.984 151.677  17
   6   1   3 88.3656 91.3856  17
   6  -1   3-34.4123 76.9373  17
   6   1   4 1057.71 149.638  17
   6  -1   4 1178.17 166.974  17
  -6  -2   8 4151.69 288.443  23
  -6   2   7 3207.18 236.061  23
  -6  -2   7 3247.81 280.745  23
   6   2  -7 2542.14 236.885  30
  -6  -2   6 384.355 115.113  23
  -6  -2   5 1545.65 218.841  23
   6  -2  -5 1352.89 197.831  31
   6  -2  -4 630.631 142.869  31
   6   2  -4 737.570 146.265  16
   6   2  -3 407.983 115.943  16
   6  -2  -3 897.314 155.846  17
   6  -2  -3 715.017 148.968  31
   6   2  -2 11228.9 618.179  17
   6  -2  -2 10915.0 561.185  17
   6   2  -2 10028.0 548.619  16
   6   2  -1 583.586 132.347  16
   6   2  -1 754.878 183.616  17
   6  -2  -1 549.482 141.863  17
   6   2   0 9340.68 537.336  17
   6   2   0 8797.62 489.026  16
   6   2   1 352.239 108.333  16
   6   2   1 352.692 117.785  17
   6  -2   1 338.532 114.867  17
   6   2   2 4350.15 327.208  17
   6  -2   2 4232.07 316.812  17
   6   2   2 3282.53 269.688  16
   6   2   3 7289.22 388.838  17
   6  -2   3 7889.59 415.089  17
  -6  -3   7 2777.74 241.797  23
  -6  -3   6 48.3739 69.6451  23
   6  -3  -6 5.85087 84.5920  31
   6   3  -6 194.449 96.4986  16
  -6  -3   5 272.797 103.251  23
   6  -3  -5 225.672 104.469  31
   6   3  -5 187.499 94.6788  16
   6  -3  -4 1540.84 200.116  31
   6   3  -4 1095.17 185.442  16
   6  -3  -3 2216.56 233.009  31
   6   3  -3 1615.06 219.865  16
   6   3  -2 41.1505 77.3615  16
   6  -3  -2 243.392 91.9587  17
   6  -3  -1 8333.78 436.009  17
   6   3  -1 7289.57 467.657  16
   6   3   0 2873.08 269.305  17
   6  -3   0 2973.77 253.762  17
   6   3   0 2726.83 276.462  16
   6   3   1 1370.45 191.466  16
   6   3   1 1688.28 195.120  17
   6  -3   1 1519.37 180.543  17
   6  -3   2 2137.83 201.154  17
   6   3   2 1962.96 215.278  16
  -6  -4   6 1624.18 179.847  23
   6  -4  -6 1655.98 179.854  31
   6   4  -6 1931.71 206.037  16
  -6  -4   5 5060.43 345.931  23
   6  -4  -5 6005.57 349.286  31
   6   4  -5 5126.80 363.108  16
   6  -4  -4 739.167 148.518  31
   6   4  -4 549.685 135.447  16
   6  -4  -3 205.813 90.2998  31
   6   4  -3 189.607 93.8853  16
   6   4  -2 877.680 162.297  16
   6  -4  -2 601.573 117.211  31
   6   4  -1 280.059 106.206  16
   6   4   0 2988.32 281.564  16
   6   4   1 684.376 135.265  16
   6  -5  -4 186.682 88.4079  31
   6   5  -4 135.510 85.8655  16
   6  -5  -3 1977.59 184.775  31
   6   5  -3 2122.39 226.374  16
   6   5  -2 296.447 101.343  16
   6   5  -1 951.698 158.375  16
   0   0   0    0.00    0.00   0
TITL KUM-13 in P2(1)/m
REM P2(1)/m (#11 in standard setting)
CELL 1.54184   5.316494  10.509826  13.620053  90.0000  98.5270  90.0000
ZERR    2.00   0.000262   0.000396   0.000660   0.0000   0.0045   0.0000
LATT  1
SYMM -x, y+1/2,-z
SFAC C H N O Cl
UNIT 40.00 28.00 2.00 2.00 2.00
TREF
HKLF 4
END
;
_shelx_hkl_checksum              11473
_shelx_res_file
;
TITL kum13
CELL 1.54184 5.3165 10.5098 13.6201 90.0 98.527 90.0
ZERR 2 0.0003 0.0004 0.0007 0 0.005 0
LATT -1
SYMM -X,0.5+Y,-Z
SFAC C H N O Cl
UNIT 40 28 2 2 2
OMIT -2 180.0
L.S. 20
PLAN  20
ACTA
BOND $H
CONF
HTAB
TEMP -100
SIZE 0.34 0.10 0.08
fmap 2
MPLA N1 C2 C3 C4 C4A C5 C6 C7 C8 C8A
MPLA C31 C32 C33 C34 C34A C35 C36 C37 C38 C38A
WGHT    0.057900
FVAR       9.42361
N1    3    0.167753    0.855149    0.363075    11.00000    0.03060    0.02949 =
         0.03630   -0.00154    0.00223    0.00354
C2    1    0.308709    0.845685    0.293944    11.00000    0.02977    0.02700 =
         0.03127    0.00065   -0.00163   -0.00020
CL2   5    0.250666    0.958540    0.198259    11.00000    0.04293    0.03587 =
         0.04174    0.00915    0.00478    0.00786
C3    1    0.502452    0.753868    0.287529    11.00000    0.02590    0.02787 =
         0.03185   -0.00417   -0.00106   -0.00184
C4    1    0.541985    0.667998    0.363640    11.00000    0.02760    0.02812 =
         0.03652   -0.00355    0.00162    0.00360
AFIX  43
H4    2    0.670068    0.604890    0.364053    11.00000   -1.20000
AFIX   0
C4A   1    0.394332    0.672142    0.441682    11.00000    0.02680    0.02671 =
         0.03554   -0.00445    0.00073   -0.00196
C5    1    0.422033    0.584154    0.521003    11.00000    0.03764    0.03296 =
         0.04030    0.00249    0.00291    0.00400
AFIX  43
H5    2    0.549405    0.520248    0.524421    11.00000   -1.20000
AFIX   0
C6    1    0.268560    0.589666    0.592708    11.00000    0.04072    0.03893 =
         0.03688    0.00530    0.00234   -0.00424
AFIX  43
H6    2    0.286270    0.528429    0.644580    11.00000   -1.20000
AFIX   0
C7    1    0.083512    0.686292    0.589859    11.00000    0.03456    0.04931 =
         0.03558   -0.00269    0.00904   -0.00248
AFIX  43
H7    2   -0.021625    0.690281    0.640416    11.00000   -1.20000
AFIX   0
C8    1    0.053895    0.774211    0.515147    11.00000    0.03206    0.03934 =
         0.04096   -0.00378    0.00501    0.00342
AFIX  43
H8    2   -0.069775    0.839562    0.514544    11.00000   -1.20000
AFIX   0
C8A   1    0.206269    0.768230    0.438979    11.00000    0.02648    0.02863 =
         0.03390   -0.00462    0.00058   -0.00173
C37A  1    0.643990    0.751444    0.200407    11.00000    0.02869    0.02846 =
         0.03476    0.00097    0.00236    0.00133
AFIX  23
H37A  2    0.523826    0.739456    0.138260    11.00000   -1.20000
H37B  2    0.735126    0.832879    0.195833    11.00000   -1.20000
AFIX   0
O31   4    0.820823    0.648677    0.213917    11.00000    0.03631    0.03320 =
         0.03195    0.00218    0.00781    0.00744
C31   1    0.956338    0.624883    0.138111    11.00000    0.02813    0.03076 =
         0.03132   -0.00241    0.00532   -0.00434
C32   1    0.929316    0.690843    0.050580    11.00000    0.03273    0.03485 =
         0.03307   -0.00052    0.00269    0.00001
AFIX  43
H32   2    0.808082    0.757620    0.039121    11.00000   -1.20000
AFIX   0
C33   1    1.081511    0.659876   -0.022987    11.00000    0.03864    0.03975 =
         0.02868    0.00063    0.00314   -0.00828
AFIX  43
H33   2    1.057914    0.704697   -0.084236    11.00000   -1.20000
AFIX   0
C34   1    1.260598    0.567122   -0.007312    11.00000    0.03651    0.04155 =
         0.03480   -0.00872    0.00946   -0.00833
AFIX  43
H34   2    1.364959    0.549581   -0.056579    11.00000   -1.20000
AFIX   0
C34A  1    1.292656    0.496170    0.082425    11.00000    0.02900    0.03156 =
         0.03549   -0.00880    0.00236   -0.00611
C35   1    1.479492    0.399748    0.102838    11.00000    0.02982    0.03731 =
         0.04661   -0.01078    0.00955   -0.00111
AFIX  43
H35   2    1.587311    0.381191    0.054970    11.00000   -1.20000
AFIX   0
C36   1    1.507808    0.333354    0.189216    11.00000    0.03132    0.03576 =
         0.05707   -0.00272    0.00332    0.00442
AFIX  43
H36   2    1.633635    0.268708    0.200667    11.00000   -1.20000
AFIX   0
C37   1    1.352236    0.359371    0.262196    11.00000    0.03576    0.03656 =
         0.04235    0.00578    0.00229    0.00075
AFIX  43
H37   2    1.373920    0.312702    0.322596    11.00000   -1.20000
AFIX   0
C38   1    1.169165    0.452463    0.245643    11.00000    0.03014    0.03238 =
         0.03674   -0.00151    0.00630   -0.00148
AFIX  43
H38   2    1.062817    0.469034    0.294407    11.00000   -1.20000
AFIX   0
C38A  1    1.137884    0.523821    0.156499    11.00000    0.02592    0.02697 =
         0.03265   -0.00393    0.00126   -0.00434
HKLF 4
REM  kum13
REM R1 =  0.0332 for    1938 Fo > 4sig(Fo)  and  0.0344 for all    2014 data
REM    208 parameters refined using      1 restraints
END
WGHT      0.0579      0.0000
REM No hydrogen bonds found for HTAB generation
REM Highest difference peak  0.217,  deepest hole -0.194,  1-sigma level  0.043
Q1    1   0.0800  0.9750  0.1602  11.00000  0.05    0.22
Q2    1   0.4034  0.9698  0.2415  11.00000  0.05    0.19
Q3    1   1.3587  0.4491  0.2799  11.00000  0.05    0.15
Q4    1  -0.0080  0.9229  0.0822  11.00000  0.05    0.15
Q5    1   1.3754  0.2043  0.1317  11.00000  0.05    0.15
Q6    1   0.3989  0.6921  0.1299  11.00000  0.05    0.14
Q7    1   1.1012  0.4588  0.1933  11.00000  0.05    0.14
Q8    1   0.2413  0.8954  0.2475  11.00000  0.05    0.13
Q9    1   0.3703  0.7817  0.2631  11.00000  0.05    0.13
Q10   1   0.2431  0.6985  0.4191  11.00000  0.05    0.13
Q11   1  -0.0414  0.7674  0.3013  11.00000  0.05    0.13
Q12   1   0.4985  0.6917  0.4198  11.00000  0.05    0.13
Q13   1   0.3485  0.7410  0.4584  11.00000  0.05    0.13
Q14   1   1.4529  0.3743  0.2353  11.00000  0.05    0.13
Q15   1   0.1147  0.7585  0.4783  11.00000  0.05    0.13
Q16   1  -0.0524  0.5540  0.4941  11.00000  0.05    0.13
Q17   1   0.1272  0.7517  0.5606  11.00000  0.05    0.13
Q18   1   1.0320  0.5592  0.1435  11.00000  0.05    0.12
Q19   1   0.4702  0.8196  0.3140  11.00000  0.05    0.12
Q20   1   1.2171  0.5206  0.2109  11.00000  0.05    0.12
;
_shelx_res_checksum              22202
_shelxl_version_number           2.014
loop_
_space_group_symop_operation_xyz
'x, y, z'
'-x, y+1/2, -z'
loop_
_atom_site_type_symbol
_atom_site_label
_atom_site_fract_x
_atom_site_fract_y
_atom_site_fract_z
_atom_site_U_iso_or_equiv
_atom_site_adp_type
_atom_site_calc_flag
_atom_site_occupancy
N N1 0.1678(4) 0.8551(2) 0.36307(18) 0.0324(5) Uani d 1
C C2 0.3087(5) 0.8457(3) 0.29394(19) 0.0300(5) Uani d 1
Cl Cl2 0.25067(12) 0.95854(7) 0.19826(5) 0.04033(19) Uani d 1
C C3 0.5025(5) 0.7539(2) 0.28753(19) 0.0291(5) Uani d 1
C C4 0.5420(5) 0.6680(3) 0.3636(2) 0.0311(5) Uani d 1
H H4 0.6701 0.6049 0.3641 0.037 Uiso calc 1
C C4A 0.3943(5) 0.6721(3) 0.4417(2) 0.0301(5) Uani d 1
C C5 0.4220(6) 0.5842(3) 0.5210(2) 0.0373(6) Uani d 1
H H5 0.5494 0.5202 0.5244 0.045 Uiso calc 1
C C6 0.2686(6) 0.5897(3) 0.5927(2) 0.0392(6) Uani d 1
H H6 0.2863 0.5284 0.6446 0.047 Uiso calc 1
C C7 0.0835(5) 0.6863(3) 0.5899(2) 0.0394(6) Uani d 1
H H7 -0.0216 0.6903 0.6404 0.047 Uiso calc 1
C C8 0.0539(5) 0.7742(3) 0.5151(2) 0.0375(6) Uani d 1
H H8 -0.0698 0.8396 0.5145 0.045 Uiso calc 1
C C8A 0.2063(5) 0.7682(2) 0.4390(2) 0.0301(5) Uani d 1
C C37A 0.6440(5) 0.7514(3) 0.20041(19) 0.0309(5) Uani d 1
H H37A 0.5238 0.7395 0.1383 0.037 Uiso calc 1
H H37B 0.7351 0.8329 0.1958 0.037 Uiso calc 1
O O31 0.8208(4) 0.64868(19) 0.21392(13) 0.0335(4) Uani d 1
C C31 0.9563(5) 0.6249(3) 0.13811(19) 0.0300(5) Uani d 1
C C32 0.9293(5) 0.6908(3) 0.0506(2) 0.0338(6) Uani d 1
H H32 0.8081 0.7576 0.0391 0.041 Uiso calc 1
C C33 1.0815(5) 0.6599(3) -0.0230(2) 0.0359(6) Uani d 1
H H33 1.0579 0.7047 -0.0842 0.043 Uiso calc 1
C C34 1.2606(5) 0.5671(3) -0.0073(2) 0.0372(6) Uani d 1
H H34 1.3650 0.5496 -0.0566 0.045 Uiso calc 1
C C34A 1.2927(5) 0.4962(2) 0.0824(2) 0.0323(6) Uani d 1
C C35 1.4795(5) 0.3997(3) 0.1028(2) 0.0375(6) Uani d 1
H H35 1.5873 0.3812 0.0550 0.045 Uiso calc 1
C C36 1.5078(5) 0.3334(3) 0.1892(2) 0.0417(7) Uani d 1
H H36 1.6336 0.2687 0.2007 0.050 Uiso calc 1
C C37 1.3522(5) 0.3594(3) 0.2622(2) 0.0386(6) Uani d 1
H H37 1.3739 0.3127 0.3226 0.046 Uiso calc 1
C C38 1.1692(5) 0.4525(3) 0.24564(19) 0.0329(5) Uani d 1
H H38 1.0628 0.4690 0.2944 0.040 Uiso calc 1
C C38A 1.1379(5) 0.5238(2) 0.1565(2) 0.0288(5) Uani d 1
loop_
_atom_site_aniso_label
_atom_site_aniso_U_11
_atom_site_aniso_U_22
_atom_site_aniso_U_33
_atom_site_aniso_U_12
_atom_site_aniso_U_13
_atom_site_aniso_U_23
N1 0.0306(11) 0.0295(11) 0.0363(11) 0.0035(9) 0.0022(9) -0.0015(9)
C2 0.0298(12) 0.0270(12) 0.0313(13) -0.0002(10) -0.0016(10) 0.0006(10)
Cl2 0.0429(3) 0.0359(3) 0.0417(3) 0.0079(3) 0.0048(2) 0.0091(3)
C3 0.0259(12) 0.0279(12) 0.0319(12) -0.0018(10) -0.0011(10) -0.0042(10)
C4 0.0276(12) 0.0281(12) 0.0365(13) 0.0036(10) 0.0016(10) -0.0036(11)
C4A 0.0268(11) 0.0267(12) 0.0355(13) -0.0020(10) 0.0007(10) -0.0045(10)
C5 0.0376(13) 0.0330(14) 0.0403(14) 0.0040(11) 0.0029(11) 0.0025(11)
C6 0.0407(15) 0.0389(16) 0.0369(14) -0.0042(13) 0.0023(12) 0.0053(12)
C7 0.0346(14) 0.0493(17) 0.0356(14) -0.0025(13) 0.0090(11) -0.0027(12)
C8 0.0321(14) 0.0393(15) 0.0410(15) 0.0034(12) 0.0050(11) -0.0038(12)
C8A 0.0265(11) 0.0286(12) 0.0339(13) -0.0017(10) 0.0006(10) -0.0046(10)
C37A 0.0287(12) 0.0285(12) 0.0348(13) 0.0013(10) 0.0024(10) 0.0010(10)
O31 0.0363(9) 0.0332(10) 0.0320(9) 0.0074(8) 0.0078(7) 0.0022(7)
C31 0.0281(12) 0.0308(12) 0.0313(12) -0.0043(10) 0.0053(10) -0.0024(10)
C32 0.0327(13) 0.0349(14) 0.0331(13) 0.0000(11) 0.0027(10) -0.0005(11)
C33 0.0386(14) 0.0397(15) 0.0287(13) -0.0083(12) 0.0031(11) 0.0006(11)
C34 0.0365(14) 0.0416(15) 0.0348(14) -0.0083(12) 0.0095(11) -0.0087(12)
C34A 0.0290(12) 0.0316(14) 0.0355(13) -0.0061(10) 0.0024(10) -0.0088(10)
C35 0.0298(13) 0.0373(14) 0.0466(15) -0.0011(11) 0.0095(11) -0.0108(12)
C36 0.0313(14) 0.0358(15) 0.0571(18) 0.0044(12) 0.0033(13) -0.0027(13)
C37 0.0358(14) 0.0366(14) 0.0423(15) 0.0008(12) 0.0023(12) 0.0058(13)
C38 0.0301(11) 0.0324(13) 0.0367(12) -0.0015(12) 0.0063(10) -0.0015(13)
C38A 0.0259(11) 0.0270(12) 0.0327(12) -0.0043(9) 0.0013(10) -0.0039(10)
loop_
_atom_type_symbol
_atom_type_description
_atom_type_scat_dispersion_real
_atom_type_scat_dispersion_imag
_atom_type_scat_source
C C 0.0181 0.0091 'International Tables Vol C Tables 4.2.6.8 and 6.1.1.4'
H H 0.0000 0.0000 'International Tables Vol C Tables 4.2.6.8 and 6.1.1.4'
N N 0.0311 0.0180 'International Tables Vol C Tables 4.2.6.8 and 6.1.1.4'
O O 0.0492 0.0322 'International Tables Vol C Tables 4.2.6.8 and 6.1.1.4'
Cl Cl 0.3639 0.7018 'International Tables Vol C Tables 4.2.6.8 and 6.1.1.4'
loop_
_geom_angle_atom_site_label_1
_geom_angle_atom_site_label_2
_geom_angle_atom_site_label_3
_geom_angle
C2 N1 C8A 117.4(2)
N1 C2 C3 126.9(2)
N1 C2 Cl2 115.61(19)
C3 C2 Cl2 117.5(2)
C4 C3 C2 115.6(2)
C4 C3 C37A 123.4(2)
C2 C3 C37A 120.9(2)
C3 C4 C4A 120.7(2)
C3 C4 H4 119.7
C4A C4 H4 119.7
C4 C4A C5 123.3(2)
C4 C4A C8A 118.1(2)
C5 C4A C8A 118.6(2)
C6 C5 C4A 120.9(3)
C6 C5 H5 119.5
C4A C5 H5 119.5
C5 C6 C7 120.0(3)
C5 C6 H6 120.0
C7 C6 H6 120.0
C8 C7 C6 120.7(3)
C8 C7 H7 119.7
C6 C7 H7 119.7
C7 C8 C8A 120.2(3)
C7 C8 H8 119.9
C8A C8 H8 119.9
N1 C8A C8 119.2(2)
N1 C8A C4A 121.3(2)
C8 C8A C4A 119.5(2)
O31 C37A C3 108.1(2)
O31 C37A H37A 110.1
C3 C37A H37A 110.1
O31 C37A H37B 110.1
C3 C37A H37B 110.1
H37A C37A H37B 108.4
C31 O31 C37A 116.9(2)
O31 C31 C32 124.5(2)
O31 C31 C38A 114.9(2)
C32 C31 C38A 120.6(2)
C31 C32 C33 120.2(3)
C31 C32 H32 119.9
C33 C32 H32 119.9
C34 C33 C32 121.0(3)
C34 C33 H33 119.5
C32 C33 H33 119.5
C33 C34 C34A 120.3(2)
C33 C34 H34 119.9
C34A C34 H34 119.9
C35 C34A C34 122.4(3)
C35 C34A C38A 118.0(3)
C34 C34A C38A 119.6(3)
C36 C35 C34A 121.5(3)
C36 C35 H35 119.3
C34A C35 H35 119.3
C35 C36 C37 120.7(3)
C35 C36 H36 119.7
C37 C36 H36 119.7
C38 C37 C36 119.8(3)
C38 C37 H37 120.1
C36 C37 H37 120.1
C37 C38 C38A 120.5(2)
C37 C38 H38 119.7
C38A C38 H38 119.7
C38 C38A C34A 119.5(2)
C38 C38A C31 122.2(2)
C34A C38A C31 118.2(2)
loop_
_geom_bond_atom_site_label_1
_geom_bond_atom_site_label_2
_geom_bond_distance
N1 C2 1.291(3)
N1 C8A 1.372(3)
C2 C3 1.424(4)
C2 Cl2 1.755(3)
C3 C4 1.367(4)
C3 C37A 1.497(3)
C4 C4A 1.413(3)
C4 H4 0.9500
C4A C5 1.413(4)
C4A C8A 1.418(4)
C5 C6 1.364(4)
C5 H5 0.9500
C6 C7 1.410(4)
C6 H6 0.9500
C7 C8 1.366(4)
C7 H7 0.9500
C8 C8A 1.409(4)
C8 H8 0.9500
C37A O31 1.426(3)
C37A H37A 0.9900
C37A H37B 0.9900
O31 C31 1.367(3)
C31 C32 1.368(4)
C31 C38A 1.432(4)
C32 C33 1.416(4)
C32 H32 0.9500
C33 C34 1.357(5)
C33 H33 0.9500
C34 C34A 1.420(4)
C34 H34 0.9500
C34A C35 1.417(4)
C34A C38A 1.423(4)
C35 C36 1.357(4)
C35 H35 0.9500
C36 C37 1.411(4)
C36 H36 0.9500
C37 C38 1.375(4)
C37 H37 0.9500
C38 C38A 1.416(4)
C38 H38 0.9500
loop_
_geom_hbond_atom_site_label_D
_geom_hbond_atom_site_label_H
_geom_hbond_atom_site_label_A
_geom_hbond_site_symmetry_A
_geom_hbond_distance_DH
_geom_hbond_distance_HA
_geom_hbond_distance_DA
_geom_hbond_angle_DHA
_geom_hbond_publ_flag
C37A H37A Cg3 1_455 0.99 2.74 3.552(3) 139 no
loop_
_geom_torsion_atom_site_label_1
_geom_torsion_atom_site_label_2
_geom_torsion_atom_site_label_3
_geom_torsion_atom_site_label_4
_geom_torsion
C8A N1 C2 C3 0.0(4)
C8A N1 C2 Cl2 179.65(19)
N1 C2 C3 C4 -0.5(4)
Cl2 C2 C3 C4 179.83(19)
N1 C2 C3 C37A 177.5(2)
Cl2 C2 C3 C37A -2.1(3)
C2 C3 C4 C4A 0.7(4)
C37A C3 C4 C4A -177.3(2)
C3 C4 C4A C5 178.4(3)
C3 C4 C4A C8A -0.5(4)
C4 C4A C5 C6 -177.7(3)
C8A C4A C5 C6 1.2(4)
C4A C5 C6 C7 -1.7(4)
C5 C6 C7 C8 0.7(5)
C6 C7 C8 C8A 0.9(4)
C2 N1 C8A C8 -179.1(2)
C2 N1 C8A C4A 0.3(4)
C7 C8 C8A N1 178.0(3)
C7 C8 C8A C4A -1.4(4)
C4 C4A C8A N1 -0.1(4)
C5 C4A C8A N1 -179.0(2)
C4 C4A C8A C8 179.3(2)
C5 C4A C8A C8 0.4(4)
C4 C3 C37A O31 -1.1(3)
C2 C3 C37A O31 -179.0(2)
C3 C37A O31 C31 175.4(2)
C37A O31 C31 C32 -1.4(4)
C37A O31 C31 C38A 177.9(2)
O31 C31 C32 C33 179.2(3)
C38A C31 C32 C33 -0.1(4)
C31 C32 C33 C34 -1.7(4)
C32 C33 C34 C34A 2.1(4)
C33 C34 C34A C35 -179.0(2)
C33 C34 C34A C38A -0.7(4)
C34 C34A C35 C36 179.7(3)
C38A C34A C35 C36 1.4(4)
C34A C35 C36 C37 -0.6(4)
C35 C36 C37 C38 0.3(4)
C36 C37 C38 C38A -0.9(4)
C37 C38 C38A C34A 1.8(4)
C37 C38 C38A C31 -177.5(2)
C35 C34A C38A C38 -2.0(4)
C34 C34A C38A C38 179.6(2)
C35 C34A C38A C31 177.3(2)
C34 C34A C38A C31 -1.0(3)
O31 C31 C38A C38 1.4(3)
C32 C31 C38A C38 -179.2(2)
O31 C31 C38A C34A -177.9(2)
C32 C31 C38A C34A 1.4(3)

_cod_database_fobs_code 2240589
