#------------------------------------------------------------------------------
#$Date: 2016-02-21 11:56:54 +0200 (Sun, 21 Feb 2016) $
#$Revision: 176809 $
#$URL: svn://www.crystallography.net/cod/cif/2/24/03/2240309.cif $
#------------------------------------------------------------------------------
#
# This file is available in the Crystallography Open Database (COD),
# http://www.crystallography.net/. The original data for this entry
# were provided by IUCr Journals, http://journals.iucr.org/.
#
# The file may be used within the scientific community so long as
# proper attribution is given to the journal article from which the
# data were obtained.
#
data_2240309
loop_
_publ_author_name
'Gotoh, Kazuma'
'Ishida, Hiroyuki'
_publ_section_title
;
 Crystal structures of isoquinoline--3-chloro-2-nitrobenzoic acid (1/1)
 and isoquinolinium 4-chloro-2-nitrobenzoate
;
_journal_issue                   1
_journal_name_full               'Acta Crystallographica Section E'
_journal_page_first              31
_journal_page_last               34
_journal_paper_doi               10.1107/S2056989014026152
_journal_volume                  71
_journal_year                    2015
_chemical_formula_iupac          'C9 H8 N +, C7 H3 Cl N O4 -'
_chemical_formula_moiety         'C9 H8 N +, C7 H3 Cl N O4 -'
_chemical_formula_sum            'C16 H11 Cl N2 O4'
_chemical_formula_weight         330.73
_chemical_name_systematic
;
Isoquinolinium 4-chloro-2-nitrobenzoate
;
_space_group_IT_number           2
_symmetry_cell_setting           triclinic
_symmetry_space_group_name_Hall  '-P 1'
_symmetry_space_group_name_H-M   'P -1'
_atom_sites_solution_hydrogens   mixed
_cell_angle_alpha                74.8360(11)
_cell_angle_beta                 80.1736(10)
_cell_angle_gamma                80.3642(13)
_cell_formula_units_Z            2
_cell_length_a                   7.5916(3)
_cell_length_b                   7.7607(3)
_cell_length_c                   13.0456(4)
_cell_measurement_reflns_used    17960
_cell_measurement_temperature    190(2)
_cell_measurement_theta_max      30.11
_cell_measurement_theta_min      3.00
_cell_volume                     724.84(5)
_computing_cell_refinement
;
<i>PROCESS-AUTO</i> (Rigaku/MSC, 2004)
;
_computing_data_collection
;
<i>PROCESS-AUTO</i> (Rigaku/MSC, 2004)
;
_computing_data_reduction
;
CrystalStructure (Rigaku, 2010)
;
_computing_molecular_graphics
;
ORTEP-3 for Windows (Farrugia, 2012)
;
_computing_publication_material
;
CrystalStructure (Rigaku, 2010) and PLATON (Spek, 2009)
;
_computing_structure_refinement
;
SHELXL2014 (Sheldrick, 2008)
;
_computing_structure_solution
;
SHELXS97 (Sheldrick, 2008)
;
_diffrn_ambient_temperature      190(2)
_diffrn_detector_area_resol_mean 10.000
_diffrn_measured_fraction_theta_full 0.996
_diffrn_measured_fraction_theta_max 0.996
_diffrn_measurement_device_type  'Rigaku R-AXIS RAPIDII'
_diffrn_measurement_method       \w
_diffrn_radiation_type           'Mo K\a'
_diffrn_radiation_wavelength     0.71075
_diffrn_reflns_av_R_equivalents  0.0238
_diffrn_reflns_limit_h_max       10
_diffrn_reflns_limit_h_min       -10
_diffrn_reflns_limit_k_max       10
_diffrn_reflns_limit_k_min       -10
_diffrn_reflns_limit_l_max       18
_diffrn_reflns_limit_l_min       -18
_diffrn_reflns_number            21510
_diffrn_reflns_theta_full        30.03
_diffrn_reflns_theta_max         30.03
_diffrn_standards_number         0
_exptl_absorpt_coefficient_mu    0.286
_exptl_absorpt_correction_T_max  0.936
_exptl_absorpt_correction_T_min  0.903
_exptl_absorpt_correction_type   numerical
_exptl_absorpt_process_details
;
(NUMABS; Higashi, 1999)
;
_exptl_crystal_colour            colorless
_exptl_crystal_density_diffrn    1.515
_exptl_crystal_density_method    'not measured'
_exptl_crystal_description       block
_exptl_crystal_F_000             340.00
_exptl_crystal_size_max          0.390
_exptl_crystal_size_mid          0.320
_exptl_crystal_size_min          0.230
_refine_diff_density_max         0.415
_refine_diff_density_min         -0.161
_refine_ls_extinction_method     none
_refine_ls_goodness_of_fit_ref   1.074
_refine_ls_hydrogen_treatment    mixed
_refine_ls_matrix_type           full
_refine_ls_number_parameters     212
_refine_ls_number_reflns         4224
_refine_ls_number_restraints     0
_refine_ls_restrained_S_all      1.074
_refine_ls_R_factor_all          0.0455
_refine_ls_R_factor_gt           0.0392
_refine_ls_shift/su_max          0.001
_refine_ls_shift/su_mean         0.000
_refine_ls_structure_factor_coef Fsqd
_refine_ls_weighting_details
'w=1/[\s^2^(Fo^2^)+(0.0699P)^2^+0.1260P] where P=(Fo^2^+2Fc^2^)/3'
_refine_ls_weighting_scheme      calc
_refine_ls_wR_factor_gt          0.1122
_refine_ls_wR_factor_ref         0.1171
_reflns_number_gt                3559
_reflns_number_total             4224
_reflns_threshold_expression     I>2\s(I)
_cod_data_source_file            lh5740sup1.cf
_cod_data_source_block           II
_cod_original_cell_volume        724.84(4)
_cod_database_code               2240309
_cod_database_fobs_code          2240309
#BEGIN Tags that were not found in dictionaries:
_shelx_hkl_file
;
   0   0   2   11.13    0.66
   0   0  -2   10.67    0.68
   0   0  -2    9.29    0.89
   0   0   3  173.94    3.87
   0   0   3  132.54    2.08
   0   0  -3  162.63    2.74
   0   0  -3  161.25    2.36
   0   0  -3  163.97    3.18
   0   0   4  399.31    6.78
   0   0   4  409.37    6.02
   0   0  -4  413.57    5.85
   0   0  -4  408.27    6.39
   0   0  -4  402.13    6.93
   0   0   5 1364.88   21.94
   0   0   5 1330.10   23.35
   0   0  -5 1311.75   20.91
   0   0  -5 1446.63   25.21
   0   0  -5 1354.65   23.94
   0   0   6 1804.98   29.77
   0   0   6 1818.75   33.31
   0   0  -6 1949.84   32.20
   0   0  -6 1823.98   33.75
   0   0  -6 1825.64   32.15
   0   0   7  215.90    4.92
   0   0   7  201.03    3.26
   0   0  -7  210.87    3.45
   0   0  -7  213.27    6.12
   0   0  -7  226.93    5.15
   0   0   8  126.62    2.24
   0   0   8  112.93    4.86
   0   0  -8  117.38    2.61
   0   0  -8  112.53    3.58
   0   0  -8  112.20    2.83
   0   0   9   10.80    1.33
   0   0   9   11.94    0.68
   0   0   9   11.42    1.91
   0   0  -9   12.18    3.04
   0   0  -9    9.69    1.26
   0   0  -9   10.96    1.11
   0   0  10  702.18   11.92
   0   0  10  725.30   17.09
   0   0  10  701.65   14.65
   0   0 -10  730.99   15.02
   0   0 -10  733.24   12.48
   0   0 -10  705.68   15.05
   0   0  11   11.04    1.53
   0   0  11   11.62    1.07
   0   0  11   14.97    2.34
   0   0 -11   10.45    2.33
   0   0 -11   11.37    1.51
   0   0 -11   12.76    0.75
   0   0  12   14.00    1.67
   0   0  12   12.48    2.66
   0   0  12   12.39    1.07
   0   0 -12   14.93    1.62
   0   0 -12   15.65    2.62
   0   0 -12   12.74    1.17
   0   0  13  225.90    7.46
   0   0  13  197.86    3.41
   0   0  13  207.33    6.79
   0   0 -13  221.40    6.87
   0   0 -13  203.71    3.92
   0   0 -13  215.95    7.33
   0   0  14    0.69    2.27
   0   0  14    1.06    1.29
   0   0 -14    0.72    1.23
   0   0 -14    0.79    3.55
   0   0  15    1.02    1.47
   0   0 -15    1.47    2.34
   0   0 -15    0.16    2.21
   0   0 -15    0.09    1.28
   0   0  16    0.20    1.41
   0   0 -16   -0.36    2.14
   0   0 -16   -0.33    3.77
   0   0 -16   -0.09    2.38
   0   0  17   85.21    5.86
   0   0 -17   85.55    6.07
   0   0 -17   88.34    6.27
   0   0 -17   84.13    5.67
   0   1 -17    4.29    5.69
   0  -1  17    1.45    3.25
   0   1 -16   -0.29    2.52
   0  -1  16    0.42    2.68
   0   1 -15  112.02    3.90
   0   1 -15  120.86    6.58
   0  -1  15  128.06    9.60
   0  -1  15  115.50    4.01
   0   1 -14   79.26    2.97
   0   1 -14   82.72    7.54
   0  -1  14   92.22    5.22
   0  -1  14   76.42    2.31
   0  -1  14   82.97    3.08
   0   1 -13   10.37    2.72
   0   1 -13    8.39    2.22
   0   1 -13    9.26    1.13
   0  -1  13   10.36    1.51
   0  -1  13    8.81    2.88
   0  -1  13    9.59    1.64
   0   1 -12    6.40    1.22
   0   1 -12    3.73    1.60
   0   1 -12    6.03    2.34
   0  -1  12    5.99    2.36
   0  -1  12    3.82    1.46
   0  -1  12    5.00    1.99
   0   1 -11    6.50    1.66
   0   1 -11    6.81    1.86
   0   1 -11    7.11    3.75
   0  -1  11    6.24    1.90
   0  -1  11    5.27    1.55
   0  -1  11    8.55    2.32
   0   1 -10 1000.33   17.97
   0   1 -10  968.56   17.91
   0   1 -10  957.57   20.35
   0  -1  10  940.92   17.86
   0  -1  10  954.39   18.84
   0  -1  10  980.57   22.73
   0   1  -9  213.86    5.87
   0   1  -9  202.29    5.08
   0   1  -9  212.46    4.32
   0  -1   9  208.18    5.28
   0  -1   9  201.41    4.82
   0  -1   9  216.17    5.84
   0   1  -8 3044.17   59.44
   0   1  -8 3156.84   59.88
   0   1  -8 2937.92   60.56
   0  -1   8 3000.46   61.13
   0  -1   8 3008.61   58.58
   0  -1   8 2951.07   57.21
   0   1  -7   72.99    1.94
   0   1  -7   72.73    2.71
   0   1  -7   72.14    1.78
   0  -1   7   67.63    2.31
   0  -1   7   71.85    1.82
   0  -1   7   68.98    3.86
   0   1  -6  186.14    3.55
   0   1  -6  174.50    3.64
   0   1  -6  166.65    4.13
   0  -1   6  171.79    3.25
   0  -1   6  171.46    3.72
   0  -1   6  172.38    5.30
   0   1  -5  756.97   14.35
   0   1  -5  750.52   15.66
   0  -1   5  999.02   18.88
   0  -1   5  934.71   14.99
   0  -1   5  949.33   16.39
   0   1  -4 3627.38   66.45
   0   1  -4 3626.52   70.49
   0   1  -4 3628.52   68.89
   0  -1   4 3710.15   69.84
   0  -1   4 3334.63   61.64
   0  -1   4 3257.20   58.95
   0   1  -315761.61  376.69
   0   1  -316154.76  375.55
   0   1  -315987.79  378.31
   0  -1   315880.54  377.55
   0  -1   315426.60  364.28
   0  -1   315906.52  367.74
   0   1  -230613.06  800.35
   0   1  -229435.15  781.76
   0   1  -228984.74  771.29
   0  -1   229570.40  788.18
   0  -1   230722.39  805.87
   0  -1   230864.16  822.66
   0   1  -1 5616.92  108.24
   0   1  -1 5740.43  107.71
   0   1  -1 5751.81  110.92
   0  -1   1 5693.14  106.59
   0  -1   1 5664.65  109.97
   0  -1   1 5756.64  110.89
   0   1   2 2044.66   34.77
   0   1   2 2000.63   33.06
   0   1   2 2072.71   32.71
   0  -1  -2 2039.88   33.70
   0  -1  -2 1986.87   33.71
   0  -1  -2 2072.95   32.58
   0   1   3  275.50    4.84
   0   1   3  313.38    4.98
   0  -1  -3  390.17    7.37
   0  -1  -3  386.18    6.99
   0   1   4  241.24    2.76
   0   1   4  257.56    4.54
   0  -1  -4  255.58    4.50
   0  -1  -4  251.58    4.61
   0  -1  -4  262.93    4.69
   0   1   5  164.91    4.03
   0   1   5  119.80    1.38
   0  -1  -5  135.77    3.27
   0  -1  -5  143.26    3.25
   0  -1  -5  155.66    3.24
   0   1   6 2514.42   40.46
   0   1   6 2544.69   48.69
   0  -1  -6 2577.21   48.40
   0  -1  -6 2498.27   47.50
   0  -1  -6 2522.62   48.37
   0   1   7   86.69    2.81
   0  -1  -7  693.25   12.84
   0  -1  -7  709.55   12.59
   0   1   8    2.44    0.95
   0   1   8    0.88    1.23
   0  -1  -8    0.57    0.12
   0  -1  -8    1.15    1.04
   0  -1  -8    0.66    0.86
   0   1   9   26.85    0.46
   0   1   9   27.25    1.78
   0   1   9   29.42    0.48
   0  -1  -9   27.21    1.99
   0  -1  -9   26.83    1.77
   0  -1  -9   26.77    2.16
   0   1  10   24.88    1.84
   0  -1 -10   25.91    2.34
   0  -1 -10   25.54    2.78
   0  -1 -10   24.37    2.18
   0   1  11  179.97    5.10
   0  -1 -11  176.13    5.98
   0  -1 -11  174.58    6.44
   0  -1 -11  181.44    5.72
   0   1  12   26.05    3.35
   0  -1 -12   29.01    2.90
   0  -1 -12   38.04    4.70
   0  -1 -12   31.34    2.22
   0   1  13  149.42    4.61
   0  -1 -13  157.66    7.84
   0  -1 -13  154.52    5.82
   0  -1 -13  155.42    4.76
   0   1  14    6.09    1.86
   0  -1 -14    7.62    2.65
   0  -1 -14    5.33    2.96
   0  -1 -14    8.48    2.83
   0   1  15   31.77    2.76
   0  -1 -15   30.98    3.98
   0  -1 -15   35.96    3.85
   0  -1 -15   30.11    4.13
   0   1  16   49.94    3.49
   0  -1 -16   50.01    3.24
   0  -1 -16   51.06    6.93
   0  -1 -16   46.50    4.90
   0   1  17    4.29    3.43
   0  -1 -17   -0.26    1.61
   0  -1 -17    0.05    2.44
   0  -1 -17    5.13    4.16
   0   2 -16    0.37    2.77
   0  -2  16    3.42    3.44
   0   2 -15   24.90    7.02
   0  -2  15   34.30    4.72
   0   2 -14    1.72    1.22
   0   2 -14    0.87    2.71
   0  -2  14    2.89    2.62
   0  -2  14    0.83    1.08
   0  -2  14    0.73    1.06
   0   2 -13  109.01    5.67
   0   2 -13   99.32    3.94
   0   2 -13  107.86    3.43
   0  -2  13  120.11    5.83
   0  -2  13  101.51    3.10
   0  -2  13   98.84    3.23
   0   2 -12   28.31    2.96
   0   2 -12   28.34    3.40
   0   2 -12   25.04    1.54
   0  -2  12   27.41    3.50
   0  -2  12   25.30    1.81
   0  -2  12   26.52    1.64
   0   2 -11  247.47    9.99
   0   2 -11  255.35    6.98
   0   2 -11  241.73    5.90
   0  -2  11  241.59    5.09
   0  -2  11  246.24    5.60
   0  -2  11  253.76    7.70
   0   2 -10 1194.48   23.03
   0   2 -10 1223.32   29.39
   0   2 -10 1243.34   25.68
   0  -2  10 1182.62   23.00
   0  -2  10 1195.22   23.26
   0  -2  10 1271.06   27.34
   0   2  -9  203.78    8.34
   0   2  -9  191.35    4.78
   0   2  -9  204.28    6.31
   0  -2   9  211.10    6.51
   0  -2   9  196.00    4.92
   0  -2   9  203.08    5.94
   0   2  -8   34.88    2.03
   0   2  -8   40.24    3.18
   0   2  -8   48.79    4.46
   0  -2   8   44.65    2.97
   0  -2   8   29.37    1.82
   0   2  -7  266.93    4.59
   0   2  -7  261.53    6.48
   0   2  -7  285.55    6.97
   0  -2   7  267.32    5.27
   0  -2   7  236.59    5.56
   0  -2   7  275.56    6.68
   0   2  -6 1289.05   24.54
   0   2  -6 1298.61   25.65
   0   2  -6 1287.74   21.60
   0  -2   6 1321.46   25.40
   0  -2   6 1283.39   22.29
   0  -2   6 1311.29   24.91
   0   2  -5  259.54    5.20
   0   2  -5  241.73    6.75
   0   2  -5  259.05    4.08
   0  -2   5  248.80    4.94
   0  -2   5  254.02    4.05
   0  -2   5  255.85    5.53
   0   2  -4   50.55    2.97
   0   2  -4   56.66    1.99
   0   2  -4   52.73    1.13
   0  -2   4   54.12    1.83
   0  -2   4   54.45    1.50
   0  -2   4   53.08    2.12
   0   2  -3   65.99    1.25
   0   2  -3   67.32    2.19
   0  -2   3   55.89    1.42
   0  -2   3   67.23    2.80
   0   2  -222370.64  553.74
   0   2  -221570.12  550.21
   0   2  -221364.05  540.91
   0  -2   221547.97  549.56
   0  -2   221786.35  551.10
   0  -2   221992.99  544.57
   0   2  -1 1952.26   34.45
   0   2  -1 2199.83   39.49
   0  -2   1 2227.37   37.64
   0  -2   1 2204.57   36.82
   0  -2   1 2100.77   37.19
   0  -2   1 2232.97   40.43
   0   2   0   14.88    1.27
   0   2   0   14.59    1.15
   0   2   0   13.57    0.99
   0  -2   0   11.93    0.98
   0  -2   0   11.70    1.04
   0   2   1  896.59   14.84
   0   2   1  963.94   15.58
   0  -2  -1 1239.62   21.13
   0  -2  -1 1064.27   17.63
   0   2   2 4030.28   76.42
   0   2   2 4115.13   76.27
   0   2   2 4066.02   76.75
   0  -2  -2 4002.40   75.74
   0  -2  -2 4043.16   75.78
   0  -2  -2 4099.82   75.67
   0   2   3   27.53    1.19
   0   2   3   31.38    1.50
   0  -2  -3    9.93    1.22
   0  -2  -3   12.95    1.06
   0   2   4 1652.51   30.34
   0   2   4 1631.99   25.96
   0   2   4 1633.69   28.64
   0  -2  -4 1640.47   29.72
   0  -2  -4 1623.27   28.81
   0  -2  -4 1691.54   27.14
   0   2   5 1158.06   20.78
   0   2   5 1153.12   20.22
   0   2   5 1207.80   18.07
   0  -2  -5 1230.66   18.27
   0  -2  -5 1159.10   20.31
   0  -2  -5 1161.46   20.12
   0   2   6  338.88    4.20
   0   2   6  344.48    7.53
   0  -2  -6  328.15    6.27
   0  -2  -6  334.99    6.24
   0  -2  -6  345.13    6.59
   0   2   7  534.86   11.34
   0  -2  -7  536.64   10.25
   0  -2  -7  562.17   10.71
   0  -2  -7  534.27   10.35
   0   2   8  645.54   13.43
   0  -2  -8  656.11   12.39
   0  -2  -8  653.55   12.36
   0  -2  -8  649.51   12.58
   0   2   9  126.03    3.64
   0  -2  -9  129.78    5.01
   0  -2  -9  131.85    4.90
   0  -2  -9  131.56    3.91
   0   2  10  141.18    4.19
   0  -2 -10  143.94    5.61
   0  -2 -10  136.85    4.59
   0  -2 -10  141.92    4.45
   0   2  11  689.13   14.31
   0  -2 -11  684.35   14.21
   0  -2 -11  685.95   14.57
   0  -2 -11  684.12   14.77
   0   2  12   -0.58    2.26
   0  -2 -12    0.03    1.70
   0  -2 -12    1.82    1.47
   0  -2 -12   -0.17    2.94
   0   2  13   -0.43    1.42
   0  -2 -13    0.24    2.75
   0  -2 -13    1.07    1.40
   0  -2 -13   -0.76    1.78
   0   2  14  284.51    7.92
   0  -2 -14  290.88   11.40
   0  -2 -14  283.76    9.18
   0  -2 -14  278.71    7.83
   0   2  15  136.56    5.27
   0  -2 -15  131.58    6.01
   0  -2 -15  128.53    6.24
   0  -2 -15  136.54    6.97
   0   2  16   21.72    2.99
   0  -2 -16   23.20    2.95
   0  -2 -16   27.90    4.04
   0  -2 -16   21.63    3.80
   0   2  17   22.81    3.08
   0  -2 -17   25.09    4.06
   0  -2 -17   22.08    4.25
   0  -2 -17   21.58    3.00
   0   2  18   17.51    4.90
   0  -2 -18   13.65    7.12
   0  -2 -18   13.08    6.80
   0  -2 -18   20.26    3.02
   0   3 -15   -1.01    2.98
   0  -3  15    1.56    5.02
   0   3 -14    5.04    2.95
   0   3 -14    5.11    3.41
   0  -3  14    9.26    3.42
   0  -3  14    4.05    2.76
   0   3 -13    2.17    2.53
   0   3 -13    2.51    2.74
   0  -3  13   -0.44    2.40
   0  -3  13    0.69    1.26
   0   3 -12   10.12    1.67
   0   3 -12    7.80    3.02
   0   3 -12   11.51    4.94
   0  -3  12   10.88    1.15
   0  -3  12   11.95    1.81
   0  -3  12   11.01    3.18
   0   3 -11    8.84    2.96
   0   3 -11    9.87    1.56
   0   3 -11    8.34    4.50
   0  -3  11    9.95    1.65
   0  -3  11    8.45    1.74
   0  -3  11    7.75    4.55
   0   3 -10   91.96    6.79
   0   3 -10   89.64    2.87
   0   3 -10   96.04    4.94
   0  -3  10   88.72    4.64
   0  -3  10   92.58    4.51
   0  -3  10   87.94    2.26
   0   3  -9   33.94    2.38
   0   3  -9   33.83    1.80
   0   3  -9   35.25    3.22
   0  -3   9   32.45    1.87
   0  -3   9   30.64    3.17
   0  -3   9   31.92    2.19
   0   3  -8  140.47    4.59
   0   3  -8  124.71    2.72
   0   3  -8  152.60    5.43
   0  -3   8  125.01    4.34
   0  -3   8  162.06    5.55
   0  -3   8  134.05    3.56
   0   3  -7  109.09    4.05
   0   3  -7  113.65    3.65
   0   3  -7  107.14    2.16
   0  -3   7  109.36    3.97
   0  -3   7  103.12    4.54
   0  -3   7  105.02    2.19
   0   3  -6 1052.13   21.27
   0   3  -6 1100.65   21.15
   0   3  -6 1083.34   18.05
   0  -3   6 1094.14   21.42
   0  -3   6 1075.19   23.73
   0  -3   6 1074.69   18.77
   0   3  -5 2371.94   42.52
   0   3  -5 2244.52   46.62
   0   3  -5 2253.11   44.21
   0  -3   5 2285.15   44.90
   0  -3   5 2356.43   46.36
   0  -3   5 2309.75   41.73
   0   3  -410016.68  231.04
   0   3  -410336.26  226.62
   0   3  -410558.07  243.50
   0  -3   410135.16  221.83
   0  -3   410098.99  236.27
   0  -3   410343.67  237.05
   0   3  -3   13.01    2.39
   0   3  -3   15.30    1.60
   0  -3   3   13.32    0.71
   0  -3   3   13.65    1.46
   0  -3   3   12.62    0.67
   0  -3   3   13.03    1.50
   0   3  -2   19.79    2.54
   0   3  -2   21.35    1.53
   0  -3   2   15.67    1.42
   0  -3   2   23.32    1.20
   0  -3   2   19.00    1.59
   0  -3   2   18.07    0.90
   0   3  -1   31.55    1.66
   0   3  -1   26.30    1.85
   0  -3   1   47.13    1.27
   0  -3   1   56.01    2.28
   0  -3   1   43.95    2.86
   0   3   0 5125.76  107.72
   0   3   0 5271.92  107.66
   0   3   0 5396.66  107.45
   0  -3   0 5279.73  104.96
   0  -3   0 5372.49  108.19
   0  -3   0 5427.56  111.39
   0   3   1 1196.51   20.65
   0   3   1 1188.51   21.33
   0   3   1 1208.51   20.37
   0  -3  -1 1225.66   21.07
   0  -3  -1 1191.01   20.49
   0  -3  -1 1180.48   20.05
   0   3   2  324.64    5.75
   0   3   2  311.75    6.57
   0   3   2  321.83    5.84
   0  -3  -2  315.30    6.63
   0  -3  -2  325.36    5.72
   0  -3  -2  319.59    5.82
   0   3   3  563.07    9.67
   0   3   3  564.10    9.30
   0   3   3  556.90   10.72
   0  -3  -3  568.33    9.28
   0  -3  -3  558.53    9.89
   0  -3  -3  550.87    9.53
   0   3   4  412.73    8.71
   0   3   4  345.08    6.81
   0  -3  -4  434.00    8.46
   0  -3  -4  369.63    7.29
   0   3   5   96.35    2.25
   0   3   5   93.94    2.82
   0   3   5   98.30    2.68
   0  -3  -5  103.68    1.87
   0  -3  -5   98.09    2.94
   0  -3  -5   98.76    2.68
   0   3   6 2713.43   52.21
   0   3   6 2714.70   51.77
   0   3   6 2752.11   48.73
   0  -3  -6 2798.15   49.11
   0  -3  -6 2743.75   52.98
   0  -3  -6 2728.93   53.47
   0   3   7 1203.51   22.99
   0   3   7 1214.15   22.70
   0   3   7 1180.53   18.67
   0  -3  -7 1229.26   19.31
   0  -3  -7 1219.14   23.35
   0  -3  -7 1236.20   24.69
   0   3   8   24.66    2.14
   0  -3  -8   27.62    2.16
   0  -3  -8   30.75    2.54
   0  -3  -8   26.49    2.47
   0   3   9  396.15    8.62
   0  -3  -9  395.62   10.13
   0  -3  -9  400.49    8.52
   0  -3  -9  392.49    8.66
   0   3  10   20.83    2.66
   0  -3 -10   32.55    2.84
   0  -3 -10   27.56    3.12
   0  -3 -10   35.47    2.93
   0   3  11   85.44    3.69
   0  -3 -11   85.79    3.70
   0  -3 -11   87.90    5.46
   0  -3 -11   81.76    3.79
   0   3  12  449.07   12.79
   0  -3 -12  453.83   13.26
   0  -3 -12  437.11   10.89
   0  -3 -12  448.19   12.90
   0   3  13   53.37    3.47
   0  -3 -13   60.69    5.38
   0  -3 -13   55.63    3.91
   0  -3 -13   54.17    6.05
   0   3  14   -0.09    1.49
   0  -3 -14    0.84    2.01
   0  -3 -14    0.02    2.04
   0  -3 -14    1.09    1.74
   0   3  15   17.05    4.50
   0  -3 -15   14.67    5.09
   0  -3 -15   17.75    2.73
   0  -3 -15   13.09    3.38
   0   3  16   40.10    3.69
   0  -3 -16   38.36    3.64
   0  -3 -16   38.57    6.62
   0  -3 -16   35.60    4.42
   0   3  17   -0.15    1.86
   0  -3 -17   -1.14    4.18
   0  -3 -17    1.54    3.20
   0  -3 -17    0.36    2.44
   0   3  18  126.54    6.18
   0  -3 -18  131.49    7.87
   0  -3 -18  131.85    7.50
   0  -3 -18  123.93    8.72
   0   4 -14   59.73    3.78
   0   4 -14   70.88    8.94
   0  -4  14   49.81    5.11
   0  -4  14   74.30    6.03
   0   4 -13   17.17    3.89
   0   4 -13   10.99    2.61
   0  -4  13   13.03    2.35
   0  -4  13   17.23    4.01
   0   4 -12  215.04    8.37
   0   4 -12  218.31    6.86
   0  -4  12  237.16   11.86
   0  -4  12  205.23    6.41
   0   4 -11    7.04    2.15
   0   4 -11    8.33    2.89
   0  -4  11    4.12    3.13
   0  -4  11   10.23    4.72
   0   4 -10   -1.05    2.37
   0   4 -10   -0.39    3.17
   0   4 -10   -0.16    0.87
   0  -4  10    0.80    1.41
   0  -4  10   -0.69    2.05
   0  -4  10    0.44    0.93
   0   4  -9  282.09   11.09
   0   4  -9  277.54    9.78
   0   4  -9  256.89    4.71
   0  -4   9  255.75    5.40
   0  -4   9  288.45    8.52
   0  -4   9  256.86    7.10
   0   4  -8 1382.39   29.65
   0   4  -8 1344.47   29.95
   0  -4   8 1397.33   30.21
   0  -4   8 1290.19   22.87
   0  -4   8 1278.74   27.25
   0   4  -7  921.66   20.22
   0   4  -7  889.69   19.64
   0  -4   7  885.61   15.24
   0  -4   7  850.23   18.92
   0  -4   7  864.31   15.76
   0  -4   7  927.70   19.97
   0   4  -6  178.73    5.64
   0   4  -6  161.38    6.83
   0  -4   6  154.45    2.96
   0  -4   6  159.08    4.77
   0  -4   6  154.28    3.46
   0  -4   6  172.89    7.44
   0   4  -5   90.48    3.62
   0   4  -5   86.90    5.12
   0  -4   5   87.57    2.40
   0  -4   5   89.49    4.80
   0  -4   5   86.71    1.94
   0  -4   5   94.41    3.67
   0   4  -4   19.18    2.03
   0   4  -4   24.56    2.13
   0  -4   4   21.94    0.92
   0  -4   4   22.63    2.12
   0  -4   4   21.59    2.08
   0  -4   4   21.12    0.97
   0   4  -3   33.27    3.53
   0   4  -3   36.31    3.32
   0  -4   3   30.41    1.66
   0  -4   3   30.21    2.14
   0  -4   3   31.59    2.08
   0  -4   3   31.13    1.54
   0   4  -2 1288.73   25.04
   0   4  -2 1243.00   24.22
   0  -4   2 1267.11   26.22
   0  -4   2 1229.11   21.18
   0  -4   2 1260.56   24.75
   0  -4   2 1273.27   22.82
   0   4  -1   39.16    2.21
   0   4  -1   44.14    3.12
   0  -4   1   36.33    1.25
   0  -4   1   39.71    2.12
   0  -4   1   44.09    3.11
   0  -4   1   36.03    1.40
   0   4   0 1666.23   30.35
   0   4   0 1572.44   29.44
   0   4   0 1586.69   29.52
   0  -4   0 1649.67   30.86
   0  -4   0 1626.21   30.16
   0  -4   0 1549.80   28.55
   0   4   1   74.58    2.17
   0   4   1   72.94    2.40
   0   4   1   72.47    2.47
   0  -4  -1   70.73    2.39
   0  -4  -1   71.96    2.42
   0  -4  -1   70.44    2.94
   0   4   2  107.78    2.86
   0   4   2  108.82    3.76
   0   4   2  112.83    2.97
   0  -4  -2  111.56    2.89
   0  -4  -2  112.70    3.02
   0  -4  -2  109.05    3.87
   0   4   3  254.21    5.28
   0   4   3  256.63    5.38
   0   4   3  248.38    4.97
   0  -4  -3  257.87    5.41
   0  -4  -3  252.54    5.35
   0  -4  -3  259.49    5.14
   0   4   4 1689.11   30.42
   0   4   4 1735.90   32.05
   0   4   4 1756.84   32.65
   0  -4  -4 1707.59   31.99
   0  -4  -4 1770.55   31.69
   0  -4  -4 1763.24   32.65
   0   4   5  160.81    5.29
   0   4   5  159.82    3.82
   0   4   5  152.98    3.14
   0  -4  -5  155.36    5.35
   0  -4  -5  158.94    3.86
   0  -4  -5  155.51    3.77
   0   4   6  870.96   14.75
   0   4   6  880.47   16.83
   0   4   6  876.07   16.32
   0  -4  -6  920.42   18.42
   0  -4  -6  878.96   15.27
   0  -4  -6  867.22   18.19
   0   4   7   93.31    4.20
   0   4   7   93.55    1.93
   0   4   7   93.29    4.79
   0  -4  -7  102.50    4.33
   0  -4  -7   91.78    1.83
   0  -4  -7   92.05    4.71
   0   4   8  648.85   13.39
   0   4   8  639.83   10.53
   0   4   8  639.99   13.03
   0  -4  -8  646.46   13.58
   0  -4  -8  663.12   15.01
   0  -4  -8  661.06   10.66
   0   4   9   89.13    1.68
   0   4   9   94.85    3.84
   0  -4  -9   79.18    3.49
   0  -4  -9   95.87    3.56
   0  -4  -9   86.08    3.75
   0   4  10    1.14    1.67
   0  -4 -10    0.23    1.60
   0  -4 -10    0.55    1.45
   0  -4 -10    1.14    1.53
   0   4  11   16.61    2.64
   0  -4 -11   17.62    2.57
   0  -4 -11   15.70    2.53
   0  -4 -11   14.90    2.55
   0   4  12   20.32    2.75
   0  -4 -12   22.27    4.17
   0  -4 -12   16.91    2.75
   0  -4 -12   16.69    4.27
   0   4  13   19.71    4.52
   0  -4 -13   16.21    2.76
   0  -4 -13   19.80    2.83
   0  -4 -13   15.88    2.94
   0   4  14    8.94    2.68
   0  -4 -14    7.91    2.72
   0  -4 -14   10.18    2.65
   0  -4 -14   11.07    2.85
   0   4  15   -2.60    2.44
   0  -4 -15    0.03    2.14
   0  -4 -15    0.77    3.75
   0  -4 -15    1.96    2.22
   0   4  16   15.04    5.09
   0  -4 -16   11.89    5.59
   0  -4 -16   15.56    3.31
   0  -4 -16    0.01    4.87
   0   4  17   50.13    4.63
   0  -4 -17   46.62    6.87
   0  -4 -17   41.16    5.09
   0  -4 -17   51.26    5.02
   0   5 -13    3.50    3.43
   0   5 -13    2.06    2.41
   0  -5  13    1.25    2.02
   0  -5  13    1.57    3.14
   0   5 -12   35.52    5.03
   0   5 -12   38.76    3.75
   0  -5  12   37.05    5.25
   0  -5  12   40.15    4.93
   0   5 -11   69.14    4.35
   0   5 -11   64.45    5.45
   0  -5  11   61.77    4.01
   0  -5  11   74.63    5.47
   0   5 -10  172.55    6.54
   0   5 -10  176.76    7.69
   0  -5  10  169.54    7.52
   0  -5  10  159.04    6.01
   0   5  -9   10.91    4.44
   0   5  -9   10.18    5.14
   0  -5   9   10.44    3.29
   0  -5   9    9.72    0.84
   0  -5   9    9.73    2.49
   0  -5   9    9.43    0.82
   0   5  -8  139.67    5.58
   0   5  -8  144.80    5.95
   0  -5   8  140.48    5.15
   0  -5   8  131.50    2.72
   0  -5   8  146.77    6.01
   0  -5   8  128.90    2.73
   0   5  -7  170.94    5.94
   0   5  -7  164.78    6.17
   0  -5   7  176.31    6.18
   0  -5   7  164.89    5.52
   0  -5   7  159.94    3.18
   0  -5   7  161.80    3.83
   0   5  -6   17.59    4.35
   0   5  -6   20.61    2.75
   0  -5   6   17.51    2.79
   0  -5   6   16.67    3.88
   0  -5   6   16.87    1.58
   0  -5   6   17.73    0.99
   0   5  -5  117.76    4.62
   0   5  -5  116.93    4.47
   0  -5   5  120.52    4.51
   0  -5   5  111.70    2.42
   0  -5   5  112.63    3.18
   0  -5   5  110.30    4.29
   0   5  -4   35.14    4.42
   0   5  -4   33.48    2.70
   0  -5   4   31.05    1.24
   0  -5   4   30.31    1.33
   0  -5   4   30.34    2.65
   0  -5   4   30.51    4.22
   0   5  -3   10.76    2.25
   0   5  -3   12.76    1.95
   0  -5   3   11.31    2.02
   0  -5   3    9.72    1.62
   0  -5   3   12.27    2.04
   0  -5   3   11.56    0.95
   0   5  -2  712.67   14.87
   0   5  -2  694.53   14.26
   0  -5   2  705.45   16.02
   0  -5   2  696.31   14.39
   0  -5   2  683.83   13.19
   0  -5   2  669.68   11.86
   0   5  -1   27.15    2.38
   0   5  -1   28.87    3.38
   0  -5   1   23.75    2.21
   0  -5   1   26.59    2.16
   0  -5   1   25.36    1.93
   0  -5   1   21.60    2.16
   0   5   0    0.67    0.83
   0   5   0   -0.17    1.28
   0   5   0    0.64    1.13
   0  -5   0    1.66    1.22
   0  -5   0   -0.44    1.18
   0  -5   0    0.54    0.85
   0   5   1  338.98    7.76
   0   5   1  342.09    7.57
   0   5   1  333.05    7.18
   0  -5  -1  333.49    7.26
   0  -5  -1  335.83    7.35
   0  -5  -1  335.07    6.81
   0   5   2   24.90    1.72
   0   5   2   29.96    2.99
   0   5   2   25.45    2.94
   0  -5  -2   22.45    3.07
   0  -5  -2   27.37    1.83
   0  -5  -2   28.64    1.76
   0   5   3   27.05    1.89
   0   5   3   28.11    2.78
   0   5   3   25.26    1.86
   0  -5  -3   25.01    1.85
   0  -5  -3   25.91    1.69
   0  -5  -3   22.84    1.92
   0   5   4  223.13    5.28
   0   5   4  223.74    4.96
   0   5   4  226.60    5.23
   0  -5  -4  218.15    4.76
   0  -5  -4  214.88    6.51
   0  -5  -4  218.70    5.23
   0   5   5   25.94    1.61
   0   5   5   29.09    2.14
   0   5   5   27.44    1.94
   0  -5  -5   27.00    3.11
   0  -5  -5   29.83    3.34
   0  -5  -5   28.42    1.52
   0   5   6    0.54    2.14
   0   5   6    1.02    1.32
   0   5   6   -0.11    1.88
   0  -5  -6    0.66    0.73
   0  -5  -6    0.20    1.36
   0  -5  -6    0.81    1.20
   0   5   7  988.22   20.04
   0   5   7  968.33   17.38
   0   5   7  994.73   19.67
   0  -5  -7  986.05   17.35
   0  -5  -7  991.47   20.21
   0  -5  -7  973.30   19.46
   0   5   8   11.15    3.30
   0   5   8   14.57    1.07
   0   5   8   16.23    2.40
   0  -5  -8   15.70    1.00
   0  -5  -8   17.95    2.49
   0  -5  -8   18.61    2.14
   0   5   9  332.08   10.65
   0   5   9  313.30    7.72
   0   5   9  314.06    6.05
   0  -5  -9  317.33    7.83
   0  -5  -9  302.96    5.15
   0  -5  -9  320.02   10.32
   0   5  10   14.89    0.69
   0   5  10   14.06    2.42
   0   5  10   18.90    2.76
   0  -5 -10   15.59    2.67
   0  -5 -10   15.19    0.64
   0   5  11  168.67    6.03
   0  -5 -11  172.01    5.89
   0  -5 -11  163.21    5.98
   0  -5 -11  163.42    6.05
   0   5  12   30.51    3.26
   0  -5 -12   33.90    4.95
   0  -5 -12   31.07    4.85
   0  -5 -12   26.35    3.29
   0   5  13   68.57    6.51
   0  -5 -13   69.76    6.45
   0  -5 -13   68.22    4.13
   0  -5 -13   56.99    6.36
   0   5  14  217.30   10.44
   0  -5 -14  208.36    7.41
   0  -5 -14  201.67   10.26
   0  -5 -14  208.40    7.47
   0   5  15    0.58    2.24
   0  -5 -15    0.98    2.22
   0  -5 -15    0.56    2.22
   0  -5 -15   -0.02    2.34
   0   5  16   79.23    5.44
   0  -5 -16   73.30    5.19
   0  -5 -16   77.12    5.62
   0  -5 -16   72.07    5.51
   0   5  17  305.51   14.61
   0  -5 -17  301.28   11.22
   0  -5 -17  306.98   14.01
   0  -5 -17  305.83   11.01
   0   6 -12   -1.33    2.40
   0   6 -12    0.40    5.11
   0  -6  12   -0.16    1.93
   0  -6  12    1.87    4.28
   0   6 -11   39.98    7.63
   0   6 -11   33.85    4.07
   0  -6  11   37.38    3.84
   0  -6  11   38.86    7.91
   0   6 -10  204.93    8.70
   0   6 -10  200.25   10.48
   0  -6  10  185.86    7.18
   0  -6  10  196.63    8.48
   0   6  -9  144.92    6.56
   0   6  -9  126.81    6.78
   0  -6   9  125.20    5.86
   0  -6   9  133.15    6.86
   0   6  -8   36.81    4.23
   0   6  -8   39.36    3.93
   0  -6   8   37.95    3.69
   0  -6   8   43.63    4.23
   0   6  -7  230.94    8.16
   0   6  -7  233.83   10.44
   0  -6   7  204.46    4.79
   0  -6   7  207.28    4.83
   0  -6   7  238.91    9.76
   0  -6   7  230.25    7.97
   0   6  -6    3.19    2.38
   0   6  -6    3.46    2.39
   0  -6   6    2.70    2.19
   0  -6   6    2.71    1.24
   0  -6   6    3.26    1.32
   0  -6   6    4.51    2.43
   0   6  -5    2.76    2.33
   0   6  -5    4.69    3.85
   0  -6   5    3.27    2.18
   0  -6   5    3.61    0.87
   0  -6   5    0.01    1.30
   0  -6   5    1.92    3.64
   0   6  -4  397.79   12.57
   0   6  -4  391.55   10.60
   0  -6   4  385.34   10.13
   0  -6   4  368.88    7.15
   0  -6   4  373.22    7.94
   0  -6   4  370.93    9.95
   0   6  -3  369.80    9.65
   0   6  -3  359.90   11.45
   0  -6   3  349.16    7.92
   0  -6   3  362.03    9.25
   0  -6   3  354.78    9.03
   0  -6   3  349.81    6.80
   0   6  -2   85.56    4.30
   0   6  -2   81.18    3.82
   0  -6   2   76.38    3.16
   0  -6   2   83.48    3.90
   0  -6   2   75.39    5.58
   0  -6   2   74.85    2.50
   0   6  -1  127.52    5.03
   0   6  -1  123.94    6.20
   0  -6   1  119.20    4.39
   0  -6   1  128.87    4.61
   0  -6   1  120.23    4.11
   0  -6   1  126.30    4.61
   0   6   0    1.57    1.58
   0   6   0    1.88    1.81
   0  -6   0    1.04    1.55
   0  -6   0    0.92    1.58
   0  -6   0    2.21    1.59
   0  -6   0    0.90    1.12
   0   6   1    7.79    1.91
   0   6   1   10.21    3.41
   0   6   1    9.13    1.51
   0  -6  -1    9.20    1.56
   0  -6  -1    7.36    2.10
   0  -6  -1    9.79    1.97
   0   6   2  483.14   12.28
   0   6   2  488.08   11.62
   0   6   2  479.51   12.61
   0  -6  -2  480.96   10.61
   0  -6  -2  455.99   11.19
   0  -6  -2  466.43   10.22
   0   6   3  556.93   13.53
   0   6   3  537.61   11.58
   0   6   3  553.69   11.48
   0  -6  -3  533.84   11.38
   0  -6  -3  545.72   11.37
   0  -6  -3  560.86   11.96
   0   6   4   23.33    2.23
   0   6   4   22.11    3.47
   0   6   4   22.24    3.25
   0  -6  -4   22.60    1.97
   0  -6  -4   25.95    2.35
   0  -6  -4   23.76    2.24
   0   6   5   15.87    3.59
   0   6   5   16.46    2.84
   0   6   5   16.96    2.10
   0  -6  -5   16.47    1.68
   0  -6  -5   13.24    3.48
   0  -6  -5   12.06    3.47
   0   6   6  572.98   12.65
   0   6   6  547.96   11.21
   0   6   6  557.83   13.89
   0  -6  -6  546.91   12.36
   0  -6  -6  546.92   10.94
   0  -6  -6  561.21   12.19
   0   6   7  425.13   10.15
   0   6   7  409.71    9.58
   0   6   7  416.82    9.81
   0  -6  -7  410.16    9.76
   0  -6  -7  406.44   10.05
   0  -6  -7  409.05    8.14
   0   6   8   52.15    2.12
   0   6   8   52.02    3.41
   0   6   8   53.36    3.73
   0  -6  -8   49.88    2.00
   0  -6  -8   46.98    5.54
   0  -6  -8   56.85    3.41
   0   6   9  278.48   10.72
   0   6   9  293.01   10.01
   0   6   9  260.93    5.44
   0  -6  -9  264.00    7.60
   0  -6  -9  272.59    8.13
   0  -6  -9  258.83    5.19
   0   6  10   92.61    6.77
   0   6  10   80.58    2.82
   0   6  10   82.02    3.98
   0  -6 -10   80.14    2.61
   0  -6 -10   82.98    4.42
   0  -6 -10   89.70    6.04
   0   6  11   13.70    0.82
   0   6  11   18.02    2.98
   0   6  11   13.45    2.63
   0  -6 -11   17.63    4.79
   0  -6 -11   22.01    2.75
   0  -6 -11   15.33    1.19
   0   6  12   74.70    4.78
   0  -6 -12   81.14    4.90
   0  -6 -12   82.98    6.67
   0  -6 -12   75.80    4.59
   0   6  13  100.17    5.54
   0  -6 -13   95.34    5.19
   0  -6 -13   93.98    5.14
   0  -6 -13  100.11    5.53
   0   6  14  176.74   10.43
   0  -6 -14  171.93    7.24
   0  -6 -14  170.79    7.06
   0  -6 -14  167.09    7.25
   0   6  15   -0.99    4.37
   0  -6 -15    0.25    3.87
   0  -6 -15    0.47    4.06
   0  -6 -15    0.59    2.53
   0   6  16   15.58    4.07
   0  -6 -16   10.91    3.91
   0  -6 -16   13.52    6.27
   0  -6 -16   12.54    4.03
   0   6  17   23.59    4.51
   0  -6 -17   19.22    7.19
   0  -6 -17   19.58    4.34
   0  -6 -17   23.76    4.52
   0   7 -10    0.63    2.80
   0   7 -10   -0.09    2.25
   0  -7  10    2.46    4.99
   0  -7  10   -0.18    3.89
   0   7  -9    1.56    4.98
   0   7  -9    1.41    2.79
   0  -7   9    2.42    4.51
   0  -7   9    0.26    2.32
   0   7  -8    0.89    4.12
   0   7  -8    0.82    2.61
   0  -7   8   -2.74    3.33
   0  -7   8    2.97    3.84
   0   7  -7   31.90    4.28
   0   7  -7   42.90    4.39
   0  -7   7   35.87    4.02
   0  -7   7   34.83    6.88
   0   7  -6   44.22    6.88
   0   7  -6   51.13    4.43
   0  -7   6   40.33    2.32
   0  -7   6   46.64    4.04
   0  -7   6   38.04    2.42
   0  -7   6   47.84    6.62
   0   7  -5   14.68    3.08
   0   7  -5   13.30    3.24
   0  -7   5   10.77    1.22
   0  -7   5    3.69    4.81
   0  -7   5   12.37    1.78
   0  -7   5    9.33    2.94
   0   7  -4  122.55    5.84
   0   7  -4  108.16    5.30
   0  -7   4  104.01    3.02
   0  -7   4  109.39    7.56
   0  -7   4  116.42    7.81
   0  -7   4  103.04    2.88
   0   7  -3    7.71    2.79
   0   7  -3    4.83    4.11
   0  -7   3    5.62    1.84
   0  -7   3    5.38    4.08
   0  -7   3    4.58    1.97
   0  -7   3    5.61    2.53
   0   7  -2    1.60    2.26
   0   7  -2    1.41    3.36
   0  -7   2    0.63    1.66
   0  -7   2    0.02    1.92
   0  -7   2    0.84    0.93
   0  -7   2   -0.52    1.86
   0   7  -1  219.91    9.43
   0   7  -1  228.21    7.45
   0  -7   1  223.83    9.28
   0  -7   1  203.25    5.21
   0  -7   1  215.31    5.12
   0  -7   1  227.88    7.11
   0   7   0   93.94    6.78
   0   7   0   82.84    6.16
   0  -7   0   85.70    4.04
   0  -7   0   79.37    3.10
   0  -7   0   86.07    6.32
   0  -7   0   87.21    6.15
   0   7   1    1.32    2.51
   0   7   1   -0.98    1.69
   0  -7  -1    0.76    1.21
   0  -7  -1    1.71    1.62
   0  -7  -1    0.56    1.59
   0  -7  -1   -0.59    1.05
   0   7   2    4.57    2.05
   0   7   2    5.50    2.62
   0   7   2    4.95    2.12
   0  -7  -2    6.27    2.14
   0  -7  -2    4.22    2.01
   0  -7  -2    6.94    1.71
   0   7   3   72.15    3.70
   0   7   3   70.08    3.66
   0   7   3   71.32    4.79
   0  -7  -3   62.02    3.23
   0  -7  -3   74.07    3.44
   0  -7  -3   67.04    3.69
   0   7   4  463.28   11.00
   0   7   4  467.51   12.85
   0   7   4  457.86   13.14
   0  -7  -4  450.90   10.42
   0  -7  -4  469.16   11.26
   0  -7  -4  451.31   10.70
   0   7   5   64.87    3.56
   0   7   5   62.35    4.80
   0   7   5   60.39    3.57
   0  -7  -5   59.68    4.48
   0  -7  -5   64.03    3.69
   0  -7  -5   58.31    3.55
   0   7   6   94.59    4.28
   0   7   6   96.00    5.03
   0   7   6   95.14    4.31
   0  -7  -6   93.66    4.29
   0  -7  -6   96.66    3.46
   0  -7  -6   97.19    4.43
   0   7   7    5.17    3.79
   0   7   7    6.07    1.62
   0   7   7    7.51    2.17
   0  -7  -7    8.01    2.32
   0  -7  -7    6.71    2.29
   0  -7  -7    5.41    1.47
   0   7   8   75.82    4.16
   0   7   8   84.71    5.98
   0   7   8   84.63    4.54
   0  -7  -8   74.16    6.55
   0  -7  -8   79.68    3.96
   0  -7  -8   80.79    4.14
   0   7   9    2.25    1.83
   0   7   9    1.51    1.99
   0   7   9    2.80    2.34
   0  -7  -9    0.12    0.93
   0  -7  -9    1.36    1.75
   0  -7  -9    0.62    1.93
   0   7  10    4.17    2.18
   0   7  10    2.70    1.75
   0   7  10    4.18    4.22
   0  -7 -10    2.46    2.54
   0  -7 -10    2.07    3.77
   0  -7 -10    4.44    1.66
   0   7  11   34.13    1.65
   0   7  11   37.27    3.50
   0   7  11   36.75    6.38
   0  -7 -11   37.32    6.34
   0  -7 -11   40.76    3.87
   0  -7 -11   35.18    1.56
   0   7  12   56.98    4.68
   0   7  12   51.91    4.24
   0  -7 -12   49.72    4.79
   0  -7 -12   56.78    6.46
   0   7  13   15.99    3.77
   0  -7 -13   15.19    3.74
   0  -7 -13   12.60    3.32
   0  -7 -13   14.36    3.38
   0   7  14    4.54    3.42
   0  -7 -14    1.17    4.85
   0  -7 -14    5.60    3.38
   0  -7 -14    4.80    3.08
   0   7  15  173.42   11.79
   0  -7 -15  161.73    7.89
   0  -7 -15  177.11    7.93
   0  -7 -15  158.76    8.30
   0   7  16   -0.23    4.44
   0  -7 -16    1.59    2.75
   0  -7 -16    0.01    2.79
   0  -7 -16    0.22    2.71
   0   8  -8    0.06    2.57
   0   8  -8    0.25    2.60
   0  -8   8   -0.51    4.59
   0  -8   8   -0.55    2.47
   0   8  -7    6.18    5.63
   0   8  -7    3.06    5.26
   0  -8   7    6.77    3.53
   0  -8   7    5.02    3.17
   0   8  -6   22.57    4.23
   0   8  -6   23.80    4.11
   0  -8   6   29.12    4.54
   0  -8   6   26.73    4.11
   0   8  -5   42.13    4.78
   0   8  -5   39.68    6.87
   0  -8   5   39.48    4.48
   0  -8   5   39.68    6.86
   0   8  -4   50.67    4.91
   0   8  -4   46.12    4.52
   0  -8   4   43.98    2.22
   0  -8   4   48.85    4.46
   0  -8   4   48.92    4.46
   0  -8   4   44.08    2.99
   0   8  -3   14.70    3.33
   0   8  -3   15.38    3.68
   0  -8   3   13.84    1.58
   0  -8   3   12.51    1.70
   0  -8   3   18.01    3.36
   0  -8   3   14.66    5.33
   0   8  -2   44.98    4.49
   0   8  -2   47.55    6.16
   0  -8   2   37.84    4.10
   0  -8   2   40.51    6.13
   0  -8   2   36.24    2.31
   0  -8   2   36.58    2.16
   0   8  -1   11.81    5.27
   0   8  -1   11.85    2.91
   0  -8   1   11.61    3.07
   0  -8   1    9.84    1.69
   0  -8   1   10.70    1.79
   0  -8   1   13.50    4.73
   0   8   0   22.87    3.31
   0   8   0   24.43    3.63
   0  -8   0   23.18    3.43
   0  -8   0   24.34    3.16
   0  -8   0   25.33    3.44
   0  -8   0   22.52    3.43
   0   8   1    2.75    2.23
   0   8   1   -0.01    2.10
   0  -8  -1    1.35    1.93
   0  -8  -1    0.44    1.33
   0  -8  -1    1.03    2.07
   0  -8  -1    0.22    2.31
   0   8   2   81.18    4.76
   0   8   2   82.07    4.46
   0  -8  -2   75.67    6.36
   0  -8  -2   78.49    3.70
   0  -8  -2   80.49    4.69
   0  -8  -2   82.67    3.44
   0   8   3  130.90    4.76
   0   8   3  130.31    5.50
   0   8   3  130.48    5.47
   0  -8  -3  146.01    5.88
   0  -8  -3  127.18    6.79
   0  -8  -3  128.68    5.24
   0   8   4   52.70    3.51
   0   8   4   53.43    5.87
   0   8   4   55.19    3.69
   0  -8  -4   63.42    4.14
   0  -8  -4   43.54    3.41
   0  -8  -4   50.47    3.43
   0   8   5   16.86    2.74
   0   8   5   14.21    2.59
   0   8   5   18.84    4.49
   0  -8  -5   17.00    2.95
   0  -8  -5   16.16    2.72
   0  -8  -5   18.62    2.42
   0   8   6  140.36    5.76
   0   8   6  139.08    7.83
   0   8   6  132.29    6.78
   0  -8  -6  128.74    5.49
   0  -8  -6  129.94    6.30
   0  -8  -6  139.00    5.77
   0   8   7  187.61    6.79
   0   8   7  178.96    6.56
   0   8   7  167.26    5.54
   0  -8  -7  171.00    5.26
   0  -8  -7  177.21    6.69
   0  -8  -7  180.83    6.73
   0   8   8  110.01    5.26
   0   8   8  108.93    4.06
   0   8   8  120.23    5.46
   0  -8  -8  109.36    5.44
   0  -8  -8  109.49    3.90
   0  -8  -8  114.62    5.40
   0   8   9    5.79    2.83
   0   8   9    7.48    2.48
   0   8   9    4.20    1.64
   0  -8  -9    6.58    2.46
   0  -8  -9    7.70    2.69
   0  -8  -9    4.18    2.88
   0   8  10   31.40    3.70
   0   8  10   29.72    4.05
   0   8  10   30.48    3.33
   0  -8 -10   29.27    4.12
   0  -8 -10   37.03    3.80
   0  -8 -10   30.47    2.10
   0   8  11   57.84    2.53
   0   8  11   81.00    8.10
   0   8  11   74.94    6.87
   0  -8 -11   73.22    4.84
   0  -8 -11   54.19    3.46
   0  -8 -11   76.68    7.79
   0   8  12   76.32    7.67
   0   8  12   84.99    8.92
   0  -8 -12   80.09    5.85
   0  -8 -12   77.82    5.24
   0   8  13  191.24    8.86
   0  -8 -13  187.45    8.06
   0  -8 -13  188.39   12.36
   0   8  14   -0.76    3.07
   0  -8 -14   -1.05    2.51
   0  -8 -14    1.88    3.67
   0  -8 -14   -0.07    2.27
   0   9  -6   19.03    5.08
   0   9  -6   19.37    4.67
   0  -9   6   23.53    4.76
   0  -9   6   20.30    7.01
   0   9  -5    8.91    3.88
   0   9  -5    3.67    3.67
   0  -9   5    7.33    3.51
   0  -9   5    5.58    3.63
   0   9  -4    0.25    2.22
   0   9  -4   -0.20    2.33
   0  -9   4    0.11    2.69
   0  -9   4    1.07    2.66
   0   9  -3   37.18    4.92
   0   9  -3   32.75    4.38
   0  -9   3   37.90    4.62
   0  -9   3   34.11    4.59
   0   9  -2   -1.09    4.01
   0   9  -2   -0.28    4.44
   0  -9   2   -0.22    2.62
   0  -9   2    0.74    2.62
   0  -9   2    1.81    1.32
   0  -9   2    0.16    2.28
   0   9  -1   54.26    4.73
   0   9  -1   53.88    5.22
   0  -9   1   51.49    4.76
   0  -9   1   49.99    4.47
   0  -9   1   43.44    2.79
   0  -9   1   51.81    4.69
   0   9   0   83.53    5.80
   0   9   0   77.68    5.37
   0  -9   0   82.76    5.31
   0  -9   0   88.12    5.50
   0  -9   0   77.00    5.36
   0  -9   0   74.96    3.67
   0   9   1    9.32    3.02
   0   9   1   10.78    3.39
   0  -9  -1    5.96    2.87
   0  -9  -1    6.99    2.95
   0  -9  -1    4.78    1.86
   0  -9  -1    5.24    3.19
   0   9   2   30.81    3.97
   0   9   2   27.96    3.79
   0  -9  -2   28.64    2.92
   0  -9  -2   28.39    3.63
   0  -9  -2   27.99    2.72
   0  -9  -2   29.18    3.91
   0   9   3    5.90    2.86
   0   9   3    8.28    2.85
   0  -9  -3    7.92    4.32
   0  -9  -3    7.95    2.10
   0  -9  -3   11.20    3.15
   0  -9  -3    5.99    2.34
   0   9   4   -0.05    2.45
   0   9   4    1.73    1.98
   0   9   4    2.95    2.30
   0  -9  -4    1.76    3.33
   0  -9  -4    1.68    2.20
   0  -9  -4    3.05    2.57
   0   9   5  191.04    7.29
   0   9   5  184.10    6.96
   0   9   5  195.26    6.90
   0  -9  -5  184.22    6.81
   0  -9  -5  195.07    7.84
   0  -9  -5  180.43    8.64
   0   9   6   34.13    3.35
   0   9   6   37.63    3.90
   0   9   6   34.34    5.70
   0  -9  -6   36.74    4.06
   0  -9  -6   29.60    3.11
   0  -9  -6   33.55    3.68
   0   9   7    0.15    2.05
   0   9   7    0.86    2.09
   0   9   7    0.12    2.69
   0  -9  -7    1.07    3.31
   0  -9  -7   -1.37    2.18
   0  -9  -7    2.27    2.53
   0   9   8   37.07    3.05
   0   9   8   36.52    6.60
   0   9   8   37.97    4.09
   0  -9  -8   34.35    4.16
   0  -9  -8   45.28    6.56
   0  -9  -8   35.18    4.50
   0   9   9  238.63    9.00
   0   9   9  220.42    8.68
   0   9   9  242.92    8.79
   0  -9  -9  238.02   11.83
   0  -9  -9  219.06    8.19
   0  -9  -9  233.16   11.94
   0   9  10   24.76    4.21
   0   9  10   20.75    2.51
   0   9  10   25.16    3.88
   0  -9 -10   23.20    4.18
   0  -9 -10   19.85    2.25
   0  -9 -10   18.24    4.00
   0   9  11   40.62    4.47
   0   9  11   42.29    7.67
   0  -9 -11   39.70    4.79
   0  -9 -11   44.41    8.06
   0   9  12   40.23    8.06
   0   9  12   36.41    4.57
   0  -9 -12   39.84    4.91
   0  -9 -12   42.23    5.33
   0   9  13   28.64    5.10
   0   9  13   30.21    4.57
   0  -9 -13   27.89    4.49
   0  -9 -13   25.79    8.02
   0  10  -2   15.21    4.55
   0  10  -2   12.92    6.52
   0 -10   2   12.19    4.29
   0 -10   2   14.51    4.17
   0  10  -1    5.66    3.77
   0  10  -1    4.37    3.53
   0 -10   1    2.35    3.40
   0 -10   1    3.64    3.36
   0 -10   1    2.49    1.93
   0 -10   1    6.58    2.87
   0  10   0    2.39    2.90
   0  10   0   -0.61    2.66
   0 -10   0    1.05    1.21
   0 -10   0   -0.82    1.32
   0 -10   0   -2.07    2.04
   0 -10   0    1.05    2.13
   0  10   1    6.23    5.79
   0 -10  -1    7.63    3.46
   0 -10  -1    3.66    3.26
   0 -10  -1    4.35    2.25
   0 -10  -1    6.00    3.38
   0  10   2    8.91    5.82
   0 -10  -2   12.91    3.77
   0 -10  -2   20.30    2.83
   0 -10  -2   16.14    4.16
   0 -10  -2   15.73    4.06
   0  10   3   34.48    6.87
   0  10   3   33.85    4.34
   0 -10  -3   28.59    3.18
   0 -10  -3   29.20    4.60
   0 -10  -3   29.24    3.99
   0 -10  -3   28.97    3.37
   0  10   4    0.14    2.88
   0  10   4    6.38    4.33
   0 -10  -4    6.85    3.22
   0 -10  -4    8.37    4.30
   0 -10  -4   -0.27    2.54
   0 -10  -4    6.09    3.68
   0  10   5    2.54    2.27
   0  10   5   -0.00    2.43
   0  10   5   -0.61    2.02
   0 -10  -5    0.17    4.02
   0 -10  -5    4.05    2.48
   0 -10  -5    3.24    3.07
   0  10   6    0.05    3.51
   0  10   6   10.33    3.00
   0  10   6   12.88    2.99
   0 -10  -6    8.66    4.04
   0 -10  -6    0.42    2.72
   0  10   7    0.19    3.55
   0  10   7   10.76    3.33
   0  10   7   13.96    2.87
   0 -10  -7   -0.27    3.20
   0 -10  -7   13.15    2.77
   0  10   8   -0.33    2.85
   0  10   8    3.42    2.91
   0  10   8    3.36    3.51
   0 -10  -8    5.39    2.20
   0 -10  -8   -0.40    5.12
   0 -10  -8    2.42    3.31
   0  10   9    8.45    3.66
   0  10   9    9.54    3.51
   0  10   9    6.69    2.55
   0 -10  -9    9.57    3.92
   0 -10  -9    9.81    3.84
   0 -10  -9   11.61    2.53
   0  10  10   16.14    4.49
   0  10  10   28.78    4.16
   0  10  10   17.88    4.23
   0 -10 -10   15.67    6.55
   0 -10 -10   14.95    6.87
   0 -10 -10   16.98    2.56
   1 -10  -9   55.31    5.51
   1 -10  -9   53.64    5.87
   1 -10  -9   45.64    5.56
  -1  10   9   47.44    3.74
  -1  10   9   60.45    8.25
  -1  10   9   64.36    5.56
   1 -10  -8    1.61    3.26
   1 -10  -8    2.69    4.95
   1 -10  -8    1.18    3.39
  -1  10   8    0.85    3.05
  -1  10   8   -2.07    2.57
  -1  10   8   -0.05    2.75
   1 -10  -7    8.12    5.90
   1 -10  -7   -0.93    3.33
   1 -10  -7    7.43    2.45
  -1  10   7    4.95    2.46
  -1  10   7    6.49    3.06
  -1  10   7    0.10    3.27
   1 -10  -6   -0.84    6.24
   1 -10  -6   23.39    3.34
   1 -10  -6   27.47    4.62
   1 -10  -6   23.44    3.67
  -1  10   6   -0.08    3.83
  -1  10   6   18.43    3.06
   1 -10  -5    0.85    2.19
   1 -10  -5    0.53    2.81
   1 -10  -5   -0.51    2.32
   1 -10  -5    2.80    2.41
  -1  10   5   -0.06    2.43
  -1  10   5   -0.56    3.22
   1 -10  -4   20.64    5.74
   1 -10  -4   18.05    5.43
   1 -10  -4   22.80    3.60
   1 -10  -4   33.69    4.46
  -1  10   4   15.45    5.89
   1 -10  -3   -0.94    3.57
   1 -10  -3    1.23    2.99
   1 -10  -3    3.18    2.51
   1 -10  -3    0.58    2.10
  -1  10   3    0.49    2.51
   1 -10  -2   11.67    2.75
   1 -10  -2   10.40    3.52
   1 -10  -2   11.82    2.98
  -1  10   2   14.02    3.93
   1 -10  -1   31.06    3.60
   1 -10  -1   37.19    3.53
   1 -10  -1   36.20    4.55
  -1  10   1   36.43    4.99
  -1  10   1   36.13    5.08
   1 -10   0   26.48    3.46
   1 -10   0   25.18    7.30
   1 -10   0   41.68    8.11
   1 -10   0   29.59    4.79
  -1  10   0   37.49    5.21
  -1  10   0   32.45    4.78
   1 -10   1   18.40    2.97
   1 -10   1   19.30    2.77
   1 -10   1   21.01    4.69
   1 -10   1   11.80    6.90
  -1  10  -1   12.85    6.81
  -1  10  -1   19.49    7.56
   1  -9 -12    3.87    3.31
   1  -9 -12    0.01    3.40
  -1   9  12    1.38    3.07
  -1   9  12    2.74    3.47
   1  -9 -11    0.58    5.11
   1  -9 -11    3.19    5.11
  -1   9  11    3.08    3.23
  -1   9  11    0.90    2.86
   1  -9 -10   33.67    2.61
   1  -9 -10   47.52    4.90
   1  -9 -10   42.95    4.93
  -1   9  10   37.56    4.54
  -1   9  10   34.77    2.79
  -1   9  10   40.23    4.99
   1  -9  -9    9.92    5.84
   1  -9  -9   10.51    5.60
   1  -9  -9    8.96    2.09
  -1   9   9   11.91    5.77
  -1   9   9   11.29    3.42
  -1   9   9    7.93    2.13
   1  -9  -8    4.89    2.81
   1  -9  -8    1.48    2.84
   1  -9  -8    1.36    1.75
  -1   9   8    3.52    2.63
  -1   9   8    1.43    1.75
  -1   9   8    0.14    2.60
   1  -9  -7    4.58    3.01
   1  -9  -7    5.05    2.83
   1  -9  -7    2.80    1.97
  -1   9   7    3.40    4.31
  -1   9   7    3.53    1.95
  -1   9   7   -0.13    2.63
   1  -9  -6    0.26    2.28
   1  -9  -6    2.16    2.56
   1  -9  -6   -0.08    2.89
  -1   9   6    1.67    1.88
  -1   9   6    0.12    2.23
  -1   9   6    0.09    2.43
   1  -9  -5  172.56    7.57
   1  -9  -5  146.34    5.94
   1  -9  -5  144.65    9.15
  -1   9   5  156.65    6.41
  -1   9   5  159.88    6.95
   1  -9  -4   33.42    3.66
   1  -9  -4   28.50    5.39
   1  -9  -4   35.24    5.10
   1  -9  -4   35.55    4.25
  -1   9   4   33.16    4.07
  -1   9   4   27.22    3.68
   1  -9  -3   35.61    5.42
   1  -9  -3   39.39    4.47
   1  -9  -3   37.43    3.88
   1  -9  -3   35.46    3.43
  -1   9   3   32.94    4.18
  -1   9   3   41.75    6.19
   1  -9  -2   44.44    4.64
   1  -9  -2   40.69    3.26
   1  -9  -2   38.18    4.04
   1  -9  -2   35.37    3.46
  -1   9   2   42.90    6.58
  -1   9   2   36.45    4.30
   1  -9  -1   57.83    3.65
   1  -9  -1   66.33    4.83
   1  -9  -1   63.65    3.90
   1  -9  -1   92.66    8.36
  -1   9   1   64.42    4.88
  -1   9   1   66.64    7.78
   1  -9   0    7.40    4.38
   1  -9   0   -1.05    2.48
   1  -9   0    0.38    2.72
   1  -9   0    0.28    2.64
  -1   9   0   -1.61    3.61
  -1   9   0    0.75    2.22
   1  -9   1    3.28    5.22
   1  -9   1    7.59    1.99
   1  -9   1    3.24    5.51
   1  -9   1    6.30    3.36
  -1   9  -1    7.69    3.53
  -1   9  -1    5.07    3.18
   1  -9   2   -0.80    1.57
   1  -9   2   -1.50    1.48
   1  -9   2    0.67    4.33
   1  -9   2    2.56    4.31
  -1   9  -2    1.35    2.67
  -1   9  -2    0.99    2.97
   1  -9   3    0.58    4.32
   1  -9   3   -0.54    1.43
   1  -9   3    1.44    1.47
   1  -9   3    1.83    2.67
  -1   9  -3    1.67    2.35
  -1   9  -3   -2.39    2.58
   1  -9   4   12.20    6.61
   1  -9   4   16.76    4.23
  -1   9  -4   12.93    3.98
  -1   9  -4   14.16    7.12
   1  -9   5   41.69    5.49
   1  -9   5   50.88    8.25
  -1   9  -5   41.71    5.50
  -1   9  -5   45.76    5.60
   1  -8 -14   -0.47    5.29
   1  -8 -14    2.06    3.55
   1  -8 -14    5.01    5.30
  -1   8  14    2.41    3.37
   1  -8 -13    7.13    6.92
   1  -8 -13    9.26    3.95
   1  -8 -13   19.46    3.98
  -1   8  13   17.68    4.32
   1  -8 -12    3.81    3.14
   1  -8 -12    2.07    2.98
  -1   8  12    3.14    3.14
  -1   8  12    2.81    4.63
   1  -8 -11    3.11    2.80
   1  -8 -11    1.64    3.01
  -1   8  11    0.92    2.68
  -1   8  11    1.30    3.86
   1  -8 -10    0.15    3.00
   1  -8 -10   -0.13    0.85
   1  -8 -10    1.77    3.10
  -1   8  10    1.18    1.20
  -1   8  10    1.09    3.75
  -1   8  10   -0.72    2.57
   1  -8  -9   76.02    5.12
   1  -8  -9   75.13    4.95
   1  -8  -9   64.76    2.97
  -1   8   9   71.14    4.70
  -1   8   9   69.34    7.59
  -1   8   9   61.11    2.97
   1  -8  -8    1.76    2.50
   1  -8  -8    4.13    3.97
   1  -8  -8    1.13    2.29
  -1   8   8    3.00    2.18
  -1   8   8   -0.21    1.31
  -1   8   8    0.18    2.08
   1  -8  -7   43.28    4.13
   1  -8  -7   44.90    4.02
   1  -8  -7   45.55    6.25
  -1   8   7   45.21    3.84
  -1   8   7   39.35    2.86
  -1   8   7   41.56    3.94
   1  -8  -6    1.40    2.13
   1  -8  -6    0.66    1.53
  -1   8   6   -1.51    1.60
  -1   8   6   -0.56    2.04
  -1   8   6   -0.02    2.02
   1  -8  -5  150.52    8.40
   1  -8  -5  111.01    4.59
   1  -8  -5  111.91    5.24
  -1   8   5  113.73    5.38
  -1   8   5  118.39    7.23
  -1   8   5  117.42    6.54
   1  -8  -4   35.80    3.29
   1  -8  -4   31.72    3.19
  -1   8   4   33.63    3.24
  -1   8   4   33.87    3.28
  -1   8   4   35.40    3.68
   1  -8  -3    0.53    1.63
   1  -8  -3    1.35    1.77
   1  -8  -3   -0.26    1.79
  -1   8   3    0.42    1.92
  -1   8   3    0.81    2.07
   1  -8  -2   63.14    3.41
   1  -8  -2   57.71    3.98
   1  -8  -2   55.95    3.47
  -1   8   2   62.02    4.27
  -1   8   2   56.53    4.15
   1  -8  -1   31.57    3.90
   1  -8  -1   34.05    2.72
   1  -8  -1   34.81    2.89
   1  -8  -1   34.71    3.55
  -1   8   1   31.69    3.76
  -1   8   1   38.64    3.64
   1  -8   0   27.34    4.10
   1  -8   0   29.00    3.61
   1  -8   0   31.07    3.85
   1  -8   0   31.55    3.93
  -1   8   0   25.81    3.79
  -1   8   0   30.65    3.61
   1  -8   1  185.98    5.81
   1  -8   1  203.61    7.89
   1  -8   1  204.05    7.57
   1  -8   1  198.19    5.82
  -1   8  -1  204.30    7.58
  -1   8  -1  199.03    7.95
   1  -8   2  114.73    5.94
   1  -8   2  122.35    6.11
   1  -8   2  106.22    5.36
   1  -8   2  106.57    4.04
  -1   8  -2  111.78    5.91
  -1   8  -2  120.59    9.07
   1  -8   3   -0.14    2.03
   1  -8   3   -1.00    1.22
   1  -8   3    1.02    2.23
   1  -8   3    0.12    2.27
  -1   8  -3    0.51    3.55
  -1   8  -3   -0.29    2.05
   1  -8   4    9.37    3.09
   1  -8   4   11.48    1.73
   1  -8   4   19.77    3.50
   1  -8   4   13.14    3.60
  -1   8  -4   13.77    3.63
  -1   8  -4   14.18    3.81
   1  -8   5    1.30    2.27
   1  -8   5    1.32    1.29
   1  -8   5    3.27    2.80
   1  -8   5    1.01    2.71
  -1   8  -5    3.41    3.16
  -1   8  -5    2.82    2.98
   1  -8   6   30.07    4.23
   1  -8   6   16.96    4.14
  -1   8  -6   15.68    6.71
  -1   8  -6   23.68    6.57
   1  -8   7   18.44    6.50
   1  -8   7   18.42    4.60
  -1   8  -7   16.58    4.15
  -1   8  -7   18.71    4.18
   1  -8   8    0.82    2.93
   1  -8   8    2.18    3.23
  -1   8  -8    0.63    4.51
  -1   8  -8    0.61    2.86
   1  -7 -15   26.62    4.80
   1  -7 -15   25.15    4.60
   1  -7 -15   21.69    7.00
  -1   7  15   26.51    4.76
   1  -7 -14    0.02    2.36
   1  -7 -14    0.63    2.46
   1  -7 -14    0.27    2.62
  -1   7  14   -1.47    2.99
   1  -7 -13    7.05    5.85
   1  -7 -13   10.10    3.39
   1  -7 -13    9.82    3.47
  -1   7  13   10.27    3.58
   1  -7 -12    1.15    2.77
   1  -7 -12    3.77    4.27
  -1   7  12    2.65    2.54
  -1   7  12    0.45    2.81
   1  -7 -11   21.17    3.78
   1  -7 -11   27.66    3.67
  -1   7  11   21.84    3.94
  -1   7  11   26.95    3.57
   1  -7 -10   40.98    2.66
   1  -7 -10   45.92    6.59
   1  -7 -10   47.22    4.04
  -1   7  10   41.17    2.80
  -1   7  10   46.29    3.86
  -1   7  10   52.29    4.33
   1  -7  -9   45.76    3.12
   1  -7  -9   51.18    4.24
   1  -7  -9   58.76    3.97
  -1   7   9   51.92    6.55
  -1   7   9   49.90    2.27
  -1   7   9   52.76    3.87
   1  -7  -8  227.81    7.85
   1  -7  -8  241.19    7.69
   1  -7  -8  220.48    5.42
  -1   7   8  224.41    5.59
  -1   7   8  243.26    7.91
  -1   7   8  232.38    7.48
   1  -7  -7   41.35    3.70
   1  -7  -7   38.64    5.81
   1  -7  -7   43.10    2.41
  -1   7   7   47.64    5.44
  -1   7   7   40.76    3.76
  -1   7   7   43.38    2.48
   1  -7  -6  127.33    4.16
   1  -7  -6  127.23    5.28
   1  -7  -6  138.24    5.33
  -1   7   6  125.46    5.20
  -1   7   6  129.38    5.66
  -1   7   6  133.53    5.37
   1  -7  -5  187.11    6.87
   1  -7  -5  173.39    6.12
   1  -7  -5  190.13    6.31
  -1   7   5  177.59    6.04
  -1   7   5  177.82    5.38
  -1   7   5  184.37    8.21
   1  -7  -4  173.06    5.37
   1  -7  -4  193.17    6.23
   1  -7  -4  165.18    7.69
  -1   7   4  169.25    5.40
  -1   7   4  175.85    5.71
  -1   7   4  173.63    5.95
   1  -7  -3   23.28    2.56
   1  -7  -3   28.23    3.96
   1  -7  -3   21.64    2.93
  -1   7   3   23.69    4.36
  -1   7   3   25.70    2.60
  -1   7   3   17.76    4.12
   1  -7  -2    5.45    3.72
   1  -7  -2    5.90    1.67
   1  -7  -2    2.96    1.85
   1  -7  -2    4.12    2.00
  -1   7   2    3.08    3.28
  -1   7   2    3.65    3.34
   1  -7  -1  314.10    7.95
   1  -7  -1  332.39    8.92
   1  -7  -1  337.34    9.30
   1  -7  -1  330.25    7.89
  -1   7   1  358.36   11.80
  -1   7   1  332.83    9.00
   1  -7   0   82.15    3.49
   1  -7   0   83.35    4.54
   1  -7   0   81.12    4.63
   1  -7   0   81.16    4.33
  -1   7   0   84.99    6.73
  -1   7   0   79.24    4.30
   1  -7   1  409.65   11.13
   1  -7   1  395.38    9.07
   1  -7   1  388.51   10.88
   1  -7   1  398.32   10.65
  -1   7  -1  406.87   10.94
  -1   7  -1  407.72   11.14
   1  -7   2  406.89    9.15
   1  -7   2  422.68   11.34
   1  -7   2  400.35    9.28
   1  -7   2  424.20   14.70
  -1   7  -2  438.17   12.18
  -1   7  -2  433.39   11.75
   1  -7   3  175.69    4.99
   1  -7   3  184.68    6.95
   1  -7   3  181.57    6.21
   1  -7   3  191.71    6.96
  -1   7  -3  199.06    7.40
  -1   7  -3  183.26    7.10
   1  -7   4  336.59    9.31
   1  -7   4  340.77    9.15
   1  -7   4  343.66   10.40
   1  -7   4  351.39   10.54
  -1   7  -4  355.29   13.78
  -1   7  -4  384.34   14.42
   1  -7   5   96.23    4.28
   1  -7   5  115.10    5.79
   1  -7   5  103.63    5.59
   1  -7   5   97.00    3.43
  -1   7  -5  109.22    6.10
  -1   7  -5  106.30    5.64
   1  -7   6   24.54    5.80
   1  -7   6   22.65    3.88
   1  -7   6   21.77    2.73
   1  -7   6   22.08    1.87
  -1   7  -6   24.59    4.00
  -1   7  -6   24.60    3.72
   1  -7   7    0.74    1.01
   1  -7   7    0.46    1.09
   1  -7   7    0.06    2.34
   1  -7   7    4.28    2.69
  -1   7  -7    2.47    2.84
  -1   7  -7    1.69    4.40
   1  -7   8   63.60    5.54
   1  -7   8   58.92    4.99
  -1   7  -8   65.39    5.20
  -1   7  -8   59.92    8.31
   1  -7   9   15.59    5.75
   1  -7   9   12.21    4.08
  -1   7  -9   16.36    4.25
  -1   7  -9   17.66    6.24
   1  -7  10   -0.34    2.20
   1  -7  10    0.82    2.71
  -1   7 -10    3.78    3.66
  -1   7 -10    4.94    3.24
   1  -6 -16    4.79    3.72
   1  -6 -16    5.18    3.72
   1  -6 -16    9.02    3.64
  -1   6  16    8.29    6.14
   1  -6 -15   44.56    4.81
   1  -6 -15   37.41    4.85
   1  -6 -15   31.95    4.78
  -1   6  15   41.68    4.95
   1  -6 -14    8.42    5.70
   1  -6 -14   15.37    3.65
   1  -6 -14   13.17    3.58
  -1   6  14   13.90    3.66
   1  -6 -13    3.18    4.11
   1  -6 -13    2.26    2.62
   1  -6 -13    2.37    2.71
  -1   6  13    0.82    2.37
   1  -6 -12   69.53    4.57
   1  -6 -12   58.67    4.67
   1  -6 -12   65.38    4.63
  -1   6  12   61.29    4.78
   1  -6 -11   45.78    3.89
   1  -6 -11   46.62    3.74
  -1   6  11   38.35    3.77
  -1   6  11   33.33    1.30
  -1   6  11   39.35    3.51
   1  -6 -10   34.67    6.02
   1  -6 -10   53.84    3.85
   1  -6 -10   40.13    1.94
  -1   6  10   38.85    1.46
  -1   6  10   44.02    3.89
  -1   6  10   42.39    3.62
   1  -6  -9 1427.37   34.15
   1  -6  -9 1362.81   30.51
   1  -6  -9 1347.00   25.13
  -1   6   9 1344.05   26.58
  -1   6   9 1368.27   29.74
  -1   6   9 1426.92   34.65
   1  -6  -8    6.39    2.44
   1  -6  -8    8.63    2.57
   1  -6  -8    7.64    1.14
  -1   6   8    8.43    3.75
  -1   6   8    7.93    1.20
  -1   6   8    5.76    2.62
   1  -6  -7  557.01   10.90
   1  -6  -7  563.95   13.36
   1  -6  -7  595.19   13.39
  -1   6   7  582.41   13.39
  -1   6   7  578.86   13.10
  -1   6   7  553.57   11.04
   1  -6  -6   62.86    3.43
   1  -6  -6   59.26    3.48
   1  -6  -6   55.81    5.32
  -1   6   6   59.33    3.30
  -1   6   6   59.49    3.61
  -1   6   6   58.90    3.51
   1  -6  -5   78.64    3.71
   1  -6  -5   79.55    2.88
   1  -6  -5   79.32    3.76
  -1   6   5   78.35    3.03
  -1   6   5   82.78    5.23
  -1   6   5   85.01    5.37
   1  -6  -4  232.33    5.71
   1  -6  -4  231.41    6.33
   1  -6  -4  233.51    8.21
  -1   6   4  230.71    7.30
  -1   6   4  237.43    6.31
  -1   6   4  229.68    6.15
   1  -6  -3  147.40    4.90
   1  -6  -3  144.03    4.68
   1  -6  -3  152.21    6.01
  -1   6   3  142.94    4.50
  -1   6   3  140.22    4.51
  -1   6   3  144.04    6.44
   1  -6  -2    5.35    1.88
   1  -6  -2    2.34    1.64
   1  -6  -2    3.82    1.73
  -1   6   2    4.10    1.74
  -1   6   2    1.14    1.71
  -1   6   2    2.53    1.56
   1  -6  -1   44.15    3.50
   1  -6  -1   43.81    3.88
   1  -6  -1   48.37    3.12
   1  -6  -1   44.41    2.91
  -1   6   1   42.80    3.09
  -1   6   1   44.89    2.86
   1  -6   0   13.86    1.93
   1  -6   0   17.58    2.53
   1  -6   0   17.42    2.49
   1  -6   0   12.25    1.74
  -1   6   0   13.29    3.92
  -1   6   0   13.67    2.53
   1  -6   1 1934.81   44.08
   1  -6   1 1897.38   40.06
   1  -6   1 1858.16   39.08
   1  -6   1 1845.68   37.44
  -1   6  -1 1925.07   41.10
  -1   6  -1 1880.31   39.84
   1  -6   2  418.27   10.54
   1  -6   2  411.80   10.34
   1  -6   2  435.94   10.80
   1  -6   2  406.70    8.66
  -1   6  -2  427.00   10.67
  -1   6  -2  448.41   13.92
   1  -6   3   12.05    2.75
   1  -6   3   10.68    2.65
   1  -6   3   13.35    1.49
   1  -6   3   10.12    1.60
  -1   6  -3   11.27    2.52
  -1   6  -3    9.73    2.73
   1  -6   4   31.72    5.02
   1  -6   4   28.72    2.78
   1  -6   4   25.61    1.74
   1  -6   4   28.16    3.12
  -1   6  -4   30.06    3.39
  -1   6  -4   32.88    3.23
   1  -6   5   12.64    2.73
   1  -6   5    7.35    2.00
   1  -6   5   10.25    2.60
   1  -6   5    7.53    1.42
  -1   6  -5   10.76    4.45
  -1   6  -5    8.70    4.34
   1  -6   6  122.29    4.63
   1  -6   6  129.87    5.86
   1  -6   6  128.81    4.43
   1  -6   6  130.60    7.85
  -1   6  -6  130.13    5.70
  -1   6  -6  140.68    6.03
   1  -6   7    1.91    2.42
   1  -6   7    2.21    2.14
   1  -6   7    1.49    1.00
   1  -6   7    0.74    1.71
  -1   6  -7    0.12    3.96
  -1   6  -7    2.56    2.38
   1  -6   8   41.98    4.26
   1  -6   8   36.40    1.89
   1  -6   8   36.32    2.90
   1  -6   8   39.00    3.80
  -1   6  -8   38.21    4.00
  -1   6  -8   41.85    4.38
   1  -6   9   71.64    7.02
   1  -6   9   78.51    5.54
  -1   6  -9   71.81    7.49
  -1   6  -9   83.70    5.70
   1  -6  10    2.23    2.78
   1  -6  10   -0.21    2.21
  -1   6 -10   -0.28    1.98
  -1   6 -10    1.54    3.74
   1  -6  11   -0.79    2.69
   1  -6  11    0.04    3.48
  -1   6 -11   -0.27    3.87
  -1   6 -11   -1.00    2.85
   1  -6  12    5.14    3.24
   1  -6  12   -0.41    2.48
  -1   6 -12    5.10    3.04
  -1   6 -12    3.77    3.65
   1  -5 -17   76.31    6.45
   1  -5 -17   88.10    6.48
   1  -5 -17   74.97    8.88
  -1   5  17   78.29    6.05
   1  -5 -16    0.01    2.29
   1  -5 -16   -0.92    2.45
   1  -5 -16    0.03    2.55
  -1   5  16    1.21    2.65
   1  -5 -15   -1.08    2.44
   1  -5 -15    0.06    2.21
   1  -5 -15   -0.23    2.33
  -1   5  15    1.30    4.07
   1  -5 -14   41.49    4.09
   1  -5 -14   42.57    4.32
   1  -5 -14   37.63    6.39
  -1   5  14   41.66    6.27
   1  -5 -13  113.88    5.62
   1  -5 -13  118.98    5.63
   1  -5 -13  118.26    5.59
  -1   5  13  115.58    5.45
   1  -5 -12   34.53    3.44
   1  -5 -12   30.47    3.44
   1  -5 -12   34.18    5.41
  -1   5  12   35.33    3.55
   1  -5 -11   84.27    6.47
   1  -5 -11   85.97    4.61
   1  -5 -11   84.33    4.32
  -1   5  11   79.88    4.41
   1  -5 -10   -0.73    1.44
   1  -5 -10    0.00    0.35
   1  -5 -10   -0.28    1.51
  -1   5  10   -1.80    2.84
  -1   5  10    0.36    0.42
  -1   5  10    0.77    1.63
   1  -5  -9  817.93   20.92
   1  -5  -9  792.60   18.19
   1  -5  -9  771.95   13.53
  -1   5   9  801.69   20.68
  -1   5   9  774.01   13.77
  -1   5   9  785.76   17.75
   1  -5  -8   90.48    3.87
   1  -5  -8   84.67    4.11
   1  -5  -8   83.18    2.62
  -1   5   8   84.94    5.37
  -1   5   8   86.22    2.77
  -1   5   8   89.29    4.09
   1  -5  -7  103.92    4.04
   1  -5  -7  104.49    3.26
   1  -5  -7   92.40    4.33
  -1   5   7  103.06    4.28
  -1   5   7   97.60    2.53
  -1   5   7  103.54    3.98
   1  -5  -6    0.19    1.59
   1  -5  -6    1.38    0.85
   1  -5  -6    1.99    1.49
  -1   5   6    0.77    1.61
  -1   5   6    2.85    0.95
  -1   5   6    1.34    1.45
   1  -5  -5   54.01    2.92
   1  -5  -5   58.50    4.14
   1  -5  -5   57.68    2.07
  -1   5   5   53.12    2.82
  -1   5   5   56.16    2.68
  -1   5   5   57.73    2.17
   1  -5  -4   68.06    2.95
   1  -5  -4   66.61    4.35
   1  -5  -4   70.24    2.49
  -1   5   4   68.44    4.14
  -1   5   4   70.72    2.98
  -1   5   4   67.18    3.56
   1  -5  -3  124.46    4.66
   1  -5  -3  121.23    5.22
   1  -5  -3  129.79    3.93
  -1   5   3  122.12    3.57
  -1   5   3  126.01    3.78
  -1   5   3  130.04    3.82
   1  -5  -2 1970.66   40.40
   1  -5  -2 2019.34   39.94
   1  -5  -2 1972.68   38.82
  -1   5   2 1955.51   38.71
  -1   5   2 1975.82   38.96
  -1   5   2 1998.92   38.89
   1  -5  -1  103.50    3.55
   1  -5  -1   97.79    3.43
   1  -5  -1   95.81    4.43
   1  -5  -1   94.58    2.95
  -1   5   1   98.13    3.51
  -1   5   1   97.85    4.98
   1  -5   0   59.53    3.59
   1  -5   0   61.80    2.30
   1  -5   0   66.79    4.46
   1  -5   0   65.54    4.33
  -1   5   0   66.16    2.95
  -1   5   0   66.51    3.15
   1  -5   1  466.43   10.17
   1  -5   1  450.58    8.78
   1  -5   1  431.21    8.83
   1  -5   1  452.19   11.69
  -1   5  -1  445.53   11.84
  -1   5  -1  474.36   10.43
   1  -5   2  162.20    4.12
   1  -5   2  166.53    6.94
   1  -5   2  168.36    3.99
   1  -5   2  180.63    5.17
  -1   5  -2  173.88    5.40
  -1   5  -2  173.51    5.06
   1  -5   3   10.94    1.32
   1  -5   3    8.59    1.19
   1  -5   3    7.90    2.13
   1  -5   3   10.78    2.09
  -1   5  -3    9.65    3.71
  -1   5  -3   11.25    2.10
   1  -5   4    0.38    0.89
   1  -5   4    1.87    1.54
   1  -5   4    0.35    0.83
  -1   5  -4    2.08    1.56
  -1   5  -4   -1.00    1.69
   1  -5   5  139.59    4.48
   1  -5   5  147.31    5.23
   1  -5   5  139.10    5.08
   1  -5   5  137.59    4.27
  -1   5  -5  145.93    5.12
  -1   5  -5  148.61    5.36
   1  -5   6  176.02    4.01
   1  -5   6  177.08    4.11
   1  -5   6  182.00    6.12
   1  -5   6  176.70    7.86
  -1   5  -6  183.13    6.08
  -1   5  -6  184.04    8.10
   1  -5   7  170.06    5.91
   1  -5   7  186.11    6.51
   1  -5   7  167.60    4.98
   1  -5   7  166.44    3.94
  -1   5  -7  180.66    6.29
  -1   5  -7  171.99    6.24
   1  -5   8   -0.58    2.78
   1  -5   8    0.05    0.72
   1  -5   8    0.69    1.45
   1  -5   8   -0.60    1.11
  -1   5  -8   -0.79    1.87
  -1   5  -8   -0.22    3.32
   1  -5   9   65.79    2.34
   1  -5   9   83.00    7.32
   1  -5   9   63.03    3.96
   1  -5   9   67.79    3.21
  -1   5  -9   77.39    4.28
  -1   5  -9   71.56    4.91
   1  -5  10   35.37    3.36
   1  -5  10   43.82    6.69
   1  -5  10   34.68    1.83
   1  -5  10   32.81    2.67
  -1   5 -10   39.80    3.60
  -1   5 -10   39.63    4.37
   1  -5  11    1.66    2.46
   1  -5  11   -0.23    1.85
  -1   5 -11    2.88    2.82
  -1   5 -11    0.70    3.75
   1  -5  12    7.46    3.50
   1  -5  12    5.48    4.13
  -1   5 -12    5.52    5.45
  -1   5 -12    4.25    2.61
   1  -5  13   -0.32    2.59
   1  -5  13   -0.16    1.82
  -1   5 -13   -1.28    2.14
  -1   5 -13    1.32    4.73
   1  -4 -17    0.06    5.05
   1  -4 -17   11.17    3.92
   1  -4 -17   12.22    3.98
  -1   4  17   12.31    5.54
   1  -4 -16    6.81    3.26
   1  -4 -16    9.91    5.27
   1  -4 -16   -0.00    4.45
  -1   4  16    7.59    2.92
   1  -4 -15    9.34    5.05
   1  -4 -15    7.79    4.95
   1  -4 -15   -0.08    4.28
  -1   4  15    8.59    2.88
   1  -4 -14   27.62    3.67
   1  -4 -14   23.38    5.91
   1  -4 -14   24.91    3.32
  -1   4  14   27.79    3.33
   1  -4 -13    9.71    3.00
   1  -4 -13   11.15    3.01
   1  -4 -13   16.24    2.71
  -1   4  13    8.62    4.07
   1  -4 -12  212.15    7.16
   1  -4 -12  220.13    7.03
   1  -4 -12  225.66    7.19
  -1   4  12  220.91    9.11
   1  -4 -11   68.77    4.06
   1  -4 -11   72.53    4.14
   1  -4 -11   76.53    4.12
  -1   4  11   74.20    5.91
   1  -4 -10  195.01    5.97
   1  -4 -10  199.50    8.02
   1  -4 -10  186.30    5.86
  -1   4  10  193.94    7.84
   1  -4  -9  199.39    5.86
   1  -4  -9  192.35    2.50
   1  -4  -9  205.56    5.63
  -1   4   9  198.48    7.49
  -1   4   9  194.35    5.39
  -1   4   9  173.17    2.30
   1  -4  -8  122.90    3.97
   1  -4  -8  108.93    3.99
   1  -4  -8  114.00    2.21
  -1   4   8  114.86    3.78
  -1   4   8  117.10    4.09
  -1   4   8  114.48    2.28
   1  -4  -7  122.40    4.06
   1  -4  -7  130.12    2.37
   1  -4  -7  129.29    3.83
  -1   4   7  133.49    5.08
  -1   4   7  126.32    2.82
  -1   4   7  122.29    4.04
   1  -4  -6  223.47    4.53
   1  -4  -6  218.35    5.17
   1  -4  -6  217.63    5.47
  -1   4   6  216.19    3.92
  -1   4   6  214.70    5.37
  -1   4   6  224.09    5.19
   1  -4  -5    1.99    1.17
   1  -4  -5    3.25    1.30
   1  -4  -5    1.46    0.72
  -1   4   5    1.60    1.27
  -1   4   5    1.69    1.12
  -1   4   5    1.59    1.15
   1  -4  -4  191.30    3.91
   1  -4  -4  193.39    4.72
   1  -4  -4  197.84    4.64
  -1   4   4  198.00    5.67
  -1   4   4  187.16    3.87
  -1   4   4  188.58    4.54
   1  -4  -3  540.42   11.43
   1  -4  -3  522.87   10.22
   1  -4  -3  540.50    9.86
  -1   4   3  539.23   10.31
  -1   4   3  517.58    9.54
  -1   4   3  526.82   11.12
   1  -4  -2   68.16    2.70
   1  -4  -2   65.66    2.61
   1  -4  -2   89.10    2.76
  -1   4   2   62.85    2.49
  -1   4   2   82.90    3.88
   1  -4  -1 3907.60   80.52
   1  -4  -1 4018.06   83.41
   1  -4  -1 4025.93   82.97
  -1   4   1 3947.87   80.02
  -1   4   1 3937.51   81.65
  -1   4   1 4130.46   82.83
   1  -4   0  662.29   12.69
   1  -4   0  701.08   14.66
   1  -4   0  637.06   11.48
   1  -4   0  639.84   11.85
  -1   4   0  663.10   12.69
  -1   4   0  615.48   14.19
   1  -4   1  320.21    6.84
   1  -4   1  300.66    5.71
   1  -4   1  300.06    5.89
   1  -4   1  312.63    7.85
  -1   4  -1  318.57    7.81
  -1   4  -1  319.87    6.95
   1  -4   2  354.11    8.82
   1  -4   2  331.07    7.27
   1  -4   2  328.73    6.16
   1  -4   2  320.04    6.24
  -1   4  -2  346.36    7.55
  -1   4  -2  331.64    7.12
   1  -4   3  526.71   10.30
   1  -4   3  540.09   12.74
   1  -4   3  523.02   10.50
   1  -4   3  540.37   11.04
  -1   4  -3  537.38   12.41
  -1   4  -3  536.22   12.89
   1  -4   4  347.60    7.97
   1  -4   4  351.76    7.59
   1  -4   4  366.13    8.23
   1  -4   4  347.26    6.56
  -1   4  -4  363.54    9.87
  -1   4  -4  367.55    8.48
   1  -4   5  497.34    9.97
   1  -4   5  506.03   11.03
   1  -4   5  493.71    9.11
   1  -4   5  520.78   11.28
  -1   4  -5  515.86   13.14
  -1   4  -5  521.95   11.42
   1  -4   6   58.48    4.56
   1  -4   6   56.19    3.31
   1  -4   6   55.93    1.88
  -1   4  -6   59.56    3.23
  -1   4  -6   55.76    3.25
  -1   4  -6   57.89    1.89
   1  -4   7  129.97    3.12
   1  -4   7  130.61    4.59
   1  -4   7  131.90    5.01
  -1   4  -7  131.18    4.89
  -1   4  -7  128.01    3.07
  -1   4  -7  139.23    4.80
   1  -4   8   51.95    3.16
   1  -4   8   50.83    1.95
   1  -4   8   61.42    3.77
  -1   4  -8   53.53    3.80
  -1   4  -8   55.26    3.31
  -1   4  -8   55.74    2.79
   1  -4   9    3.07    1.97
   1  -4   9    4.73    1.07
   1  -4   9    6.71    2.46
  -1   4  -9    6.02    1.69
  -1   4  -9    4.69    3.36
  -1   4  -9    5.07    4.03
   1  -4  10    7.46    3.20
   1  -4  10    6.92    2.65
   1  -4  10    4.66    1.15
  -1   4 -10    4.72    2.05
  -1   4 -10    3.91    1.09
  -1   4 -10    5.06    2.55
   1  -4  11   24.99    1.68
   1  -4  11   25.82    2.71
   1  -4  11   27.77    3.71
  -1   4 -11   26.73    2.91
  -1   4 -11   27.60    3.65
  -1   4 -11   25.74    1.66
   1  -4  12   22.18    3.65
   1  -4  12   18.57    2.63
  -1   4 -12   15.50    3.71
  -1   4 -12   23.66    4.34
   1  -4  13   42.28    7.41
   1  -4  13   31.11    4.81
  -1   4 -13   36.27    4.62
  -1   4 -13   32.61    5.05
   1  -4  14   13.14    6.42
   1  -4  14    9.74    3.97
  -1   4 -14    9.14    3.97
  -1   4 -14   10.14    2.68
   1  -3 -17    7.55    3.51
   1  -3 -17   -0.01    4.13
   1  -3 -17    6.04    3.42
  -1   3  17    6.19    2.73
   1  -3 -16   24.18    6.58
   1  -3 -16   26.17    4.10
   1  -3 -16   26.71    5.10
  -1   3  16   22.86    3.25
   1  -3 -15   -0.03    2.20
   1  -3 -15    6.18    2.84
   1  -3 -15    5.32    2.80
  -1   3  15    5.15    3.77
   1  -3 -14   15.19    3.26
   1  -3 -14   16.45    2.65
   1  -3 -14   14.79    3.30
  -1   3  14   16.03    2.67
   1  -3 -13  463.74   12.30
   1  -3 -13  473.01   12.29
   1  -3 -13  467.88   11.55
  -1   3  13  457.76   11.36
   1  -3 -12   99.20    4.54
   1  -3 -12   93.09    4.07
   1  -3 -12   93.20    4.67
  -1   3  12   98.03    4.09
   1  -3 -11  547.90   15.32
   1  -3 -11  566.61   13.22
   1  -3 -11  558.31   12.68
  -1   3  11  545.19   12.31
   1  -3 -10    7.74    3.17
   1  -3 -10    6.53    2.91
   1  -3 -10    1.49    1.77
  -1   3  10    0.43    2.25
   1  -3  -9  472.34   10.40
   1  -3  -9  480.30   10.31
   1  -3  -9  491.24   10.39
  -1   3   9  478.16   10.20
   1  -3  -8  478.49   10.48
   1  -3  -8  452.32    9.96
   1  -3  -8  476.88    9.75
  -1   3   8  446.04    9.86
   1  -3  -7    1.82    1.03
   1  -3  -7    0.42    0.30
   1  -3  -7    0.26    1.11
  -1   3   7    3.64    1.53
  -1   3   7   -0.35    1.00
  -1   3   7    0.11    0.29
   1  -3  -6   59.66    2.51
   1  -3  -6   68.75    1.30
   1  -3  -6   71.41    2.72
  -1   3   6   65.13    2.47
  -1   3   6   63.85    1.27
  -1   3   6   69.54    3.81
   1  -3  -5  480.16    9.25
   1  -3  -5  496.18    8.31
   1  -3  -5  472.86    8.87
  -1   3   5  519.19    9.74
  -1   3   5  484.92    9.48
  -1   3   5  472.59    7.98
   1  -3  -4 2106.51   36.79
   1  -3  -4 2075.62   38.21
   1  -3  -4 2040.79   38.22
  -1   3   4 2038.58   35.58
  -1   3   4 2035.07   37.45
  -1   3   4 2053.39   38.17
   1  -3  -3 7088.93  147.78
   1  -3  -3 7030.51  149.88
   1  -3  -3 6854.44  148.46
  -1   3   3 6973.46  148.15
  -1   3   3 6878.01  146.25
  -1   3   3 6793.44  143.93
   1  -3  -2 1149.17   19.95
   1  -3  -2 1110.37   19.80
   1  -3  -2 1139.31   20.04
  -1   3   2 1130.52   19.96
  -1   3   2 1132.47   20.07
  -1   3   2 1129.44   20.52
   1  -3  -1   57.85    2.09
   1  -3  -1   58.83    2.08
   1  -3  -1   45.78    1.82
  -1   3   1   40.91    1.89
  -1   3   1   57.39    2.06
  -1   3   1   50.64    2.65
   1  -3   0  181.36    5.24
   1  -3   0  205.01    4.64
   1  -3   0  215.74    5.50
   1  -3   0  183.15    3.92
  -1   3   0  195.12    4.17
  -1   3   0  174.42    4.03
   1  -3   1  606.36   10.82
   1  -3   1  592.86   10.28
   1  -3   1  589.53   10.01
   1  -3   1  599.00   12.07
  -1   3  -1  600.11   10.84
  -1   3  -1  612.87   11.18
   1  -3   2 1357.54   25.90
   1  -3   2 1373.20   23.91
   1  -3   2 1346.63   23.99
   1  -3   2 1333.89   24.50
  -1   3  -2 1341.65   25.62
  -1   3  -2 1393.44   26.83
   1  -3   3  820.76   15.35
   1  -3   3  785.83   13.38
   1  -3   3  804.75   14.90
  -1   3  -3  816.86   13.90
  -1   3  -3  836.70   15.64
  -1   3  -3  813.07   15.21
   1  -3   4  606.82   10.47
   1  -3   4  637.52   13.61
   1  -3   4  604.64   11.85
  -1   3  -4  635.33   12.36
  -1   3  -4  604.54   11.74
  -1   3  -4  621.21   10.57
   1  -3   5   24.47    2.04
   1  -3   5   25.65    2.14
   1  -3   5   28.24    1.89
  -1   3  -5   30.21    3.24
  -1   3  -5   28.25    1.24
  -1   3  -5   24.29    3.37
   1  -3   6   24.56    1.31
   1  -3   6   29.89    3.66
   1  -3   6   24.14    2.06
  -1   3  -6   25.68    2.23
  -1   3  -6   33.47    2.38
  -1   3  -6   38.06    1.42
   1  -3   7   78.43    2.19
   1  -3   7   78.82    3.09
   1  -3   7   82.03    3.46
  -1   3  -7   84.95    3.49
  -1   3  -7   85.83    4.62
  -1   3  -7   80.69    2.87
   1  -3   8   48.05    3.15
   1  -3   8   41.49    2.60
   1  -3   8   45.26    2.56
  -1   3  -8   48.86    2.76
  -1   3  -8   44.70    3.17
  -1   3  -8   46.73    1.75
   1  -3   9  151.28    4.69
   1  -3   9  168.39    5.84
   1  -3   9  153.02    3.71
  -1   3  -9  160.95    7.57
  -1   3  -9  155.67    4.84
  -1   3  -9  157.22    4.57
   1  -3  10   94.13    2.79
   1  -3  10   99.52    4.74
   1  -3  10   89.11    3.56
  -1   3 -10   98.25    6.77
  -1   3 -10   98.64    5.39
  -1   3 -10   92.49    3.59
   1  -3  11    3.11    2.39
   1  -3  11    2.65    2.57
   1  -3  11    3.51    1.84
  -1   3 -11    2.40    1.05
  -1   3 -11    3.70    2.69
  -1   3 -11    3.07    2.29
   1  -3  12    2.68    1.53
   1  -3  12    1.93    1.14
   1  -3  12   -0.78    3.99
  -1   3 -12    1.16    1.69
  -1   3 -12    3.98    2.35
  -1   3 -12    1.02    1.57
   1  -3  13   15.50    2.55
   1  -3  13   12.00    5.61
   1  -3  13   12.28    2.16
  -1   3 -13   19.28    3.50
  -1   3 -13   14.03    2.49
  -1   3 -13   15.83    2.30
   1  -3  14    0.60    2.52
   1  -3  14    0.44    1.44
  -1   3 -14    1.76    4.26
  -1   3 -14    0.68    1.58
   1  -3  15    9.54    3.58
   1  -3  15    4.98    1.96
  -1   3 -15    8.30    6.01
  -1   3 -15    9.16    2.18
   1  -2 -17   11.48    4.14
   1  -2 -17   19.50    2.83
   1  -2 -17   13.11    4.03
  -1   2  17   15.87    2.85
   1  -2 -16   63.99    5.46
   1  -2 -16   63.40    3.85
   1  -2 -16   70.91    7.99
  -1   2  16   68.63    5.88
   1  -2 -15   86.13    4.14
   1  -2 -15   89.66    7.77
   1  -2 -15   86.17    5.41
  -1   2  15   78.87    4.03
   1  -2 -14   32.63    3.81
   1  -2 -14   31.50    2.83
   1  -2 -14   34.40    3.81
  -1   2  14   29.24    2.83
   1  -2 -13  177.85    6.41
   1  -2 -13  179.08    6.66
   1  -2 -13  171.83    7.17
  -1   2  13  177.74    7.18
   1  -2 -12    2.97    2.55
   1  -2 -12    3.63    2.08
   1  -2 -12    1.84    2.02
  -1   2  12    0.75    1.37
   1  -2 -11   79.97    3.87
   1  -2 -11   84.29    4.71
   1  -2 -11   82.39    3.77
  -1   2  11   79.86    3.27
   1  -2 -10   -0.10    2.32
   1  -2 -10    1.35    1.94
   1  -2 -10    0.01    1.38
  -1   2  10   -0.52    1.23
   1  -2  -9  184.31    6.67
   1  -2  -9  188.18    4.94
   1  -2  -9  183.59    4.63
  -1   2   9  182.83    4.66
   1  -2  -8    6.17    2.34
   1  -2  -8    6.41    1.37
   1  -2  -8    5.13    2.53
  -1   2   8    5.76    1.35
   1  -2  -7 1972.27   37.27
   1  -2  -7 2020.82   38.20
   1  -2  -7 1946.82   37.16
  -1   2   7 2005.45   37.95
   1  -2  -6  887.68   17.13
   1  -2  -6  876.72   15.85
   1  -2  -6  880.98   16.19
  -1   2   6  872.11   16.95
   1  -2  -5 2463.22   41.10
   1  -2  -5 2338.75   43.97
   1  -2  -5 2370.83   44.26
  -1   2   5 2301.02   42.92
  -1   2   5 2335.61   38.76
  -1   2   5 2305.45   43.40
   1  -2  -4 1648.40   26.78
   1  -2  -4 1593.84   29.48
   1  -2  -4 1585.73   27.95
  -1   2   4 1586.15   28.29
  -1   2   4 1571.72   27.76
  -1   2   4 1654.25   26.86
   1  -2  -3 2880.30   54.63
   1  -2  -3 2832.91   53.34
   1  -2  -3 2764.67   48.72
  -1   2   3 2776.44   51.27
  -1   2   3 2681.10   46.86
  -1   2   3 2743.03   51.47
   1  -2  -2 2224.19   40.97
   1  -2  -2 2233.92   39.45
   1  -2  -2 2208.34   38.41
  -1   2   2 2241.17   39.66
  -1   2   2 2229.68   39.50
  -1   2   2 2244.94   40.26
   1  -2  -1  285.20    5.66
   1  -2  -1  273.10    4.93
   1  -2  -1  267.45    4.75
  -1   2   1  270.43    4.82
  -1   2   1  266.34    4.65
  -1   2   1  266.06    4.65
   1  -2   0  207.19    3.74
   1  -2   0  212.65    4.06
   1  -2   0  209.31    3.96
   1  -2   0  211.12    4.13
  -1   2   0  200.44    4.07
  -1   2   0  215.46    4.07
   1  -2   1 1354.55   23.40
   1  -2   1 1371.99   23.28
   1  -2   1 1349.60   22.40
  -1   2  -1 1377.81   22.91
  -1   2  -1 1377.33   23.81
  -1   2  -1 1374.21   24.24
   1  -2   2 3985.85   75.76
   1  -2   2 3993.47   79.10
   1  -2   2 4182.00   80.38
  -1   2  -2 4099.26   79.69
  -1   2  -2 4021.43   76.51
  -1   2  -2 4124.18   79.68
   1  -2   3  201.88    4.47
   1  -2   3  205.41    4.32
   1  -2   3  201.79    3.64
  -1   2  -3  185.76    5.02
  -1   2  -3  164.23    3.28
  -1   2  -3  167.27    3.99
   1  -2   4  394.69    6.63
   1  -2   4  406.39    7.59
   1  -2   4  411.00    8.65
  -1   2  -4  402.41    6.65
  -1   2  -4  402.75    7.51
  -1   2  -4  396.51    7.38
   1  -2   5   48.94    3.05
   1  -2   5   39.94    1.34
   1  -2   5   39.15    1.84
  -1   2  -5   39.03    1.96
  -1   2  -5   42.83    1.39
  -1   2  -5   39.10    2.74
   1  -2   6   59.90    1.73
   1  -2   6   60.16    2.24
   1  -2   6   60.41    2.50
  -1   2  -6   60.34    2.27
  -1   2  -6   58.22    1.69
  -1   2  -6   56.38    3.61
   1  -2   7  119.49    3.67
   1  -2   7  112.03    2.66
   1  -2   7  116.69    4.26
  -1   2  -7  115.44    3.59
  -1   2  -7  115.07    2.61
  -1   2  -7  122.33    4.38
   1  -2   8  286.20    7.19
   1  -2   8  281.80    6.24
   1  -2   8  278.16    5.65
  -1   2  -8  297.37    6.54
  -1   2  -8  275.81    6.86
  -1   2  -8  283.64    5.56
   1  -2   9  107.95    3.92
   1  -2   9  110.07    3.39
   1  -2   9  116.15    4.40
  -1   2  -9  112.50    3.82
  -1   2  -9  114.28    3.53
  -1   2  -9  122.53    6.15
   1  -2  10   44.54    2.34
   1  -2  10   42.91    2.04
   1  -2  10   46.80    3.38
  -1   2 -10   48.95    5.07
  -1   2 -10   43.04    2.86
  -1   2 -10   49.41    3.59
   1  -2  11   47.04    2.21
   1  -2  11   44.69    2.38
   1  -2  11   49.15    3.72
  -1   2 -11   46.80    3.66
  -1   2 -11   48.35    3.10
  -1   2 -11   46.02    5.62
   1  -2  12    8.64    2.76
   1  -2  12   17.34    2.61
   1  -2  12   19.29    3.04
  -1   2 -12   14.95    1.61
  -1   2 -12   13.03    4.73
  -1   2 -12   12.03    1.81
   1  -2  13    8.45    2.49
   1  -2  13    8.92    4.70
   1  -2  13    8.03    2.53
  -1   2 -13    6.78    4.74
  -1   2 -13    9.35    1.52
  -1   2 -13    7.71    1.65
   1  -2  14   10.20    3.30
   1  -2  14    8.76    1.70
   1  -2  14    6.62    1.66
  -1   2 -14   10.37    3.34
  -1   2 -14    7.31    2.63
  -1   2 -14    9.36    1.75
   1  -2  15   54.39    2.95
   1  -2  15   64.23    5.27
  -1   2 -15   58.10    5.20
  -1   2 -15   48.70    2.76
   1  -2  16    3.57    5.48
  -1   2 -16    4.94    3.53
   1  -1 -17    1.95    4.75
   1  -1 -17    1.40    1.78
   1  -1 -17    3.90    3.23
  -1   1  17    2.51    1.95
   1  -1 -16   -1.05    4.71
   1  -1 -16    2.84    1.70
   1  -1 -16   -0.73    2.75
  -1   1  16    0.82    2.67
   1  -1 -15   21.89    3.80
   1  -1 -15   18.11    2.37
   1  -1 -15   23.94    3.61
  -1   1  15   16.73    2.35
   1  -1 -14  109.18    5.69
   1  -1 -14  111.47    7.68
   1  -1 -14  108.03    3.94
  -1   1  14  107.29    5.53
   1  -1 -13  126.68    4.18
   1  -1 -13  132.93    5.61
   1  -1 -13  130.28    5.46
  -1   1  13  128.56    4.20
   1  -1 -12   10.65    2.73
   1  -1 -12   17.95    2.53
   1  -1 -12   14.18    2.83
  -1   1  12   14.42    2.84
   1  -1 -11   77.35    3.64
   1  -1 -11   77.63    4.05
   1  -1 -11   77.67    5.52
  -1   1  11   77.12    4.06
   1  -1 -10   21.26    1.76
   1  -1 -10   21.94    2.29
   1  -1 -10   21.86    2.39
  -1   1  10   24.34    1.84
   1  -1  -9  253.77    6.34
   1  -1  -9  245.37    5.92
   1  -1  -9  249.13    5.56
  -1   1   9  237.91    5.31
   1  -1  -8   30.71    2.14
   1  -1  -8   32.35    1.77
   1  -1  -8   34.43    2.28
  -1   1   8   32.11    1.73
   1  -1  -7  304.65    6.19
   1  -1  -7  300.94    6.61
   1  -1  -7  297.83    6.34
  -1   1   7  283.63    5.84
   1  -1  -6 4270.76   85.18
   1  -1  -6 4206.08   84.51
   1  -1  -6 4258.39   83.76
  -1   1   6 4231.12   84.42
   1  -1  -5   13.89    0.25
   1  -1  -5   12.94    1.17
   1  -1  -5   13.13    1.69
   1  -1  -5   13.56    0.24
   1  -1  -5   11.63    1.22
  -1   1   5   13.68    1.09
   1  -1  -4  110.98    2.44
   1  -1  -4  117.02    2.62
   1  -1  -4  116.00    1.53
   1  -1  -4  119.07    3.17
   1  -1  -4  123.45    1.78
  -1   1   4  118.04    2.48
   1  -1  -3 4388.73   83.52
   1  -1  -3 4361.00   83.18
   1  -1  -3 4500.71   81.22
  -1   1   3 4475.62   85.17
  -1   1   3 4346.35   78.35
  -1   1   3 4358.98   82.94
   1  -1  -2 5766.14  111.10
   1  -1  -2 5873.83  114.96
   1  -1  -2 5506.36  108.75
  -1   1   2 5817.10  116.36
  -1   1   2 5764.50  113.21
  -1   1   2 5737.18  109.96
   1  -1  -1  741.80   11.71
   1  -1  -1  754.26   11.41
   1  -1  -1  737.98   11.29
  -1   1   1  774.27   12.97
  -1   1   1  731.71   11.22
  -1   1   1  798.21   12.67
   1  -1   0 7746.18  158.59
   1  -1   0 7869.10  161.57
   1  -1   0 7945.46  162.94
  -1   1   0 7659.42  156.37
  -1   1   0 7771.85  158.92
  -1   1   0 7765.87  157.93
   1  -1   1 4417.30   82.31
   1  -1   1 4325.02   80.54
   1  -1   1 4287.16   80.78
  -1   1  -1 4288.37   79.88
  -1   1  -1 4246.87   78.94
  -1   1  -1 4404.82   83.01
   1  -1   2   65.66    2.09
   1  -1   2   60.63    1.65
   1  -1   2   60.17    1.49
  -1   1  -2   60.95    1.64
  -1   1  -2   64.73    2.02
  -1   1  -2   68.86    1.60
   1  -1   3  692.20   11.26
   1  -1   3  854.26   13.87
   1  -1   3  801.21   13.30
  -1   1  -3  663.87   11.12
  -1   1  -3  810.34   12.78
  -1   1  -3  780.47   12.99
   1  -1   4  924.54   15.70
   1  -1   4  906.59   15.17
   1  -1   4  915.98   15.52
  -1   1  -4  931.18   15.63
  -1   1  -4  909.61   14.71
  -1   1  -4  906.82   15.43
   1  -1   5   13.44    0.93
   1  -1   5   19.28    1.33
   1  -1   5   14.57    1.09
  -1   1  -5   14.49    1.12
  -1   1  -5   17.18    1.33
  -1   1  -5   16.70    0.97
   1  -1   6   27.69    1.88
   1  -1   6   26.67    1.89
  -1   1  -6   13.72    1.21
  -1   1  -6   16.14    2.30
  -1   1  -6   11.61    1.03
   1  -1   7  334.94    7.01
   1  -1   7  320.42    5.90
   1  -1   7  331.20    6.14
  -1   1  -7  345.38    6.33
  -1   1  -7  339.80    6.16
  -1   1  -7  324.03    6.86
   1  -1   8  480.64    8.98
   1  -1   8  503.48   10.56
   1  -1   8  518.61   10.71
  -1   1  -8  475.70   10.11
  -1   1  -8  488.67   10.18
  -1   1  -8  499.21    9.39
   1  -1   9   13.23    2.15
   1  -1   9   17.77    1.33
   1  -1   9   13.18    1.43
  -1   1  -9   15.83    2.12
  -1   1  -9   15.75    2.11
  -1   1  -9   16.33    2.14
   1  -1  10  173.40    4.29
   1  -1  10  181.82    5.46
   1  -1  10  168.71    3.94
  -1   1 -10  168.44    5.40
  -1   1 -10  173.02    4.19
  -1   1 -10  184.49    5.17
   1  -1  11  174.91    4.51
   1  -1  11  176.93    4.12
   1  -1  11  188.73    6.00
  -1   1 -11  179.63    4.53
  -1   1 -11  176.35    5.80
  -1   1 -11  183.10    4.24
   1  -1  12    5.81    2.21
   1  -1  12    2.34    1.05
   1  -1  12    2.90    1.34
  -1   1 -12    4.23    1.11
  -1   1 -12    3.34    3.57
  -1   1 -12    2.48    1.30
   1  -1  13   63.97    3.25
   1  -1  13   67.60    2.98
   1  -1  13   69.18    6.62
  -1   1 -13   65.19    3.97
  -1   1 -13   68.25    2.41
  -1   1 -13   72.16    4.33
   1  -1  14   84.95    3.35
   1  -1  14   90.43    5.14
   1  -1  14   75.74    2.61
  -1   1 -14   81.86    3.68
  -1   1 -14   84.13    5.11
  -1   1 -14   76.54    3.30
   1  -1  15   37.90    4.23
   1  -1  15   31.97    2.66
  -1   1 -15   35.20    3.69
  -1   1 -15   32.70    4.27
   1  -1  16    9.46    2.14
   1  -1  16   12.93    5.97
  -1   1 -16    6.22    1.90
  -1   1 -16    9.78    3.59
   1  -1  17  135.53    7.84
  -1   1 -17  130.40    7.75
   1   0 -17   20.48    6.84
   1   0 -17   16.83    4.26
   1   0 -16  214.18    8.71
   1   0 -16  177.06    7.12
   1   0 -16  213.15    8.98
  -1   0  16  200.17    7.58
   1   0 -15    3.49    2.99
   1   0 -15    3.11    2.37
   1   0 -15    4.30    4.52
  -1   0  15    3.05    1.61
   1   0 -14   57.14    2.67
   1   0 -14   61.95    4.60
   1   0 -14   65.12    4.43
  -1   0  14   56.41    3.94
   1   0 -13   36.97    3.54
   1   0 -13   39.29    2.19
   1   0 -13   41.44    3.73
  -1   0  13    3.77    3.40
  -1   0  13   42.08    2.19
   1   0 -12    0.17    0.39
   1   0 -12    0.25    0.90
   1   0 -12   -0.43    1.61
  -1   0  12    0.32    0.83
  -1   0  12   -0.34    1.50
  -1   0  12    0.02    0.25
   1   0 -11    4.29    0.44
   1   0 -11    2.89    2.03
   1   0 -11    3.14    1.18
  -1   0  11    2.95    0.98
  -1   0  11   -0.06    0.46
  -1   0  11    3.13    1.78
   1   0 -10  463.84    7.56
   1   0 -10  445.93   10.42
   1   0 -10  455.68    8.87
  -1   0  10  457.89   12.51
  -1   0  10  449.06    9.74
  -1   0  10  434.32    7.02
   1   0  -9  660.10   13.91
   1   0  -9  706.34   11.48
   1   0  -9  673.32   12.51
  -1   0   9  670.38   14.01
  -1   0   9  647.32   12.09
  -1   0   9  650.25   10.60
   1   0  -8  502.82    8.07
   1   0  -8  476.30   10.07
   1   0  -8  480.75    8.65
  -1   0   8  464.20    7.00
  -1   0   8  480.83    9.85
  -1   0   8  469.44    8.46
   1   0  -7  966.94   19.69
   1   0  -7  981.92   16.88
   1   0  -7 1009.87   16.05
  -1   0   7  947.32   16.24
  -1   0   7  945.63   14.92
  -1   0   7  963.00   19.22
   1   0  -6 1544.38   25.32
   1   0  -6 1461.11   27.07
   1   0  -6 1523.79   27.25
  -1   0   6 1502.89   24.35
  -1   0   6 1459.79   26.70
  -1   0   6 1448.15   25.21
   1   0  -5  518.73   10.16
   1   0  -5  521.45    8.35
   1   0  -5  541.10    7.82
  -1   0   5  518.68    8.79
  -1   0   5  521.79    7.48
  -1   0   5  518.91    9.18
   1   0  -4  947.58   16.13
   1   0  -4  997.73   15.13
   1   0  -4  990.06   16.14
  -1   0   4  968.81   15.78
  -1   0   4  959.24   14.21
  -1   0   4  945.15   16.04
   1   0  -3 2251.88   37.01
   1   0  -3 2178.98   38.19
   1   0  -3 2229.82   38.00
  -1   0   3 2220.34   39.61
  -1   0   3 2213.26   36.18
  -1   0   3 2253.66   38.46
   1   0  -2 5786.55  110.03
   1   0  -2 5772.85  113.69
   1   0  -2 5764.97  110.55
  -1   0   2 5773.87  112.63
  -1   0   2 5814.20  110.99
  -1   0   2 5782.64  111.81
   1   0  -1  581.76    8.30
   1   0  -1  615.86    9.03
   1   0  -1  600.14    8.80
   1   0  -1  645.34    9.37
   1   0   1   20.51    0.95
   1   0   1   12.69    0.55
  -1   0  -1    9.62    0.47
  -1   0  -1   13.88    0.93
   1   0   2 1180.09   18.63
   1   0   2 1179.10   18.10
   1   0   2 1180.14   18.44
  -1   0  -2 1173.12   17.93
  -1   0  -2 1158.65   18.14
  -1   0  -2 1160.17   18.78
   1   0   3  112.98    2.21
   1   0   3  113.31    2.26
   1   0   3  113.81    2.19
  -1   0  -3  114.79    2.16
  -1   0  -3  110.16    2.75
  -1   0  -3  111.60    2.18
   1   0   4 1036.27   17.72
   1   0   4  858.39   13.99
   1   0   4 1012.36   16.73
  -1   0  -4  956.47   16.01
  -1   0  -4  914.48   15.08
  -1   0  -4  880.63   14.36
   1   0   5  581.29    9.73
   1   0   5  587.35    9.99
   1   0   5  577.44    9.09
  -1   0  -5  570.45    9.78
  -1   0  -5  594.86    9.86
  -1   0  -5  582.32    9.71
   1   0   6  217.53    4.24
   1   0   6  225.85    5.55
   1   0   6  215.06    3.75
  -1   0  -6  222.40    4.58
  -1   0  -6  227.03    4.41
  -1   0  -6  219.83    4.28
   1   0   7  393.91    7.70
   1   0   7  383.88    8.04
   1   0   7  379.14    6.97
  -1   0  -7  379.61    7.08
  -1   0  -7  426.24    6.96
  -1   0  -7  369.53    7.39
   1   0   8  146.78    4.40
   1   0   8  147.28    2.92
   1   0   8  147.79    5.11
  -1   0  -8  138.23    3.80
  -1   0  -8  148.91    3.47
  -1   0  -8  145.66    3.42
   1   0   9  141.75    3.57
   1   0   9  140.71    4.83
   1   0   9  149.58    4.36
  -1   0  -9  144.60    2.94
  -1   0  -9  141.45    3.61
  -1   0  -9  138.13    5.64
   1   0  10   22.59    2.40
   1   0  10   24.06    1.18
   1   0  10   23.95    1.78
  -1   0 -10   23.71    2.36
  -1   0 -10   22.10    2.71
  -1   0 -10   25.01    1.77
   1   0  11   34.12    2.31
   1   0  11   34.79    2.09
   1   0  11   43.80    3.00
  -1   0 -11   33.97    2.06
  -1   0 -11   36.22    2.20
  -1   0 -11   36.37    2.99
   1   0  12  133.32    2.96
   1   0  12  146.70    5.20
   1   0  12  144.74    4.25
  -1   0 -12  143.18    7.27
  -1   0 -12  143.42    5.42
  -1   0 -12  142.33    3.69
   1   0  13   43.62    3.65
   1   0  13   40.27    2.14
   1   0  13   42.44    2.67
  -1   0 -13   40.24    2.18
  -1   0 -13   46.72    2.62
  -1   0 -13   41.44    3.63
   1   0  14    2.53    2.62
   1   0  14    2.71    1.19
   1   0  14    2.80    4.00
  -1   0 -14    2.19    0.74
  -1   0 -14    2.85    2.44
  -1   0 -14    3.20    2.45
   1   0  15  249.29    8.80
   1   0  15  229.13    8.56
  -1   0 -15  219.28    7.99
  -1   0 -15  223.28    6.55
   1   0  16    0.38    1.46
   1   0  16   -1.43    2.34
  -1   0 -16   -0.87    2.26
  -1   0 -16    1.14    2.21
  -1   0 -16    0.34    2.25
   1   0  17   -0.36    1.63
  -1   0 -17   -1.99    5.20
  -1   0 -17   -1.60    3.14
  -1   0 -17   -3.30    1.88
   1   1 -16   41.61    4.81
   1   1 -16   42.30    4.89
  -1  -1  16    0.88    2.94
   1   1 -15   42.36    4.55
  -1  -1  15   39.12    4.83
   1   1 -14    1.25    2.62
   1   1 -14    2.51    1.15
  -1  -1  14    2.86    4.47
  -1  -1  14    2.49    1.95
   1   1 -13   48.13    2.39
   1   1 -13   48.90    3.09
   1   1 -13   57.59    6.33
  -1  -1  13   50.25    4.19
  -1  -1  13   47.51    2.20
  -1  -1  13   47.70    2.27
   1   1 -12  194.84    4.74
   1   1 -12  189.04    5.21
   1   1 -12  193.30    6.79
  -1  -1  12  196.83    9.08
  -1  -1  12  189.63    4.35
  -1  -1  12  181.55    4.39
   1   1 -11   73.74    2.29
   1   1 -11   80.15    2.15
   1   1 -11   83.04    4.23
  -1  -1  11   79.70    4.31
  -1  -1  11   75.91    2.67
  -1  -1  11   78.86    3.24
   1   1 -10  203.63    4.40
   1   1 -10  212.44    4.32
   1   1 -10  223.46    8.81
  -1  -1  10  208.35    4.95
  -1  -1  10  199.90    4.35
  -1  -1  10  208.74    8.81
   1   1  -9  445.26    8.63
   1   1  -9  437.21    9.96
   1   1  -9  456.40    8.88
  -1  -1   9  455.09   10.20
  -1  -1   9  420.08    8.06
  -1  -1   9  439.23    8.54
   1   1  -8  259.77    6.32
   1   1  -8  265.06    4.85
   1   1  -8  262.79    5.27
  -1  -1   8  256.88    7.81
  -1  -1   8  251.03    4.51
  -1  -1   8  248.54    4.46
   1   1  -7   47.61    1.28
   1   1  -7   46.95    2.42
   1   1  -7   46.04    2.14
  -1  -1   7   46.59    1.29
  -1  -1   7   51.26    2.36
  -1  -1   7   44.71    1.86
   1   1  -6  456.03    7.09
   1   1  -6  452.87    8.74
   1   1  -6  453.96    7.53
  -1  -1   6  443.47    7.77
  -1  -1   6  454.15    8.70
  -1  -1   6  439.65    6.88
   1   1  -5  154.36    2.71
   1   1  -5  154.85    3.51
   1   1  -5  156.41    2.92
  -1  -1   5  151.24    2.39
  -1  -1   5  147.25    2.69
  -1  -1   5  153.69    4.45
   1   1  -4  112.09    2.70
   1   1  -4  114.40    1.94
   1   1  -4  112.06    2.21
  -1  -1   4  110.54    3.57
  -1  -1   4  115.19    2.67
  -1  -1   4  109.76    1.67
   1   1  -3  256.75    4.22
   1   1  -3  255.96    3.29
   1   1  -3  254.20    4.51
  -1  -1   3  250.39    4.04
  -1  -1   3  260.62    5.42
  -1  -1   3  253.62    3.43
   1   1  -2 6156.43  114.71
   1   1  -2 6144.20  122.30
   1   1  -2 6364.86  118.79
   1   1  -2 6226.89  123.30
  -1  -1   2 6021.93  119.40
  -1  -1   2 6131.76  121.39
   1   1  -1 3192.78   57.14
   1   1  -1 3282.60   59.19
   1   1  -1 3270.72   54.32
  -1  -1   1 3112.54   55.49
  -1  -1   1 3333.78   59.63
   1   1   0   25.96    0.80
   1   1   0   35.77    1.02
  -1  -1   0    3.47    0.22
  -1  -1   0    1.05    0.29
   1   1   1 1202.94   17.66
   1   1   1 1169.02   18.47
   1   1   1 1185.40   18.29
  -1  -1  -1 1211.31   17.83
  -1  -1  -1 1167.24   18.01
  -1  -1  -1 1193.29   18.63
   1   1   2  635.39    9.39
   1   1   2  634.34    9.36
   1   1   2  641.79   10.56
  -1  -1  -2  628.74    8.97
  -1  -1  -2  594.14    8.80
   1   1   3 4812.53   90.33
   1   1   3 5014.61   94.51
   1   1   3 4930.70   95.08
  -1  -1  -3 4902.29   95.56
  -1  -1  -3 4810.57   92.20
  -1  -1  -3 4906.30   92.60
   1   1   4  875.76   14.60
   1   1   4  891.57   13.91
  -1  -1  -4  871.24   14.24
  -1  -1  -4  867.55   15.20
   1   1   5 1486.93   24.17
   1   1   5 1653.91   28.85
   1   1   5 1588.17   28.97
  -1  -1  -5 1565.08   28.40
  -1  -1  -5 1545.35   27.15
  -1  -1  -5 1546.37   25.00
   1   1   6 1723.69   31.07
   1   1   6 1784.36   29.86
   1   1   6 1812.27   33.49
  -1  -1  -6 1728.33   31.05
  -1  -1  -6 1826.74   30.32
  -1  -1  -6 1722.35   31.96
   1   1   7  119.54    3.20
   1   1   7  141.63    4.62
  -1  -1  -7  139.56    4.64
  -1  -1  -7  108.61    3.23
   1   1   8  807.17   12.69
   1   1   8  834.90   16.86
   1   1   8  796.81   15.80
  -1  -1  -8  824.93   12.86
  -1  -1  -8  804.17   15.17
  -1  -1  -8  822.94   15.17
   1   1   9   67.60    2.96
   1   1   9   58.98    1.82
   1   1   9   67.41    2.66
  -1  -1  -9   55.93    1.28
  -1  -1  -9   58.64    2.71
  -1  -1  -9   64.53    2.50
   1   1  10   64.33    1.83
   1   1  10   66.04    3.18
   1   1  10   65.82    2.78
  -1  -1 -10   65.67    3.15
  -1  -1 -10   68.97    1.80
  -1  -1 -10   67.64    2.80
   1   1  11  117.33    2.17
   1   1  11  121.07    4.54
   1   1  11  116.09    3.90
  -1  -1 -11  119.80    5.26
  -1  -1 -11  118.41    4.36
  -1  -1 -11  122.09    2.60
   1   1  12  178.20    5.10
   1   1  12  167.57    3.24
  -1  -1 -12  184.80    7.76
  -1  -1 -12  174.80    5.07
   1   1  13    8.65    3.01
   1   1  13    6.99    0.72
  -1  -1 -13    7.92    2.95
  -1  -1 -13    7.16    2.45
  -1  -1 -13    9.14    2.34
   1   1  14   78.03    3.73
  -1  -1 -14   77.97    4.42
  -1  -1 -14   69.56    6.83
  -1  -1 -14   78.35    3.62
   1   1  15  148.41    5.36
  -1  -1 -15  136.75    6.15
  -1  -1 -15  153.66    5.26
  -1  -1 -15  155.89    6.69
   1   1  16  243.29    9.53
  -1  -1 -16  253.15   12.25
  -1  -1 -16  244.12    9.36
  -1  -1 -16  242.09    8.86
   1   1  17  129.80    7.46
  -1  -1 -17  135.08    7.33
  -1  -1 -17  134.02    5.45
  -1  -1 -17  135.05    9.79
   1   1  18   33.86    3.51
  -1  -1 -18   28.33    4.51
  -1  -1 -18   30.65    7.85
  -1  -1 -18   29.14    3.39
   1   2 -16    0.97    3.01
  -1  -2  16   -0.37    4.54
   1   2 -15    3.18    3.19
  -1  -2  15    2.00    3.02
   1   2 -14   11.69    3.60
  -1  -2  14    9.85    5.52
   1   2 -13    9.05    1.42
   1   2 -13    8.64    5.01
  -1  -2  13    8.88    2.87
  -1  -2  13    3.28    1.60
  -1  -2  13    3.98    1.92
   1   2 -12   13.36    1.64
   1   2 -12   16.44    3.06
   1   2 -12   15.51    2.43
  -1  -2  12   10.48    2.19
  -1  -2  12   13.89    1.76
  -1  -2  12   18.39    3.11
   1   2 -11   33.24    1.29
   1   2 -11   31.93    2.88
   1   2 -11   35.11    3.42
  -1  -2  11   32.39    1.40
  -1  -2  11   35.18    5.43
  -1  -2  11   41.76    2.71
   1   2 -10  235.10    4.98
   1   2 -10  244.96    7.15
   1   2 -10  250.08    5.54
  -1  -2  10  230.21    5.11
  -1  -2  10  248.81    7.29
  -1  -2  10  233.02    4.34
   1   2  -9   27.04    1.46
   1   2  -9   27.20    1.80
   1   2  -9   27.74    2.79
  -1  -2   9   27.20    2.74
  -1  -2   9   25.84    1.52
  -1  -2   9   24.79    2.35
   1   2  -8  202.75    5.69
   1   2  -8  186.08    3.65
   1   2  -8  184.29    5.48
  -1  -2   8  178.70    4.00
  -1  -2   8  186.23    7.04
  -1  -2   8  181.30    3.65
   1   2  -7  434.69    9.12
   1   2  -7  449.61    8.48
   1   2  -7  424.23    6.78
  -1  -2   7  418.39    6.42
  -1  -2   7  429.27   10.59
  -1  -2   7  422.67    8.74
   1   2  -6  599.46    9.08
   1   2  -6  604.67   11.87
   1   2  -6  603.61   10.94
  -1  -2   6  582.76   10.46
  -1  -2   6  589.48   11.48
  -1  -2   6  589.93    9.02
   1   2  -5 1249.15   19.09
   1   2  -5 1202.04   22.22
   1   2  -5 1236.10   22.07
  -1  -2   5 1224.53   18.77
  -1  -2   5 1231.56   24.01
  -1  -2   5 1191.60   21.10
   1   2  -4 3894.71   67.83
   1   2  -4 3775.17   74.16
   1   2  -4 3816.13   75.42
  -1  -2   4 3752.01   72.45
  -1  -2   4 3758.39   73.71
  -1  -2   4 3789.34   65.87
   1   2  -3   13.55    1.14
   1   2  -3   11.51    1.06
  -1  -2   3   11.80    1.02
  -1  -2   3   14.70    1.17
   1   2  -2  352.11    6.80
   1   2  -2  360.47    6.28
  -1  -2   2  348.80    6.81
  -1  -2   2  355.83    4.27
  -1  -2   2  351.05    6.11
   1   2  -1  198.33    3.50
   1   2  -1  203.61    2.64
   1   2  -1  200.55    3.74
  -1  -2   1  194.94    3.44
  -1  -2   1  199.67    3.62
   1   2   0 1093.02   17.53
   1   2   0 1087.59   17.93
   1   2   0 1139.99   17.34
  -1  -2   0 1081.22   16.39
  -1  -2   0 1112.48   17.82
  -1  -2   0 1097.42   18.70
   1   2   1  832.50   12.96
   1   2   1  839.71   13.59
   1   2   1  849.50   13.94
  -1  -2  -1  843.88   13.13
  -1  -2  -1  835.33   13.48
  -1  -2  -1  840.30   13.60
   1   2   2 2335.35   40.91
   1   2   2 2425.97   42.18
   1   2   2 2384.21   41.64
  -1  -2  -2 2492.53   43.23
  -1  -2  -2 2265.97   39.62
  -1  -2  -2 2254.44   38.99
   1   2   3 1232.02   20.86
   1   2   3 1251.03   20.55
   1   2   3 1224.00   20.25
  -1  -2  -3 1233.38   21.82
  -1  -2  -3 1218.58   20.16
  -1  -2  -3 1223.12   19.69
   1   2   4 7653.82  162.52
   1   2   4 7574.73  157.57
   1   2   4 7602.67  155.45
  -1  -2  -4 7341.23  154.51
  -1  -2  -4 7629.34  158.16
  -1  -2  -4 7525.40  153.29
   1   2   5  469.48    7.04
   1   2   5  547.89   10.41
  -1  -2  -5  437.44    7.69
  -1  -2  -5  485.85    8.64
  -1  -2  -5  532.59    9.59
   1   2   6  289.59    4.57
   1   2   6  289.79    4.52
   1   2   6  286.26    5.66
  -1  -2  -6  294.18    5.41
  -1  -2  -6  285.89    5.63
  -1  -2  -6  278.90    5.30
   1   2   7   24.60    0.70
   1   2   7   30.00    1.82
  -1  -2  -7   21.47    1.53
  -1  -2  -7   33.34    2.32
  -1  -2  -7   28.30    1.73
   1   2   8  106.38    3.29
   1   2   8  101.14    1.68
   1   2   8   98.78    1.91
  -1  -2  -8  102.34    3.14
  -1  -2  -8  101.89    4.45
  -1  -2  -8   98.58    3.22
   1   2   9  877.08   17.00
   1   2   9  883.38   13.26
  -1  -2  -9  896.21   17.45
  -1  -2  -9  871.83   16.95
  -1  -2  -9  905.48   17.47
   1   2  10 1150.06   22.90
   1   2  10 1119.41   17.43
  -1  -2 -10 1121.95   22.23
  -1  -2 -10 1097.83   21.73
  -1  -2 -10 1135.29   22.54
   1   2  11   15.08    0.45
   1   2  11   16.44    3.30
   1   2  11   16.08    0.45
  -1  -2 -11   17.72    3.62
  -1  -2 -11   16.41    2.11
  -1  -2 -11   19.92    2.13
   1   2  12  329.06    8.17
  -1  -2 -12  326.65    8.10
  -1  -2 -12  320.37    7.96
  -1  -2 -12  321.88    8.25
   1   2  13  376.21   11.59
  -1  -2 -13  348.28    9.79
  -1  -2 -13  349.93    9.51
  -1  -2 -13  377.98   11.39
   1   2  14  840.66   19.16
  -1  -2 -14  853.95   19.28
  -1  -2 -14  830.15   19.64
  -1  -2 -14  841.32   22.95
   1   2  15   44.11    5.19
  -1  -2 -15   45.67    4.34
  -1  -2 -15   45.18    3.41
  -1  -2 -15   49.41    4.06
   1   2  16   -1.91    2.02
  -1  -2 -16   -0.48    3.01
  -1  -2 -16    1.57    3.73
  -1  -2 -16    1.95    2.49
   1   2  17   -0.06    1.65
  -1  -2 -17   -0.83    1.78
  -1  -2 -17    1.64    3.85
  -1  -2 -17    1.64    2.26
   1   2  18    0.69    3.27
  -1  -2 -18   -0.59    2.86
  -1  -2 -18    2.51    2.11
  -1  -2 -18    0.72    2.99
   1   3 -15   19.40    7.11
  -1  -3  15   20.02    4.53
   1   3 -14   99.24    6.44
  -1  -3  14   88.01    4.95
  -1  -3  14  108.20    9.35
   1   3 -13    1.46    1.53
   1   3 -13    6.25    2.84
  -1  -3  13    4.74    2.87
  -1  -3  13    0.54    2.25
   1   3 -12  128.59    4.27
   1   3 -12  130.41    6.31
  -1  -3  12  121.15    4.02
  -1  -3  12  134.86    6.36
   1   3 -11  145.34    6.09
   1   3 -11  133.88    2.89
   1   3 -11  143.73    4.44
  -1  -3  11  148.05    6.01
  -1  -3  11  132.19    2.47
  -1  -3  11  134.19    4.07
   1   3 -10  182.77    6.31
   1   3 -10  173.54    3.28
   1   3 -10  179.23    6.46
  -1  -3  10  168.96    5.88
  -1  -3  10  170.68    2.93
  -1  -3  10  189.33    8.64
   1   3  -9  106.85    1.83
   1   3  -9  109.72    5.03
   1   3  -9  111.47    4.60
  -1  -3   9  103.05    3.29
  -1  -3   9  107.60    4.62
  -1  -3   9  102.49    2.14
   1   3  -8  252.19    6.98
   1   3  -8  259.66    7.72
   1   3  -8  253.22    3.73
  -1  -3   8  238.05    5.64
  -1  -3   8  256.92    6.88
  -1  -3   8  238.59    3.88
   1   3  -7  888.30   18.25
   1   3  -7  937.85   20.22
   1   3  -7  907.59   13.92
  -1  -3   7  908.54   18.66
  -1  -3   7  873.16   13.43
  -1  -3   7  858.82   16.91
   1   3  -6  458.94    9.84
   1   3  -6  547.70   11.90
  -1  -3   6  459.99    6.53
  -1  -3   6  463.23   10.30
  -1  -3   6  472.03    9.91
   1   3  -5   -0.44    1.05
   1   3  -5    0.03    1.58
  -1  -3   5    0.31    0.21
  -1  -3   5    0.09    0.13
  -1  -3   5   -0.29    0.98
  -1  -3   5   -0.57    0.86
   1   3  -4  126.16    4.56
   1   3  -4  115.34    3.38
  -1  -3   4  116.62    3.24
  -1  -3   4  118.43    3.43
   1   3  -3  301.48    6.07
   1   3  -3  309.93    6.33
  -1  -3   3  307.73    6.16
  -1  -3   3  299.13    4.08
  -1  -3   3  296.10    5.95
   1   3  -2   27.45    1.55
   1   3  -2   32.98    1.71
  -1  -3   2   31.27    0.82
  -1  -3   2   31.73    1.64
  -1  -3   2   28.39    1.58
   1   3  -1  622.30   10.67
   1   3  -1  561.97    8.48
   1   3  -1  582.46   10.48
  -1  -3   1  644.03   11.01
  -1  -3   1  521.62    7.86
  -1  -3   1  525.49    9.48
   1   3   0   81.09    2.32
   1   3   0   82.53    2.06
   1   3   0   82.04    2.12
  -1  -3   0   77.73    2.27
  -1  -3   0   80.22    1.61
  -1  -3   0   83.64    2.80
   1   3   1  411.36    7.25
   1   3   1  423.20    6.95
   1   3   1  422.01    8.05
  -1  -3  -1  449.98    7.62
  -1  -3  -1  428.54    7.52
  -1  -3  -1  399.28    6.58
   1   3   2 7136.23  149.13
   1   3   2 7201.17  149.97
   1   3   2 7010.53  149.03
  -1  -3  -2 7006.07  146.16
  -1  -3  -2 7038.45  146.27
  -1  -3  -2 7064.53  148.24
   1   3   3 1222.77   20.70
   1   3   3 1236.65   20.99
   1   3   3 1247.78   21.54
  -1  -3  -3 1217.25   21.08
  -1  -3  -3 1241.49   21.07
  -1  -3  -3 1226.79   20.68
   1   3   4   39.02    1.47
   1   3   4   33.02    2.49
   1   3   4   30.58    1.69
  -1  -3  -4   37.10    1.66
  -1  -3  -4   29.57    1.36
  -1  -3  -4   32.12    1.15
   1   3   5  573.53    9.94
   1   3   5  584.20   10.64
   1   3   5  591.19    9.57
  -1  -3  -5  622.54   10.78
  -1  -3  -5  600.85   10.07
  -1  -3  -5  570.90   10.41
   1   3   6  915.09   16.92
   1   3   6  898.74   16.16
   1   3   6  887.99   14.32
  -1  -3  -6  906.29   14.61
  -1  -3  -6  897.86   18.08
  -1  -3  -6  872.98   15.66
   1   3   7  284.91    6.09
   1   3   7  279.25    4.35
  -1  -3  -7  280.24    5.99
  -1  -3  -7  282.79    5.65
   1   3   8   59.62    2.66
   1   3   8   64.88    1.52
   1   3   8   65.12    1.55
  -1  -3  -8   65.68    2.35
  -1  -3  -8   65.99    2.69
  -1  -3  -8   62.78    2.43
   1   3   9    1.50    0.48
   1   3   9    1.53    1.38
   1   3   9    1.27    0.31
  -1  -3  -9    0.74    1.23
  -1  -3  -9    1.15    2.28
  -1  -3  -9    3.29    1.32
   1   3  10  222.35    7.64
   1   3  10  214.15    3.09
  -1  -3 -10  210.27    5.42
  -1  -3 -10  218.86    5.80
  -1  -3 -10  217.62    5.82
   1   3  11  385.90    9.35
  -1  -3 -11  381.60    9.34
  -1  -3 -11  384.25    9.03
  -1  -3 -11  383.52    9.30
   1   3  12  536.89   12.54
  -1  -3 -12  515.29   12.30
  -1  -3 -12  517.84   11.98
  -1  -3 -12  516.21   12.07
   1   3  13  551.86   15.77
  -1  -3 -13  565.93   13.49
  -1  -3 -13  565.21   13.56
  -1  -3 -13  545.58   13.47
   1   3  14  145.11    5.41
  -1  -3 -14  147.16    5.43
  -1  -3 -14  138.45    5.61
  -1  -3 -14  139.78    5.77
   1   3  15    1.21    3.18
  -1  -3 -15    0.24    3.31
  -1  -3 -15   -0.06    1.82
  -1  -3 -15    1.22    1.98
   1   3  16   13.91    2.90
  -1  -3 -16   11.72    3.23
  -1  -3 -16    9.36    3.08
  -1  -3 -16   11.41    2.84
   1   3  17    2.03    3.80
  -1  -3 -17    0.78    2.93
  -1  -3 -17    1.71    2.22
  -1  -3 -17    2.77    2.63
   1   3  18   26.75    3.97
  -1  -3 -18   24.78    4.56
  -1  -3 -18   19.13    5.71
   1   4 -14   54.54    3.68
   1   4 -14   66.93    5.80
  -1  -4  14   66.35    5.66
  -1  -4  14   50.41    3.30
   1   4 -13   14.08    4.03
   1   4 -13   20.72    4.06
  -1  -4  13   17.78    4.07
  -1  -4  13   16.61    2.46
   1   4 -12   -0.27    1.86
   1   4 -12    0.33    1.97
  -1  -4  12   -0.62    2.11
  -1  -4  12    0.34    2.25
   1   4 -11   21.93    4.07
   1   4 -11   21.71    3.52
  -1  -4  11   17.04    2.24
  -1  -4  11   20.28    5.47
   1   4 -10   53.00    4.13
   1   4 -10   51.52    4.85
  -1  -4  10   48.84    2.91
  -1  -4  10   51.89    6.25
   1   4  -9  141.55    5.87
   1   4  -9  147.62    6.85
  -1  -4   9  136.32    4.52
  -1  -4   9  142.09    5.75
   1   4  -8    0.44    1.86
   1   4  -8    0.71    1.54
  -1  -4   8    2.66    1.99
  -1  -4   8    0.60    1.54
   1   4  -7  427.38   10.11
   1   4  -7  411.00   12.46
  -1  -4   7  391.66    9.11
  -1  -4   7  416.50   10.13
   1   4  -6  187.60    5.53
   1   4  -6  191.32    5.47
  -1  -4   6  171.63    2.29
  -1  -4   6  174.80    5.32
  -1  -4   6  170.85    2.31
  -1  -4   6  179.79    6.25
   1   4  -5   64.69    2.98
   1   4  -5   65.90    4.40
  -1  -4   5   59.70    0.93
  -1  -4   5   67.95    4.34
  -1  -4   5   62.04    2.73
   1   4  -4   96.24    4.90
   1   4  -4   91.81    4.57
  -1  -4   4   90.33    3.22
  -1  -4   4   90.76    3.27
   1   4  -3  217.16    6.49
   1   4  -3  216.29    5.45
  -1  -4   3  206.16    5.02
  -1  -4   3  181.14    3.05
  -1  -4   3  176.82    3.07
  -1  -4   3  223.63    6.49
   1   4  -2   48.75    2.39
   1   4  -2   51.47    2.20
  -1  -4   2   46.14    1.46
  -1  -4   2   45.78    2.11
  -1  -4   2   49.56    2.20
  -1  -4   2   48.67    1.05
   1   4  -1   83.92    2.64
   1   4  -1   92.59    2.34
   1   4  -1   94.96    4.34
  -1  -4   1   95.33    4.05
  -1  -4   1   89.07    2.32
  -1  -4   1   84.32    2.78
   1   4   0  493.40    9.13
   1   4   0  495.88    8.20
   1   4   0  501.69    9.55
  -1  -4   0  489.91    9.26
  -1  -4   0  491.10    9.10
  -1  -4   0  484.35    8.03
   1   4   1  391.80    6.83
   1   4   1  382.67    7.35
   1   4   1  381.03    7.92
  -1  -4  -1  378.47    6.58
  -1  -4  -1  383.69    7.35
  -1  -4  -1  368.43    6.91
   1   4   2  184.08    4.09
   1   4   2  193.72    4.01
   1   4   2  189.88    3.89
  -1  -4  -2  186.60    3.98
  -1  -4  -2  190.08    4.69
  -1  -4  -2  187.67    3.99
   1   4   3  876.70   16.67
   1   4   3  870.58   15.50
   1   4   3  870.43   16.35
  -1  -4  -3  876.82   15.40
  -1  -4  -3  865.43   15.41
  -1  -4  -3  847.48   16.25
   1   4   4  461.40    8.66
   1   4   4  447.76    8.07
   1   4   4  448.48    8.20
  -1  -4  -4  443.77    8.11
  -1  -4  -4  441.42    7.89
  -1  -4  -4  450.72    8.47
   1   4   5  214.47    6.02
   1   4   5  205.46    4.36
   1   4   5  203.54    4.02
  -1  -4  -5  205.59    4.34
  -1  -4  -5  209.37    4.68
  -1  -4  -5  208.65    5.86
   1   4   6  126.90    3.56
   1   4   6  125.54    3.14
   1   4   6  124.63    2.64
  -1  -4  -6  129.06    3.54
  -1  -4  -6  127.87    3.16
  -1  -4  -6  120.46    3.12
   1   4   7    2.35    0.65
   1   4   7    2.51    1.42
   1   4   7    2.59    1.12
  -1  -4  -7    2.47    0.95
  -1  -4  -7    1.27    1.37
  -1  -4  -7    3.01    1.79
   1   4   8  203.36    5.56
   1   4   8  175.03    3.30
  -1  -4  -8  197.91    6.94
  -1  -4  -8  163.85    4.29
  -1  -4  -8  168.86    3.69
   1   4   9   81.87    3.67
   1   4   9   80.97    2.15
   1   4   9   81.66    1.66
  -1  -4  -9   83.34    3.72
  -1  -4  -9   84.08    3.37
  -1  -4  -9   85.95    4.57
   1   4  10  799.98   13.10
   1   4  10  797.46   12.81
   1   4  10  826.89   17.58
  -1  -4 -10  824.47   17.54
  -1  -4 -10  798.78   17.20
  -1  -4 -10  814.12   17.38
   1   4  11  709.82   10.28
   1   4  11  693.32    9.97
   1   4  11  747.76   16.24
  -1  -4 -11  743.04   18.28
  -1  -4 -11  749.17   18.05
  -1  -4 -11  749.45   18.72
   1   4  12  466.71   11.37
  -1  -4 -12  439.83   13.05
  -1  -4 -12  463.33   11.31
  -1  -4 -12  448.24   10.78
   1   4  13   62.39    5.75
  -1  -4 -13   61.75    3.81
  -1  -4 -13   61.27    3.64
  -1  -4 -13   55.89    3.77
   1   4  14  108.14    5.08
  -1  -4 -14  107.58    7.12
  -1  -4 -14   97.91    4.94
  -1  -4 -14  105.96    4.77
   1   4  15  114.64    5.45
  -1  -4 -15  109.23    5.51
  -1  -4 -15  116.15    5.38
  -1  -4 -15  113.15    5.58
   1   4  16   31.10    5.97
  -1  -4 -16   22.03    3.70
  -1  -4 -16   22.37    3.52
  -1  -4 -16   24.01    3.48
   1   4  17   10.64    3.36
  -1  -4 -17    9.09    5.32
  -1  -4 -17    8.00    3.15
  -1  -4 -17    0.02    4.84
   1   4  18  290.83   14.30
  -1  -4 -18  289.13   10.88
  -1  -4 -18  287.59   10.41
  -1  -4 -18  259.94   10.61
   1   5 -13   -1.83    5.23
  -1  -5  13    1.64    1.97
  -1  -5  13    0.07    3.04
   1   5 -12    1.13    4.99
   1   5 -12    2.92    3.50
  -1  -5  12    0.28    2.60
  -1  -5  12   -1.64    4.02
   1   5 -11    2.50    3.50
   1   5 -11    0.15    4.60
  -1  -5  11    2.00    2.57
  -1  -5  11    0.31    1.74
   1   5 -10  206.85    6.96
   1   5 -10  204.07   11.08
  -1  -5  10  183.47    8.36
  -1  -5  10  216.64    7.97
   1   5  -9  502.46   12.97
   1   5  -9  497.17   13.58
  -1  -5   9  494.72   13.54
  -1  -5   9  453.39   11.64
   1   5  -8    0.04    1.59
   1   5  -8   -0.38    1.78
  -1  -5   8    0.44    2.33
  -1  -5   8    0.02    1.81
   1   5  -7   64.63    5.90
   1   5  -7   64.25    5.74
  -1  -5   7   56.08    3.35
  -1  -5   7   60.73    3.79
   1   5  -6   14.65    2.55
   1   5  -6   13.46    2.52
  -1  -5   6   12.54    0.42
  -1  -5   6   12.05    2.50
  -1  -5   6   11.57    0.42
  -1  -5   6   15.76    2.25
   1   5  -5   23.26    4.06
   1   5  -5   27.76    2.73
  -1  -5   5   26.81    3.82
  -1  -5   5   24.38    2.62
  -1  -5   5   23.94    0.84
   1   5  -4  103.89    3.89
   1   5  -4  109.00    4.16
  -1  -5   4  101.66    1.81
  -1  -5   4  103.35    2.22
  -1  -5   4  111.29    5.58
  -1  -5   4  102.47    5.44
   1   5  -3   48.76    2.96
   1   5  -3   44.62    2.65
  -1  -5   3   48.42    1.17
  -1  -5   3   44.13    1.21
  -1  -5   3   44.67    2.69
  -1  -5   3   41.95    2.75
   1   5  -2    4.52    1.47
   1   5  -2    2.61    1.69
  -1  -5   2    3.52    2.52
  -1  -5   2    4.30    0.60
  -1  -5   2    3.34    0.67
  -1  -5   2    4.76    2.42
   1   5  -1   71.74    2.85
   1   5  -1   70.57    3.27
  -1  -5   1   73.68    4.38
  -1  -5   1   72.53    2.83
  -1  -5   1   70.32    2.50
  -1  -5   1   71.33    1.75
   1   5   0 1966.86   38.50
   1   5   0 2060.94   37.79
   1   5   0 2022.06   40.14
  -1  -5   0 1958.01   38.78
  -1  -5   0 1963.30   36.10
  -1  -5   0 1943.35   38.45
   1   5   1   49.73    2.28
   1   5   1   49.78    2.58
   1   5   1   50.91    1.87
  -1  -5  -1   44.54    2.32
  -1  -5  -1   43.54    2.57
  -1  -5  -1   41.84    2.35
   1   5   2  217.01    4.91
   1   5   2  224.82    5.72
   1   5   2  214.07    6.30
  -1  -5  -2  213.70    6.12
  -1  -5  -2  215.67    4.96
  -1  -5  -2  209.40    4.57
   1   5   3  727.36   13.62
   1   5   3  709.35   13.56
   1   5   3  711.40   13.47
  -1  -5  -3  702.14   13.20
  -1  -5  -3  704.75   13.47
  -1  -5  -3  716.28   15.02
   1   5   4  926.93   17.53
   1   5   4  942.10   17.70
   1   5   4  890.68   17.06
  -1  -5  -4  937.97   17.57
  -1  -5  -4  960.55   19.41
  -1  -5  -4  917.37   18.85
   1   5   5  281.22    7.65
   1   5   5  282.93    6.02
   1   5   5  274.72    5.69
  -1  -5  -5  273.82    5.94
  -1  -5  -5  271.14    6.18
  -1  -5  -5  280.06    5.62
   1   5   6  238.36    6.55
   1   5   6  233.70    4.89
   1   5   6  237.68    5.79
  -1  -5  -6  239.18    5.69
  -1  -5  -6  241.80    7.25
  -1  -5  -6  234.63    6.62
   1   5   7  314.09    7.01
   1   5   7  320.26    7.07
   1   5   7  321.06    7.54
  -1  -5  -7  310.46    6.95
  -1  -5  -7  321.26    6.03
  -1  -5  -7  309.64    7.37
   1   5   8 1774.00   32.71
   1   5   8 1855.10   39.95
   1   5   8 1806.12   35.92
  -1  -5  -8 1799.69   36.69
  -1  -5  -8 1809.14   33.02
  -1  -5  -8 1783.41   35.70
   1   5   9    4.74    1.46
   1   5   9    6.18    2.28
   1   5   9    7.13    1.90
  -1  -5  -9    6.86    1.86
  -1  -5  -9    5.63    1.34
  -1  -5  -9    4.56    3.67
   1   5  10 2875.05   55.67
   1   5  10 2967.34   63.47
  -1  -5 -10 3017.21   67.75
  -1  -5 -10 3012.99   65.05
   1   5  11    3.78    0.94
   1   5  11    6.27    0.87
   1   5  11    4.69    2.39
  -1  -5 -11    4.01    2.30
  -1  -5 -11    5.30    2.07
   1   5  12    4.28    3.66
  -1  -5 -12    2.55    1.86
  -1  -5 -12    2.61    2.09
  -1  -5 -12    0.41    1.81
   1   5  13  136.69    8.18
  -1  -5 -13  139.23    5.36
  -1  -5 -13  142.56    5.77
  -1  -5 -13  136.57    5.41
   1   5  14   43.09    4.10
  -1  -5 -14   38.25    3.67
  -1  -5 -14   46.46    6.01
  -1  -5 -14   37.45    3.79
   1   5  15   39.71    4.31
  -1  -5 -15   33.18    3.94
  -1  -5 -15   34.85    4.05
  -1  -5 -15   38.89    5.96
   1   5  16   77.65    8.34
  -1  -5 -16   80.98    7.78
  -1  -5 -16   83.70    7.95
  -1  -5 -16   71.68    5.32
   1   5  17    5.40    3.36
  -1  -5 -17    4.08    3.09
  -1  -5 -17    5.85    5.09
  -1  -5 -17    0.08    5.03
   1   6 -12   81.27    5.11
   1   6 -12   88.71    6.85
  -1  -6  12   85.57    6.64
  -1  -6  12   73.96    4.96
   1   6 -11   64.02    4.95
   1   6 -11   65.46    5.71
  -1  -6  11   48.89    4.11
  -1  -6  11   62.53    5.62
   1   6 -10    6.82    2.84
   1   6 -10    5.24    3.39
  -1  -6  10   -0.02    3.75
  -1  -6  10    8.42    4.86
   1   6  -9    1.22    4.77
   1   6  -9    6.16    4.18
  -1  -6   9    2.07    3.79
  -1  -6   9    0.21    1.93
   1   6  -8   22.71    5.30
   1   6  -8   24.39    3.59
  -1  -6   8   24.75    5.57
  -1  -6   8   19.38    2.97
   1   6  -7   64.24    4.31
   1   6  -7   65.23    4.36
  -1  -6   7   68.60    6.53
  -1  -6   7   53.21    5.76
   1   6  -6    5.98    2.50
   1   6  -6    3.46    3.93
  -1  -6   6    1.79    1.97
  -1  -6   6    2.56    3.49
   1   6  -5   65.47    3.93
   1   6  -5   65.24    4.14
  -1  -6   5   66.64    5.54
  -1  -6   5   63.67    3.71
  -1  -6   5   56.33    1.54
   1   6  -4   57.55    3.93
   1   6  -4   57.90    3.58
  -1  -6   4   58.03    3.53
  -1  -6   4   53.10    1.90
  -1  -6   4   54.19    3.50
  -1  -6   4   50.92    1.34
   1   6  -3  145.59    5.07
   1   6  -3  150.65    5.48
  -1  -6   3  141.60    4.98
  -1  -6   3  153.53    5.16
  -1  -6   3  137.13    2.84
  -1  -6   3  136.79    2.75
   1   6  -2  453.60   10.96
   1   6  -2  435.86   10.17
  -1  -6   2  427.75    7.85
  -1  -6   2  434.70    7.74
  -1  -6   2  454.54   10.64
  -1  -6   2  436.59   12.14
   1   6  -1  604.12   13.60
   1   6  -1  588.86   12.95
  -1  -6   1  569.65   10.51
  -1  -6   1  588.61   12.95
  -1  -6   1  587.80   12.99
  -1  -6   1  582.18   10.44
   1   6   0  867.73   18.10
   1   6   0  903.99   16.73
   1   6   0  870.84   18.54
  -1  -6   0  829.25   16.60
  -1  -6   0  863.88   17.80
  -1  -6   0  860.65   18.18
   1   6   1   86.33    3.74
   1   6   1   90.11    4.84
   1   6   1   88.58    2.73
  -1  -6  -1   83.94    3.38
  -1  -6  -1   83.42    2.69
  -1  -6  -1   83.95    3.52
   1   6   2 1111.92   21.25
   1   6   2 1073.69   22.05
   1   6   2 1074.77   21.58
  -1  -6  -2 1082.96   21.64
  -1  -6  -2 1043.08   20.15
  -1  -6  -2 1082.80   23.54
   1   6   3    2.09    2.37
   1   6   3    0.83    1.32
   1   6   3    2.01    1.24
  -1  -6  -3    1.02    1.28
  -1  -6  -3    0.44    1.18
  -1  -6  -3    0.84    1.31
   1   6   4   -0.05    2.08
   1   6   4    1.22    1.27
   1   6   4    1.07    1.26
  -1  -6  -4    1.50    1.30
  -1  -6  -4    0.93    1.18
  -1  -6  -4    1.11    2.15
   1   6   5  547.55   11.51
   1   6   5  553.94   11.72
   1   6   5  547.58   12.88
  -1  -6  -5  543.47   11.45
  -1  -6  -5  543.47   11.54
  -1  -6  -5  542.28   12.31
   1   6   6  492.39   11.64
   1   6   6  512.03   12.66
   1   6   6  515.70   11.31
  -1  -6  -6  492.75   11.10
  -1  -6  -6  509.41   12.78
  -1  -6  -6  507.46   11.59
   1   6   7  174.18    5.48
   1   6   7  164.85    4.33
   1   6   7  167.97    5.11
  -1  -6  -7  162.34    4.09
  -1  -6  -7  163.21    4.96
  -1  -6  -7  163.19    5.51
   1   6   8  554.29   14.38
   1   6   8  563.35   13.05
   1   6   8  542.34   10.71
  -1  -6  -8  553.45   12.36
  -1  -6  -8  547.15   15.04
  -1  -6  -8  542.46   11.68
   1   6   9  918.84   19.79
   1   6   9  941.75   21.01
   1   6   9  899.99   17.18
  -1  -6  -9  909.35   20.49
  -1  -6  -9  908.67   16.94
  -1  -6  -9  940.25   23.16
   1   6  10   19.02    1.33
   1   6  10   20.17    2.48
   1   6  10   16.79    4.66
  -1  -6 -10   20.54    4.68
  -1  -6 -10   21.36    1.84
  -1  -6 -10   21.56    4.01
   1   6  11   85.81    2.27
   1   6  11   89.86    4.06
   1   6  11   88.45    6.99
  -1  -6 -11   92.06    4.66
  -1  -6 -11   80.36    2.04
  -1  -6 -11   92.32    4.16
   1   6  12    0.80    0.81
   1   6  12   -1.38    3.45
   1   6  12    0.46    0.75
  -1  -6 -12    0.10    3.15
  -1  -6 -12    1.33    2.19
  -1  -6 -12    0.95    3.10
   1   6  13    5.71    2.92
  -1  -6 -13   11.01    3.02
  -1  -6 -13    3.30    4.44
  -1  -6 -13    6.76    2.69
   1   6  14   12.82    3.47
  -1  -6 -14   13.89    4.70
  -1  -6 -14   12.92    3.36
  -1  -6 -14    4.27    4.81
   1   6  15   21.02    4.01
  -1  -6 -15   18.01    5.75
  -1  -6 -15   19.45    6.04
  -1  -6 -15   18.26    5.74
   1   6  16  133.16    7.13
  -1  -6 -16  129.46    6.89
  -1  -6 -16  136.94    9.96
  -1  -6 -16  127.30    6.85
   1   6  17    7.17    5.99
  -1  -6 -17    6.28    3.56
  -1  -6 -17    6.82    3.49
  -1  -6 -17    6.51    3.51
   1   7 -10   37.58    7.38
   1   7 -10   35.97    5.32
  -1  -7  10   36.05    4.12
  -1  -7  10   36.33    5.03
   1   7  -9    5.64    3.13
   1   7  -9    6.09    3.59
  -1  -7   9   -0.38    4.27
  -1  -7   9    5.67    3.26
   1   7  -8   24.72    4.01
   1   7  -8   24.39    4.21
  -1  -7   8   22.26    3.52
  -1  -7   8   24.07    4.08
   1   7  -7   19.65    5.64
   1   7  -7   13.53    5.50
  -1  -7   7   14.04    3.15
  -1  -7   7   17.54    5.52
   1   7  -6    0.60    2.60
   1   7  -6    3.11    2.45
  -1  -7   6    5.73    4.31
  -1  -7   6    3.14    2.48
   1   7  -5    2.02    2.26
   1   7  -5    0.61    4.02
  -1  -7   5    0.38    3.26
  -1  -7   5    0.85    2.08
   1   7  -4    5.87    2.73
   1   7  -4    3.46    2.39
  -1  -7   4    4.39    1.99
  -1  -7   4    1.69    1.03
  -1  -7   4    3.54    1.98
  -1  -7   4    0.00    0.59
   1   7  -3    5.46    2.35
   1   7  -3    6.31    4.49
  -1  -7   3    7.64    2.42
  -1  -7   3    5.01    2.43
  -1  -7   3    4.19    1.40
  -1  -7   3    6.11    1.49
   1   7  -2  361.46   10.39
   1   7  -2  356.37    9.63
  -1  -7   2  360.26    9.60
  -1  -7   2  347.28    9.62
  -1  -7   2  333.81    6.70
  -1  -7   2  341.38    7.48
   1   7  -1  285.69    8.00
   1   7  -1  286.80    8.66
  -1  -7   1  272.13    8.01
  -1  -7   1  285.08   10.26
  -1  -7   1  264.22    5.60
  -1  -7   1  269.79    5.78
   1   7   0  363.20   12.35
   1   7   0  369.45    9.38
  -1  -7   0  341.16    7.26
  -1  -7   0  354.28    9.21
  -1  -7   0  355.88    9.23
  -1  -7   0  341.49    7.12
   1   7   1  248.17    6.91
   1   7   1  251.58    7.11
   1   7   1  248.06    7.42
  -1  -7  -1  242.17    8.97
  -1  -7  -1  254.61    7.12
  -1  -7  -1  241.52    6.96
   1   7   2    1.78    1.95
   1   7   2    3.88    2.83
   1   7   2    2.55    1.37
  -1  -7  -2    3.14    1.38
  -1  -7  -2    1.67    1.77
  -1  -7  -2    1.45    2.85
   1   7   3  227.14    5.86
   1   7   3  218.99    6.23
   1   7   3  218.22    6.46
  -1  -7  -3  212.54    5.80
  -1  -7  -3  223.52    6.46
  -1  -7  -3  225.52    6.29
   1   7   4   19.50    2.59
   1   7   4   21.94    2.38
   1   7   4   18.19    2.60
  -1  -7  -4   19.73    2.46
  -1  -7  -4   21.76    3.78
  -1  -7  -4   22.13    2.67
   1   7   5  194.71    5.93
   1   7   5  198.82    7.88
   1   7   5  195.24    5.75
  -1  -7  -5  191.78    7.03
  -1  -7  -5  191.80    8.10
  -1  -7  -5  187.17    5.76
   1   7   6  509.39   11.36
   1   7   6  534.67   12.22
   1   7   6  529.98   12.08
  -1  -7  -6  508.61   11.87
  -1  -7  -6  520.38   11.30
  -1  -7  -6  531.26   14.25
   1   7   7  162.08    5.59
   1   7   7  160.64    5.18
   1   7   7  160.67    4.65
  -1  -7  -7  158.46    5.28
  -1  -7  -7  156.81    5.41
  -1  -7  -7  154.27    4.35
   1   7   8  203.86    6.65
   1   7   8  218.29    9.11
   1   7   8  205.48    8.13
  -1  -7  -8  194.62    6.65
  -1  -7  -8  210.13    6.20
  -1  -7  -8  206.44    6.36
   1   7   9    5.79    2.49
   1   7   9    5.33    2.06
   1   7   9    5.57    1.42
  -1  -7  -9    4.52    2.41
  -1  -7  -9    5.04    1.26
  -1  -7  -9    5.06    3.47
   1   7  10   82.70    4.10
   1   7  10   84.54    4.79
   1   7  10   82.25    3.89
  -1  -7 -10   78.37    4.70
  -1  -7 -10   83.21    6.11
   1   7  11  109.82    5.62
   1   7  11  104.79    4.04
   1   7  11  108.82    4.81
  -1  -7 -11  103.07    3.74
  -1  -7 -11  113.89    5.10
  -1  -7 -11  107.74    5.50
   1   7  12  215.43    4.65
   1   7  12  254.31    8.57
   1   7  12  234.17    7.45
  -1  -7 -12  228.63    7.45
  -1  -7 -12  235.05    8.32
   1   7  13   49.39    4.83
  -1  -7 -13   53.15    4.06
  -1  -7 -13   55.83    6.44
  -1  -7 -13   46.44    4.78
   1   7  14   60.96    5.35
  -1  -7 -14   59.94    6.98
  -1  -7 -14   59.76    7.08
  -1  -7 -14   55.12    8.01
   1   7  15    3.45    3.37
  -1  -7 -15    4.47    2.93
  -1  -7 -15    3.97    3.40
  -1  -7 -15    1.42    4.71
   1   7  16   -0.21    2.64
  -1  -7 -16    1.07    2.54
  -1  -7 -16    0.14    4.18
  -1  -7 -16    0.51    2.85
   1   8  -8   -0.11    2.41
   1   8  -8    0.30    2.39
  -1  -8   8   -0.98    2.19
  -1  -8   8    0.97    2.45
   1   8  -7   10.19    3.66
   1   8  -7    9.42    3.78
  -1  -8   7    7.58    5.49
  -1  -8   7   13.16    5.87
   1   8  -6    4.65    4.64
   1   8  -6    1.72    3.08
  -1  -8   6    2.66    2.63
  -1  -8   6   -0.74    4.50
   1   8  -5    1.48    3.05
   1   8  -5    3.11    2.67
  -1  -8   5    3.88    4.73
  -1  -8   5    5.69    2.92
   1   8  -4   52.07    5.06
   1   8  -4   51.57    6.75
  -1  -8   4   37.65    4.22
  -1  -8   4   53.92    6.56
   1   8  -3   18.18    3.19
   1   8  -3   15.00    6.05
  -1  -8   3   15.31    1.99
  -1  -8   3   12.06    1.94
  -1  -8   3   17.90    3.21
  -1  -8   3   14.94    3.29
   1   8  -2    2.21    2.93
   1   8  -2    4.87    2.41
  -1  -8   2    2.63    1.69
  -1  -8   2    6.55    2.62
  -1  -8   2    4.30    2.51
  -1  -8   2    3.49    1.15
   1   8  -1   71.59    4.23
   1   8  -1   70.43    4.91
  -1  -8   1   68.16    4.46
  -1  -8   1   62.78    2.63
  -1  -8   1   64.82    4.33
  -1  -8   1   67.51    3.44
   1   8   0   29.08    6.07
   1   8   0   32.55    3.24
  -1  -8   0   28.28    3.35
  -1  -8   0   27.99    3.43
  -1  -8   0   29.53    2.08
  -1  -8   0   25.55    2.89
   1   8   1    4.16    2.32
   1   8   1    5.01    2.70
  -1  -8  -1    5.12    2.26
  -1  -8  -1    3.70    2.31
  -1  -8  -1    3.13    1.37
  -1  -8  -1    2.72    1.50
   1   8   2  189.31    6.86
   1   8   2  182.80    6.28
   1   8   2  184.68    6.81
  -1  -8  -2  173.63    5.21
  -1  -8  -2  187.98    6.44
  -1  -8  -2  188.19    9.01
   1   8   3  433.33   11.56
   1   8   3  424.57   10.13
   1   8   3  434.73   11.18
  -1  -8  -3  467.55   14.19
  -1  -8  -3  402.95   11.71
  -1  -8  -3  416.43   13.05
   1   8   4  270.59    7.30
   1   8   4  266.66    7.86
   1   8   4  274.04    8.08
  -1  -8  -4  271.25    8.06
  -1  -8  -4  248.38    7.00
  -1  -8  -4  260.81    7.53
   1   8   5   57.62    5.20
   1   8   5   53.61    3.69
   1   8   5   54.73    5.73
  -1  -8  -5   55.37    3.74
  -1  -8  -5   55.99    4.91
  -1  -8  -5   52.60    3.41
   1   8   6  503.84   15.01
   1   8   6  513.15   12.63
   1   8   6  503.73   12.29
  -1  -8  -6  503.01   11.88
  -1  -8  -6  477.62   14.34
  -1  -8  -6  503.96   12.79
   1   8   7   19.81    2.74
   1   8   7   17.12    2.96
   1   8   7   20.41    2.42
  -1  -8  -7   17.09    2.84
  -1  -8  -7   16.90    2.20
  -1  -8  -7   14.61    2.92
   1   8   8   42.87    3.68
   1   8   8   39.11    3.35
   1   8   8   34.41    4.12
  -1  -8  -8   39.42    2.58
  -1  -8  -8   45.21    3.51
  -1  -8  -8   39.23    3.66
   1   8   9   95.80    7.34
   1   8   9   85.20    4.46
   1   8   9   86.12    3.59
  -1  -8  -9   79.03    3.20
  -1  -8  -9   89.26    4.94
  -1  -8  -9   90.93    4.63
   1   8  10  178.83    6.73
   1   8  10  175.52    6.51
   1   8  10  193.22    7.38
  -1  -8 -10  189.53    9.16
  -1  -8 -10  186.16    7.37
  -1  -8 -10  166.94    6.07
   1   8  11   42.60    4.47
   1   8  11   48.78    5.96
   1   8  11   37.24    3.59
  -1  -8 -11   36.71    3.86
  -1  -8 -11   34.35    2.15
  -1  -8 -11   36.10    4.36
   1   8  12    2.12    2.67
   1   8  12   -1.17    1.98
  -1  -8 -12    1.85    2.76
  -1  -8 -12    1.27    2.33
   1   8  13   -0.63    2.76
  -1  -8 -13   -0.62    2.15
  -1  -8 -13    1.14    2.50
  -1  -8 -13    0.34    2.08
   1   8  14   -1.29    3.10
  -1  -8 -14   -0.29    2.10
  -1  -8 -14    0.51    2.18
  -1  -8 -14    0.29    2.49
   1   8  15   20.73    4.73
  -1  -8 -15   22.96    4.19
  -1  -8 -15   18.86    4.70
  -1  -8 -15   16.70    6.50
   1   9  -6    2.19    6.08
   1   9  -6    5.17    3.53
  -1  -9   6    3.62    3.24
  -1  -9   6    2.91    5.52
   1   9  -5    7.57    3.61
   1   9  -5    7.33    4.05
  -1  -9   5    6.24    3.51
  -1  -9   5    4.05    5.53
   1   9  -4   85.77    9.81
   1   9  -4   79.40    5.87
  -1  -9   4   73.37    5.60
  -1  -9   4   88.18    8.84
   1   9  -3    3.63    4.40
   1   9  -3   -0.21    3.11
  -1  -9   3    2.75    2.88
  -1  -9   3    0.97    2.77
   1   9  -2  128.94    7.30
   1   9  -2  115.18    6.20
  -1  -9   2  124.96    6.42
  -1  -9   2  122.10    6.53
   1   9  -1    4.72    2.88
   1   9  -1    6.29    5.52
  -1  -9   1    3.64    2.83
  -1  -9   1    4.81    2.91
  -1  -9   1    4.28    1.47
  -1  -9   1    2.83    1.37
   1   9   0   72.40    5.65
   1   9   0   70.53    7.54
  -1  -9   0   80.14    7.62
  -1  -9   0   65.21    7.31
  -1  -9   0   60.98    3.01
  -1  -9   0   57.48    2.87
   1   9   1  111.42    6.45
   1   9   1  144.09    8.96
  -1  -9  -1   99.99    5.15
  -1  -9  -1   97.38    7.85
  -1  -9  -1  109.49    8.43
  -1  -9  -1   88.33    3.83
   1   9   2  140.18    6.74
  -1  -9  -2  122.31    5.77
  -1  -9  -2  121.63    4.39
  -1  -9  -2  119.37    4.55
   1   9   3   36.20    4.06
   1   9   3   34.63    2.90
  -1  -9  -3   31.90    2.88
  -1  -9  -3   40.55    3.61
   1   9   4   19.75    3.44
   1   9   4   22.15    2.74
  -1  -9  -4   23.71    4.80
  -1  -9  -4   20.90    2.71
   1   9   5   14.37    2.76
   1   9   5   17.86    3.08
  -1  -9  -5   18.75    2.86
  -1  -9  -5   11.36    4.31
   1   9   6    5.44    2.35
   1   9   6   -0.04    4.12
   1   9   6    5.47    2.33
  -1  -9  -6    0.46    1.90
  -1  -9  -6    1.00    2.85
   1   9   7   39.52    3.44
   1   9   7   40.73    3.76
   1   9   7   43.76    3.74
  -1  -9  -7   59.26    6.32
  -1  -9  -7   39.25    3.74
  -1  -9  -7   39.52    3.14
   1   9   8   54.33    5.44
   1   9   8   56.56    4.23
   1   9   8   52.20    4.42
  -1  -9  -8   51.79    3.38
  -1  -9  -8   52.68    4.44
  -1  -9  -8   51.95    6.75
   1   9   9   -0.90    1.65
   1   9   9   -1.78    2.35
   1   9   9    1.42    2.15
  -1  -9  -9    2.16    2.15
  -1  -9  -9   -1.82    2.00
  -1  -9  -9    0.28    1.36
   1   9  10  223.50    8.20
   1   9  10  229.56   12.54
   1   9  10  211.63    8.49
  -1  -9 -10  224.80    8.38
  -1  -9 -10  213.64    8.65
  -1  -9 -10  202.89    6.11
   1   9  11    1.30    2.43
   1   9  11    1.90    1.57
   1   9  11    0.28    3.00
  -1  -9 -11   -2.97    4.35
  -1  -9 -11   -0.87    2.91
   1   9  12    5.93    3.74
   1   9  12    4.99    2.98
  -1  -9 -12    3.09    3.45
  -1  -9 -12    6.14    3.11
   1   9  13   18.87    4.86
   1   9  13   21.54    3.98
  -1  -9 -13   18.46    3.93
  -1  -9 -13   16.20    4.46
   1  10  -2   11.35    4.44
   1  10  -2    9.67    3.78
  -1 -10   2   10.35    3.90
  -1 -10   2   12.00    4.04
   1  10  -1   24.38    8.29
   1  10  -1   27.50    4.40
  -1 -10   1   24.92    4.52
  -1 -10   1   25.84    4.50
   1  10   0   -2.96    3.49
   1  10   0   -1.12    4.93
  -1 -10   0    0.10    2.39
  -1 -10   0    0.24    1.31
  -1 -10   0    0.01    2.36
  -1 -10   0    0.21    2.07
   1  10   1   14.03    3.52
   1  10   1   12.26    4.24
  -1 -10  -1   10.71    5.61
  -1 -10  -1   10.26    2.08
  -1 -10  -1   11.13    3.55
  -1 -10  -1    8.04    2.28
   1  10   2   59.11    4.92
   1  10   2   61.92    5.65
  -1 -10  -2   56.07    4.94
  -1 -10  -2   54.42    4.80
  -1 -10  -2   42.59    3.43
   1  10   3   33.25    4.15
   1  10   3   38.02    4.66
  -1 -10  -3   31.27    2.86
  -1 -10  -3   28.51    3.14
  -1 -10  -3   36.06    6.44
   1  10   4    0.15    1.70
   1  10   4    0.09    2.26
   1  10   4    1.33    2.39
  -1 -10  -4   -0.37    1.95
  -1 -10  -4   -1.74    2.36
   1  10   5    0.42    2.64
   1  10   5   -0.07    1.87
   1  10   5   -0.27    1.97
  -1 -10  -5    1.32    3.47
  -1 -10  -5    0.36    1.97
   1  10   6   23.18    3.47
   1  10   6   20.07    3.16
   1  10   6   -0.03    3.61
  -1 -10  -6   17.59    3.01
  -1 -10  -6    0.10    5.04
  -1 -10  -6   13.37    3.57
   1  10   7  104.03    5.68
   1  10   7  107.66    6.10
   1  10   7  112.56    5.97
  -1 -10  -7   93.76    7.30
  -1 -10  -7  119.29    6.55
  -1 -10  -7  110.37    8.62
   1  10   8  153.65    9.06
   1  10   8  159.52   10.24
   1  10   8  148.42    7.17
  -1 -10  -8  148.08    6.19
  -1 -10  -8  163.91    7.50
  -1 -10  -8  150.11    7.20
   1  10   9    2.84    2.88
   1  10   9    1.18    2.20
   1  10   9    3.41    2.81
  -1 -10  -9    0.02    3.14
  -1 -10  -9    5.11    2.05
  -1 -10  -9    1.35    3.04
   1  10  10   19.53    2.84
   1  10  10   16.84    3.85
   1  10  10   15.87    4.02
  -1 -10 -10   22.08    2.83
  -1 -10 -10   35.87    6.96
  -1 -10 -10   24.02    4.22
   1  10  11    1.01    1.76
   1  10  11    2.01    4.17
   1  10  11    0.61    4.93
  -1 -10 -11    3.28    3.16
  -1 -10 -11    1.45    2.91
  -1 -10 -11    1.53    1.76
   2 -10  -7  128.30   11.10
   2 -10  -7   73.96    6.13
   2 -10  -7   68.95    4.59
   2 -10  -7   78.80    6.13
  -2  10   7   72.41    4.79
   2 -10  -6    0.24    1.66
   2 -10  -6   -0.21    2.61
   2 -10  -6    0.14    2.09
   2 -10  -6   -0.79    3.42
  -2  10   6   -0.03    1.76
   2 -10  -5   -0.96    1.95
   2 -10  -5   -0.03    2.31
   2 -10  -5    0.38    2.63
   2 -10  -5    1.42    2.15
  -2  10   5    0.11    3.14
   2 -10  -4   91.41    6.73
   2 -10  -4   83.53    5.53
   2 -10  -4   87.33    7.89
   2 -10  -4   74.41    5.73
  -2  10   4   80.93    6.24
  -2  10   4   80.08    5.49
   2 -10  -3    8.09    3.35
   2 -10  -3    8.54    2.99
   2 -10  -3    7.16    5.05
  -2  10   3   -0.09    2.02
  -2  10   3    0.06    2.32
   2 -10  -2   19.17    4.22
   2 -10  -2   22.17    3.54
   2 -10  -2   20.52    3.65
  -2  10   2    0.23    2.56
   2 -10  -1   21.85    3.27
   2 -10  -1   18.98    4.71
   2 -10  -1   16.19    6.62
   2 -10  -1   15.49    3.49
  -2  10   1   23.29    4.45
   2 -10   0    0.12    4.19
   2 -10   0   -1.00    2.80
   2 -10   0   -0.82    1.77
   2 -10   0    2.39    3.09
  -2  10   0    0.09    3.13
  -2  10   0    1.72    2.97
   2  -9 -11   91.12   10.71
   2  -9 -11   98.89   11.16
  -2   9  11  100.24    7.26
  -2   9  11   89.58    6.71
   2  -9 -10   95.85    7.09
   2  -9 -10  108.05    7.34
  -2   9  10   94.99    6.60
  -2   9  10   94.27    9.89
   2  -9  -9   13.92    3.79
   2  -9  -9   25.31    4.37
   2  -9  -9   23.79    6.93
  -2   9   9   22.18    6.76
  -2   9   9   16.11    3.97
  -2   9   9   24.80    4.32
   2  -9  -8    0.85    1.67
   2  -9  -8    0.94    2.76
   2  -9  -8    1.49    4.46
  -2   9   8    2.86    2.82
  -2   9   8   -0.04    4.64
  -2   9   8    1.07    2.92
   2  -9  -7    7.43    2.29
   2  -9  -7    6.25    3.42
   2  -9  -7    8.82    3.55
   2  -9  -7    6.31    3.15
  -2   9   7   -0.03    5.47
  -2   9   7    7.21    2.33
   2  -9  -6  155.84    7.63
   2  -9  -6  158.35    6.23
   2  -9  -6  185.60    8.20
   2  -9  -6  173.61    7.13
  -2   9   6  158.15    8.31
   2  -9  -5    5.99    3.12
   2  -9  -5    6.36    2.60
   2  -9  -5    4.82    3.56
   2  -9  -5    6.65    2.99
  -2   9   5   -0.08    1.73
   2  -9  -4    1.91    2.44
   2  -9  -4    3.10    3.65
   2  -9  -4    0.18    2.17
  -2   9   4    0.14    1.83
   2  -9  -3    0.79    2.34
   2  -9  -3    3.20    3.78
   2  -9  -3    2.05    3.48
  -2   9   3    0.07    2.97
   2  -9  -2   -0.36    1.70
   2  -9  -2    0.66    1.61
   2  -9  -2   -0.76    1.93
  -2   9   2    1.43    2.68
  -2   9   2    1.56    3.94
   2  -9  -1    1.28    3.20
   2  -9  -1   -0.84    2.65
   2  -9  -1   -0.12    1.59
  -2   9   1    0.24    2.52
  -2   9   1    1.43    3.83
   2  -9   0    1.95    4.48
   2  -9   0    2.42    2.12
   2  -9   0    1.38    2.01
   2  -9   0    2.57    4.85
  -2   9   0    0.38    4.57
  -2   9   0    2.64    2.81
   2  -9   1    4.89    2.27
   2  -9   1    0.77    5.11
   2  -9   1    5.50    5.45
   2  -9   1    4.54    3.38
  -2   9  -1    3.78    4.90
  -2   9  -1    1.84    3.01
   2  -9   2    2.35    4.58
   2  -9   2    1.00    2.95
   2  -9   2   -1.23    2.91
   2  -9   2    1.99    1.86
  -2   9  -2   -1.54    4.08
  -2   9  -2    0.87    2.43
   2  -9   3    1.91    5.35
   2  -9   3    0.65    3.39
   2  -9   3    3.80    1.98
   2  -9   3    4.24    3.25
  -2   9  -3   -0.04    2.90
  -2   9  -3    2.82    3.09
   2  -9   4    5.20    2.91
   2  -9   4    1.76    3.42
   2  -9   4   -0.12    3.36
   2  -9   4    3.10    3.30
  -2   9  -4    1.05    3.23
  -2   9  -4    2.11    4.90
   2  -8 -13   20.09    8.23
   2  -8 -13   28.20    5.11
   2  -8 -13   28.82    5.08
  -2   8  13   30.51    5.30
   2  -8 -12    2.07    3.02
   2  -8 -12   -1.75    4.69
  -2   8  12    3.28    3.29
  -2   8  12    5.11    3.63
   2  -8 -11   25.80    4.39
   2  -8 -11   23.10    4.60
  -2   8  11   15.74    6.97
  -2   8  11   22.28    4.05
   2  -8 -10    8.86    6.03
   2  -8 -10   10.65    5.85
  -2   8  10    7.51    3.34
  -2   8  10   12.12    3.66
   2  -8  -9   12.99    3.84
   2  -8  -9   15.77    1.95
   2  -8  -9   25.76    3.78
  -2   8   9   16.75    3.71
  -2   8   9   14.95    3.52
  -2   8   9   10.59    3.05
   2  -8  -8    3.65    2.58
   2  -8  -8    0.53    1.43
   2  -8  -8    0.24    2.59
  -2   8   8    2.30    4.04
  -2   8   8    3.42    4.17
  -2   8   8    0.54    2.36
   2  -8  -7   31.04    3.99
   2  -8  -7   25.79    2.56
   2  -8  -7   30.91    3.92
  -2   8   7   35.75    6.04
  -2   8   7   28.69    2.71
  -2   8   7   32.47    3.88
   2  -8  -6   51.94    6.50
   2  -8  -6   28.78    2.77
   2  -8  -6   28.88    3.83
  -2   8   6   38.13    5.57
  -2   8   6   20.54    3.52
  -2   8   6   23.74    2.60
   2  -8  -5   36.31    3.08
   2  -8  -5   49.27    6.41
   2  -8  -5   31.22    5.91
   2  -8  -5   35.40    3.50
  -2   8   5   35.13    3.10
   2  -8  -4    6.61    2.59
   2  -8  -4    8.05    2.72
   2  -8  -4    7.60    2.37
  -2   8   4    5.89    3.69
   2  -8  -3  202.20    7.09
   2  -8  -3  206.87    9.58
   2  -8  -3  219.68    9.39
  -2   8   3  201.56    6.92
   2  -8  -2   84.61    4.60
   2  -8  -2   74.99    4.43
   2  -8  -2   80.53    6.14
  -2   8   2   85.42    4.82
   2  -8  -1    3.29    4.04
   2  -8  -1    4.35    3.59
   2  -8  -1    3.95    3.27
  -2   8   1    3.39    2.47
   2  -8   0   10.69    3.79
   2  -8   0   16.32    5.35
   2  -8   0   12.02    5.01
   2  -8   0   11.27    2.57
  -2   8   0   10.81    3.22
   2  -8   1   17.55    3.92
   2  -8   1   14.21    4.24
   2  -8   1   24.52    3.68
   2  -8   1   17.01    3.74
  -2   8  -1   19.75    3.56
  -2   8  -1   17.33    3.59
   2  -8   2   95.40    5.91
   2  -8   2   91.73    4.35
   2  -8   2   92.22    4.12
   2  -8   2   95.34    8.51
  -2   8  -2   93.99    5.71
  -2   8  -2  104.47    5.97
   2  -8   3    0.15    4.55
   2  -8   3    2.52    2.73
   2  -8   3    3.72    2.83
   2  -8   3    1.30    1.80
  -2   8  -3    3.18    2.88
  -2   8  -3    1.14    2.81
   2  -8   4   34.86    6.96
   2  -8   4   29.57    2.58
   2  -8   4   27.64    4.33
   2  -8   4   34.18    4.46
  -2   8  -4   39.03    7.52
  -2   8  -4   37.09    7.06
   2  -8   5    3.23    3.14
   2  -8   5    2.31    2.87
   2  -8   5    3.62    2.75
   2  -8   5    3.19    3.09
  -2   8  -5    0.94    3.06
  -2   8  -5    4.34    3.13
   2  -8   6    1.85    2.57
   2  -8   6    1.76    2.81
   2  -8   6   -0.21    1.47
   2  -8   6    4.53    2.82
  -2   8  -6    0.37    2.97
  -2   8  -6    2.49    3.02
   2  -8   7   11.19    4.10
   2  -8   7   17.57    4.43
  -2   8  -7   17.10    4.40
  -2   8  -7   13.74    6.90
   2  -7 -14    2.25    3.16
   2  -7 -14    1.12    3.20
   2  -7 -14    1.38    3.23
  -2   7  14    1.07    4.86
   2  -7 -13  101.34    6.73
   2  -7 -13  119.15   10.08
   2  -7 -13  107.26    9.95
  -2   7  13  108.89    9.50
   2  -7 -12   93.37    5.99
   2  -7 -12   83.86    5.97
  -2   7  12   77.88    8.79
  -2   7  12   81.98    5.67
   2  -7 -11   93.22    5.98
   2  -7 -11   95.31    8.62
  -2   7  11   88.77    5.51
  -2   7  11   91.11    5.86
   2  -7 -10   19.23    5.79
   2  -7 -10   20.25    3.54
   2  -7 -10   15.32    2.14
  -2   7  10   21.05    3.60
  -2   7  10   22.38    3.41
  -2   7  10   13.72    1.47
   2  -7  -9   10.22    4.86
   2  -7  -9    9.10    2.24
   2  -7  -9   10.63    3.20
  -2   7   9    8.23    2.35
  -2   7   9   13.09    2.97
  -2   7   9    9.80    3.17
   2  -7  -8  248.34    6.08
   2  -7  -8  256.75    8.75
   2  -7  -8  270.09    8.56
  -2   7   8  253.90    8.32
  -2   7   8  241.00    6.05
  -2   7   8  265.13   11.43
   2  -7  -7   46.36    4.08
   2  -7  -7   47.56    3.97
   2  -7  -7   39.10    2.49
  -2   7   7   40.75    3.63
  -2   7   7   34.83    2.42
  -2   7   7   34.25    3.84
   2  -7  -6  166.24    8.92
   2  -7  -6  169.49    6.56
   2  -7  -6  180.64    6.59
  -2   7   6  170.89    6.49
  -2   7   6  177.68    8.84
  -2   7   6  166.34    6.08
   2  -7  -5  253.34    7.80
   2  -7  -5  233.34    6.44
   2  -7  -5  232.66    7.59
  -2   7   5  232.15    6.51
  -2   7   5  248.83    7.66
  -2   7   5  240.71    9.76
   2  -7  -4    0.13    1.32
   2  -7  -4    0.04    1.48
   2  -7  -4    0.05    1.60
   2  -7  -4    0.28    1.66
  -2   7   4    1.88    3.19
  -2   7   4    0.23    2.51
   2  -7  -3   29.34    2.77
   2  -7  -3   31.77    2.82
   2  -7  -3   27.62    4.77
   2  -7  -3   31.30    3.20
  -2   7   3   30.05    2.84
  -2   7   3   33.14    3.16
   2  -7  -2   61.25    5.43
   2  -7  -2   55.96    4.95
   2  -7  -2   56.25    3.53
  -2   7   2   55.28    3.62
  -2   7   2   58.05    3.86
   2  -7  -1  303.54    8.31
   2  -7  -1  337.01   12.09
   2  -7  -1  321.99    9.00
   2  -7  -1  312.21    9.86
  -2   7   1  311.86    8.84
  -2   7   1  311.34    8.83
   2  -7   0   31.75    2.92
   2  -7   0   37.09    2.77
   2  -7   0   32.98    3.72
   2  -7   0   35.79    3.47
  -2   7   0   33.83    3.44
  -2   7   0   34.85    3.48
   2  -7   1    7.44    1.97
   2  -7   1   10.26    2.79
   2  -7   1    9.80    2.14
   2  -7   1    7.22    2.75
  -2   7  -1    7.83    2.76
  -2   7  -1    7.48    2.62
   2  -7   2  144.85    6.75
   2  -7   2  141.84    6.41
   2  -7   2  153.97    6.40
   2  -7   2  153.51    6.38
  -2   7  -2  153.56    6.50
  -2   7  -2  149.58    6.09
   2  -7   3   23.38    2.31
   2  -7   3   19.83    3.69
   2  -7   3   21.91    3.59
   2  -7   3   22.36    2.42
  -2   7  -3   21.08    3.78
  -2   7  -3   29.79    3.63
   2  -7   4   51.60    6.65
   2  -7   4   43.88    2.89
   2  -7   4   41.23    4.07
   2  -7   4   54.11    6.72
  -2   7  -4   51.40    4.57
  -2   7  -4   49.02    4.21
   2  -7   5   67.31    4.79
   2  -7   5   81.74    7.51
   2  -7   5   61.63    3.05
   2  -7   5   65.26    5.01
  -2   7  -5   71.20    7.68
  -2   7  -5   63.88    4.92
   2  -7   6    3.77    2.84
   2  -7   6    5.85    4.46
   2  -7   6    1.97    1.64
   2  -7   6    2.14    1.46
  -2   7  -6    3.62    2.85
  -2   7  -6    3.43    2.98
   2  -7   7   66.43    8.28
   2  -7   7   55.48    5.02
   2  -7   7   51.83    4.25
   2  -7   7   59.68    3.12
  -2   7  -7   64.21    7.74
  -2   7  -7   61.78    5.17
   2  -7   8   10.89    6.20
   2  -7   8   10.77    3.48
   2  -7   8   11.68    2.01
   2  -7   8    8.40    2.91
  -2   7  -8   13.10    3.83
  -2   7  -8   13.04    6.31
   2  -7   9    1.46    2.86
   2  -7   9    3.08    5.13
  -2   7  -9    6.67    3.49
  -2   7  -9    4.63    3.61
   2  -7  10    7.04    6.38
   2  -7  10    5.10    5.49
  -2   7 -10    5.79    6.30
  -2   7 -10    9.25    6.08
   2  -6 -15  237.42   13.62
   2  -6 -15  246.98   10.20
   2  -6 -15  261.74   14.46
  -2   6  15  233.08    9.47
   2  -6 -14    3.26    4.53
   2  -6 -14    1.38    2.83
   2  -6 -14   -1.09    4.46
  -2   6  14    1.65    2.71
   2  -6 -13   85.73    5.59
   2  -6 -13   75.91    5.50
   2  -6 -13   92.22    5.71
  -2   6  13   80.74    5.36
   2  -6 -12   56.17    4.63
   2  -6 -12   53.22    4.63
   2  -6 -12   54.06    4.72
  -2   6  12   59.65    4.69
   2  -6 -11   12.39    3.15
   2  -6 -11   16.46    3.33
  -2   6  11   10.14    3.12
  -2   6  11   11.02    2.97
   2  -6 -10  162.46    6.64
   2  -6 -10  153.70    3.25
   2  -6 -10  177.79    6.41
  -2   6  10  148.69    3.28
  -2   6  10  168.57    6.39
  -2   6  10  167.77    6.55
   2  -6  -9   82.77    3.21
   2  -6  -9   92.97    4.88
   2  -6  -9   84.55    7.53
  -2   6   9   86.21    7.21
  -2   6   9   75.49    3.22
  -2   6   9   88.27    4.54
   2  -6  -8  146.33    6.08
   2  -6  -8  154.35    8.35
   2  -6  -8  140.74    4.62
  -2   6   8  142.87    3.73
  -2   6   8  148.07    5.64
  -2   6   8  155.52    6.02
   2  -6  -7  240.34    7.66
   2  -6  -7  245.21    5.53
   2  -6  -7  263.93    9.93
  -2   6   7  239.82    6.73
  -2   6   7  255.26    7.86
   2  -6  -6  106.36    6.35
   2  -6  -6   99.07    4.52
   2  -6  -6   99.76    3.25
  -2   6   6   99.83    3.26
  -2   6   6   99.43    4.23
  -2   6   6  101.06    4.56
   2  -6  -5    9.40    2.35
   2  -6  -5    7.67    2.58
   2  -6  -5    8.64    3.61
  -2   6   5    7.69    1.61
  -2   6   5    8.98    2.15
  -2   6   5    9.09    2.27
   2  -6  -4    6.59    1.68
   2  -6  -4    6.43    3.29
   2  -6  -4    5.53    3.41
  -2   6   4    4.14    3.14
  -2   6   4    8.14    2.59
  -2   6   4    5.04    2.02
   2  -6  -3   74.52    3.69
   2  -6  -3   66.80    5.31
   2  -6  -3   72.18    4.79
   2  -6  -3   71.04    3.30
  -2   6   3   72.10    3.51
  -2   6   3   65.20    3.21
   2  -6  -2    6.84    1.95
   2  -6  -2    6.58    2.08
   2  -6  -2    5.33    1.75
   2  -6  -2    3.96    1.91
  -2   6   2    4.71    1.92
  -2   6   2    4.02    1.81
   2  -6  -1   52.04    3.17
   2  -6  -1   57.71    5.27
   2  -6  -1   53.20    2.84
   2  -6  -1   55.11    3.26
  -2   6   1   54.57    3.24
  -2   6   1   60.40    4.99
   2  -6   0  120.27    4.84
   2  -6   0  115.65    4.73
   2  -6   0  116.64    3.93
   2  -6   0  116.08    5.88
  -2   6   0  113.80    6.66
  -2   6   0  116.75    6.42
   2  -6   1    4.27    1.79
   2  -6   1    4.43    2.26
   2  -6   1    7.47    2.23
  -2   6  -1    2.92    3.64
  -2   6  -1    5.23    2.09
   2  -6   2   25.32    4.62
   2  -6   2   22.54    2.06
   2  -6   2   23.07    2.27
   2  -6   2   27.60    3.04
  -2   6  -2   25.02    3.00
  -2   6  -2   21.10    2.84
   2  -6   3   -0.46    1.44
   2  -6   3   -0.56    1.63
   2  -6   3    0.54    1.52
   2  -6   3    0.34    1.49
  -2   6  -3   -1.29    1.87
  -2   6  -3    0.03    1.73
   2  -6   4   18.92    2.97
   2  -6   4   18.06    3.15
   2  -6   4   21.08    1.93
   2  -6   4   21.14    2.09
  -2   6  -4   20.98    2.87
  -2   6  -4   23.77    3.15
   2  -6   5    6.42    2.59
   2  -6   5    4.85    4.28
   2  -6   5    5.99    1.51
   2  -6   5   11.59    2.58
  -2   6  -5    8.31    4.09
  -2   6  -5    7.67    2.76
   2  -6   6    8.39    2.72
   2  -6   6    8.94    4.24
   2  -6   6    5.39    1.53
   2  -6   6    5.18    1.57
  -2   6  -6    9.40    2.94
  -2   6  -6   10.55    2.88
   2  -6   7    2.00    4.03
   2  -6   7    2.43    2.40
   2  -6   7    2.24    2.09
   2  -6   7    1.36    1.36
  -2   6  -7    1.17    2.34
  -2   6  -7    1.40    2.33
   2  -6   8   15.90    3.47
   2  -6   8   11.69    2.78
   2  -6   8   15.52    5.07
   2  -6   8    9.97    2.85
  -2   6  -8   16.66    5.39
  -2   6  -8   13.37    3.44
   2  -6   9    3.70    1.53
   2  -6   9    6.94    3.17
   2  -6   9    4.45    2.52
   2  -6   9    5.99    2.80
  -2   6  -9    3.48    5.26
  -2   6  -9    6.48    3.01
   2  -6  10    4.68    4.47
   2  -6  10    3.55    3.33
  -2   6 -10    4.37    4.84
  -2   6 -10    4.19    3.36
   2  -6  11   14.23    6.61
   2  -6  11   14.31    3.47
  -2   6 -11   12.90    3.67
  -2   6 -11   15.06    4.30
   2  -5 -16    0.04    3.03
   2  -5 -16    8.18    3.55
   2  -5 -16    2.29    3.52
  -2   5  16   -0.10    3.43
   2  -5 -15    5.94    3.26
   2  -5 -15    3.20    3.26
   2  -5 -15    2.77    2.92
  -2   5  15   -0.60    3.81
   2  -5 -14    4.17    3.08
   2  -5 -14    2.64    3.04
   2  -5 -14    4.03    2.72
  -2   5  14    1.80    2.54
   2  -5 -13    6.52    3.06
   2  -5 -13    5.44    2.80
   2  -5 -13    5.44    2.94
  -2   5  13    7.13    2.86
   2  -5 -12    2.11    2.47
   2  -5 -12    1.95    2.33
   2  -5 -12    4.52    4.00
  -2   5  12    4.23    2.54
   2  -5 -11    7.96    2.79
   2  -5 -11    6.24    2.62
   2  -5 -11    5.06    2.62
  -2   5  11    5.96    2.58
   2  -5 -10   39.53    5.43
   2  -5 -10   34.31    3.35
  -2   5  10   33.08    5.15
  -2   5  10   25.44    0.98
  -2   5  10   28.98    3.19
   2  -5  -9  447.36   10.95
   2  -5  -9  409.40    7.51
   2  -5  -9  432.59   13.40
  -2   5   9  436.35   10.98
  -2   5   9  410.81    7.71
  -2   5   9  436.20   10.63
   2  -5  -8   91.88    6.38
   2  -5  -8   90.36    2.25
   2  -5  -8   93.93    4.14
  -2   5   8   85.79    2.21
  -2   5   8   91.96    4.28
  -2   5   8   91.57    3.93
   2  -5  -7  137.99    6.89
   2  -5  -7  138.40    7.12
   2  -5  -7  139.57    4.14
  -2   5   7  137.51    3.25
  -2   5   7  138.91    6.71
  -2   5   7  136.89    5.06
   2  -5  -6  243.03    6.73
   2  -5  -6  253.87    8.34
   2  -5  -6  244.69    5.18
  -2   5   6  238.58    6.26
  -2   5   6  234.68    5.97
  -2   5   6  238.29    6.65
   2  -5  -5   86.31    2.79
   2  -5  -5   86.03    3.60
   2  -5  -5   80.89    3.79
  -2   5   5   82.60    3.31
  -2   5   5   84.08    3.74
  -2   5   5   80.08    5.29
   2  -5  -4    3.74    1.92
   2  -5  -4    0.85    1.58
   2  -5  -4    0.83    1.66
  -2   5   4    1.01    1.18
  -2   5   4   -0.66    1.62
  -2   5   4    4.46    1.58
   2  -5  -3  676.05   13.84
   2  -5  -3  658.32   13.92
   2  -5  -3  681.79   13.65
  -2   5   3  682.78   14.17
  -2   5   3  666.02   15.35
  -2   5   3  662.10   14.64
   2  -5  -2   12.94    1.85
   2  -5  -2   11.74    1.95
   2  -5  -2   11.64    2.02
   2  -5  -2   12.12    1.73
  -2   5   2   12.54    1.84
  -2   5   2   10.87    1.88
   2  -5  -1   82.93    4.79
   2  -5  -1   69.21    4.14
   2  -5  -1   73.14    4.81
   2  -5  -1   73.25    3.21
  -2   5   1   73.84    4.64
  -2   5   1   72.26    3.29
   2  -5   0  787.17   18.08
   2  -5   0  795.28   16.31
   2  -5   0  749.91   15.02
   2  -5   0  754.16   15.42
  -2   5   0  748.79   15.48
  -2   5   0  769.41   15.90
   2  -5   1    0.63    2.60
   2  -5   1    2.59    1.31
   2  -5   1    1.08    2.65
   2  -5   1    0.78    1.16
  -2   5  -1    0.24    1.41
  -2   5  -1    0.39    2.11
   2  -5   2    2.18    1.29
   2  -5   2    2.28    2.88
   2  -5   2    1.76    1.65
   2  -5   2    1.08    1.15
  -2   5  -2    3.35    1.64
  -2   5  -2    1.78    1.83
   2  -5   3  178.32    7.42
   2  -5   3  163.39    5.89
   2  -5   3  175.26    5.63
   2  -5   3  167.75    5.54
  -2   5  -3  172.54    5.68
  -2   5  -3  159.09    5.11
   2  -5   4  139.92    5.08
   2  -5   4  134.30    3.95
   2  -5   4  138.49    3.89
   2  -5   4  139.05    5.37
  -2   5  -4  138.90    5.27
  -2   5  -4  136.63    4.98
   2  -5   5    0.31    2.25
   2  -5   5    0.06    0.88
   2  -5   5   -0.09    0.82
   2  -5   5   -0.27    1.44
  -2   5  -5    1.35    1.74
  -2   5  -5    1.11    1.87
   2  -5   6   35.42    3.18
   2  -5   6   32.64    2.04
   2  -5   6   38.55    3.24
   2  -5   6   36.97    5.07
  -2   5  -6   38.67    4.99
  -2   5  -6   35.16    3.35
   2  -5   7   41.49    2.26
   2  -5   7   40.46    2.27
   2  -5   7   41.59    3.72
   2  -5   7   41.01    3.57
  -2   5  -7   39.43    3.69
  -2   5  -7   49.50    3.75
   2  -5   8  110.81    5.28
   2  -5   8   94.58    4.48
   2  -5   8   99.03    3.41
   2  -5   8   93.92    7.16
  -2   5  -8  100.73    7.40
  -2   5  -8  108.32    7.56
   2  -5   9  131.98    6.10
   2  -5   9  118.58    5.07
   2  -5   9  115.98    3.73
   2  -5   9  128.38    5.61
  -2   5  -9  128.50    5.84
  -2   5  -9  124.10    6.03
   2  -5  10   31.57    5.29
   2  -5  10   29.18    2.12
   2  -5  10   20.02    2.01
   2  -5  10   39.35    4.11
  -2   5 -10   38.95    5.97
  -2   5 -10   38.24    4.15
   2  -5  11    6.72    2.80
   2  -5  11    1.86    1.34
   2  -5  11    2.26    2.31
   2  -5  11    0.76    1.36
  -2   5 -11    2.68    4.53
  -2   5 -11    2.42    2.49
   2  -5  12   19.37    3.27
   2  -5  12   16.81    4.05
  -2   5 -12   15.23    3.33
  -2   5 -12   16.77    4.14
   2  -5  13  100.20    6.72
   2  -5  13   87.13    7.67
  -2   5 -13  102.27    7.01
  -2   5 -13  104.24    8.52
   2  -4 -16    0.01    3.17
   2  -4 -16    0.15    2.41
   2  -4 -16   -0.48    2.36
  -2   4  16    0.03    1.77
   2  -4 -15   15.20    3.82
   2  -4 -15   -0.08    5.10
   2  -4 -15   25.02    3.86
  -2   4  15   -0.28    2.04
   2  -4 -14   75.01    7.65
   2  -4 -14   74.98    5.10
   2  -4 -14   73.85    6.68
  -2   4  14   72.78    4.36
   2  -4 -13   25.40    5.77
   2  -4 -13   24.89    3.27
   2  -4 -13   31.99    5.60
  -2   4  13   29.08    3.23
   2  -4 -12  107.36    4.95
   2  -4 -12  107.00    5.26
   2  -4 -12  100.35    5.20
  -2   4  12   98.97    4.71
   2  -4 -11  710.66   16.42
   2  -4 -11  709.91   16.73
   2  -4 -11  745.38   17.09
  -2   4  11  700.16   16.08
   2  -4 -10   82.53    4.08
   2  -4 -10   83.26    6.15
   2  -4 -10   83.82    4.16
  -2   4  10   92.33    4.28
   2  -4  -9    7.03    2.01
   2  -4  -9   -0.76    1.89
  -2   4   9   14.66    2.32
  -2   4   9    7.31    0.54
   2  -4  -8  286.13    5.04
   2  -4  -8  289.68    7.36
  -2   4   8  273.90    4.93
  -2   4   8  283.11    6.99
  -2   4   8  282.54    7.22
   2  -4  -7    3.50    1.50
   2  -4  -7    0.96    1.06
   2  -4  -7    0.99    2.66
  -2   4   7    1.70    1.63
  -2   4   7    3.10    1.71
  -2   4   7    2.17    1.05
   2  -4  -6  223.29    4.98
   2  -4  -6  222.60    7.40
   2  -4  -6  221.10    5.43
  -2   4   6  224.43    5.87
  -2   4   6  218.74    4.83
  -2   4   6  229.52    5.64
   2  -4  -5 1123.35   20.98
   2  -4  -5 1081.04   21.45
   2  -4  -5 1099.66   22.78
  -2   4   5 1103.71   19.72
  -2   4   5 1092.30   21.03
  -2   4   5 1099.46   21.63
   2  -4  -4  152.45    3.59
   2  -4  -4  154.62    4.42
   2  -4  -4  153.68    4.10
  -2   4   4  145.16    4.16
  -2   4   4  155.00    3.51
  -2   4   4  152.82    4.03
   2  -4  -3   34.97    1.73
   2  -4  -3   33.79    2.20
   2  -4  -3   31.55    3.05
  -2   4   3   34.36    2.20
  -2   4   3   30.35    1.96
  -2   4   3   36.42    1.72
   2  -4  -2  483.20    9.79
   2  -4  -2  485.16    9.49
   2  -4  -2  467.66    9.26
   2  -4  -2  471.39    9.27
  -2   4   2  466.28    9.05
  -2   4   2  468.45   10.46
   2  -4  -1  291.13    6.37
   2  -4  -1  297.97    6.42
   2  -4  -1  287.17    6.08
   2  -4  -1  291.61    6.34
  -2   4   1  287.62    6.27
  -2   4   1  291.86    7.49
   2  -4   0   91.96    3.24
   2  -4   0   89.45    4.18
   2  -4   0   91.91    3.12
   2  -4   0   82.98    3.87
  -2   4   0   97.20    3.29
  -2   4   0   87.29    3.00
   2  -4   1  470.13    9.81
   2  -4   1  501.52   10.06
   2  -4   1  462.33    9.15
   2  -4   1  483.86   10.86
  -2   4  -1  484.00    9.79
  -2   4  -1  492.33   10.19
   2  -4   2   43.62    2.56
   2  -4   2   43.42    2.09
   2  -4   2   41.67    2.73
   2  -4   2   44.43    2.13
  -2   4  -2   37.45    2.70
  -2   4  -2   39.68    3.65
   2  -4   3    3.74    1.12
   2  -4   3    4.37    1.26
   2  -4   3    3.13    1.74
   2  -4   3    6.10    2.56
  -2   4  -3    4.47    1.52
  -2   4  -3    3.56    1.77
   2  -4   4  269.39    5.89
   2  -4   4  270.84    8.75
   2  -4   4  285.78    7.01
  -2   4  -4  283.87    6.97
  -2   4  -4  280.52    7.21
   2  -4   5 1554.48   31.78
   2  -4   5 1572.81   32.04
   2  -4   5 1550.22   32.34
  -2   4  -5 1554.59   32.10
  -2   4  -5 1548.06   29.81
  -2   4  -5 1568.90   35.13
   2  -4   6  423.40   10.07
   2  -4   6  401.35    9.95
   2  -4   6  411.41    9.64
  -2   4  -6  435.07   10.39
  -2   4  -6  414.61    8.56
  -2   4  -6  422.01   10.12
   2  -4   7   14.98    2.49
   2  -4   7   18.70    2.51
   2  -4   7   16.81    2.62
  -2   4  -7   16.31    2.49
  -2   4  -7   16.83    2.41
  -2   4  -7   15.20    2.57
   2  -4   8    1.07    1.01
   2  -4   8    1.64    2.95
   2  -4   8   -0.69    1.65
  -2   4  -8    0.74    1.45
  -2   4  -8   -0.36    0.84
  -2   4  -8    0.58    1.40
   2  -4   9    4.06    3.71
   2  -4   9    2.41    1.95
   2  -4   9    2.49    1.29
  -2   4  -9    4.89    2.10
  -2   4  -9    2.85    1.28
  -2   4  -9    1.42    3.70
   2  -4  10   18.44    4.97
   2  -4  10    6.48    4.13
   2  -4  10   16.24    2.73
  -2   4 -10   15.93    2.67
  -2   4 -10   18.76    3.23
  -2   4 -10   18.30    2.77
   2  -4  11   60.90    3.84
   2  -4  11   61.68    2.83
   2  -4  11   72.10    7.17
  -2   4 -11   64.52    4.80
  -2   4 -11   66.39    5.88
  -2   4 -11   61.09    3.88
   2  -4  12   14.23    3.52
   2  -4  12   11.47    1.90
   2  -4  12   14.06    2.62
  -2   4 -12    6.70    2.72
  -2   4 -12   12.55    2.75
  -2   4 -12   14.08    3.47
   2  -4  13    8.32    3.19
   2  -4  13    5.63    3.73
   2  -4  13    2.67    2.68
  -2   4 -13    4.33    3.27
  -2   4 -13    5.35    2.49
   2  -4  14    0.49    2.94
   2  -4  14    0.39    2.81
  -2   4 -14    0.53    3.12
  -2   4 -14    0.45    2.75
   2  -3 -17    9.80    4.00
   2  -3 -17    8.71    4.51
   2  -3 -17    8.09    3.84
  -2   3  17   -0.19    3.08
   2  -3 -16   67.93    5.45
   2  -3 -16   67.08    6.35
   2  -3 -16   73.30    8.42
  -2   3  16   63.79    4.26
   2  -3 -15   68.79    6.22
   2  -3 -15   69.27    5.22
   2  -3 -15   63.47    7.66
  -2   3  15   63.50    4.00
   2  -3 -14  106.13    5.82
   2  -3 -14  109.68    8.28
   2  -3 -14  115.67    6.84
  -2   3  14  107.46    6.92
   2  -3 -13  330.34   12.36
   2  -3 -13  320.13   10.93
   2  -3 -13  315.29    9.79
  -2   3  13  319.09    8.83
   2  -3 -12    4.39    2.37
   2  -3 -12    1.56    3.21
   2  -3 -12    3.09    2.42
  -2   3  12    2.09    1.89
   2  -3 -11  230.66    7.00
   2  -3 -11  215.89    8.26
   2  -3 -11  225.53    7.14
  -2   3  11  216.89    6.34
   2  -3 -10  390.25   11.15
   2  -3 -10  398.69    9.58
   2  -3 -10  385.72    9.75
  -2   3  10  386.22    9.16
   2  -3  -9  287.98    9.04
   2  -3  -9  267.06    6.92
   2  -3  -9  277.04    7.19
  -2   3   9  272.75    8.63
   2  -3  -8   23.86    2.23
   2  -3  -8   25.37    2.30
   2  -3  -8   25.73    2.41
  -2   3   8   22.02    3.32
   2  -3  -7  209.97    3.59
   2  -3  -7  198.90    5.07
   2  -3  -7  199.33    5.24
  -2   3   7  197.51    6.25
  -2   3   7  190.94    2.99
  -2   3   7  194.13    5.05
   2  -3  -6    5.27    1.40
   2  -3  -6    3.79    2.41
   2  -3  -6    6.17    0.98
  -2   3   6   12.70    2.71
  -2   3   6   14.15    1.57
   2  -3  -5  134.46    2.69
   2  -3  -5  133.60    3.50
   2  -3  -5  136.85    3.74
  -2   3   5  128.98    2.52
  -2   3   5  129.99    3.66
  -2   3   5  135.87    4.51
   2  -3  -4  411.57    9.18
   2  -3  -4  395.94    8.27
   2  -3  -4  408.48    7.09
  -2   3   4  389.50    6.84
  -2   3   4  396.50    8.14
  -2   3   4  400.48    7.73
   2  -3  -3  617.83   11.31
   2  -3  -3  625.76   11.25
   2  -3  -3  620.84   11.92
  -2   3   3  596.91   10.69
  -2   3   3  601.28   11.50
   2  -3  -2  467.16    8.78
   2  -3  -2  462.92    9.50
   2  -3  -2  473.94    9.43
  -2   3   2  407.42    8.11
  -2   3   2  443.34    8.33
   2  -3  -1   44.53    1.97
   2  -3  -1   44.44    2.82
   2  -3  -1   44.76    2.77
   2  -3  -1   44.73    1.82
  -2   3   1   45.64    2.74
  -2   3   1   47.51    1.85
   2  -3   0    6.18    2.04
   2  -3   0    7.34    1.15
   2  -3   0    8.21    1.12
   2  -3   0    7.28    1.22
  -2   3   0    7.67    1.29
  -2   3   0    8.81    1.15
   2  -3   1   36.67    2.85
   2  -3   1   28.52    2.25
   2  -3   1   28.30    2.78
   2  -3   1   36.25    2.58
  -2   3  -1   16.73    1.88
  -2   3  -1   23.89    2.54
   2  -3   2  182.85    4.32
   2  -3   2  165.87    4.30
   2  -3   2  168.60    4.70
  -2   3  -2  164.99    4.30
  -2   3  -2  179.32    3.95
  -2   3  -2  178.80    5.25
   2  -3   3 3766.43   76.85
   2  -3   3 4038.57   81.26
   2  -3   3 3847.50   78.81
  -2   3  -3 3885.61   79.69
  -2   3  -3 3890.59   78.93
  -2   3  -3 3856.00   77.20
   2  -3   4  140.30    5.38
   2  -3   4  123.16    4.02
   2  -3   4  124.67    4.20
  -2   3  -4  128.74    3.77
  -2   3  -4  129.73    4.04
  -2   3  -4  124.52    3.19
   2  -3   5  234.34    6.18
   2  -3   5  230.57    6.06
   2  -3   5  258.99    6.10
  -2   3  -5  229.26    5.88
  -2   3  -5  231.97    5.56
  -2   3  -5  232.15    5.08
   2  -3   6   44.93    2.55
   2  -3   6   42.16    2.75
   2  -3   6   36.67    2.51
  -2   3  -6   39.54    2.51
  -2   3  -6   39.02    3.97
  -2   3  -6   42.07    1.84
   2  -3   7    6.73    1.26
   2  -3   7    4.45    1.89
   2  -3   7    4.53    1.74
  -2   3  -7    6.45    1.83
  -2   3  -7    7.60    3.03
  -2   3  -7    5.63    1.96
   2  -3   8    0.33    1.06
   2  -3   8   -0.14    1.47
   2  -3   8    4.65    1.67
  -2   3  -8   -0.76    1.54
  -2   3  -8    1.08    0.94
  -2   3  -8    0.92    2.32
   2  -3   9   69.19    4.14
   2  -3   9   68.68    3.33
   2  -3   9   67.28    3.77
  -2   3  -9   67.87    3.39
  -2   3  -9   64.36    3.91
  -2   3  -9   62.62    2.57
   2  -3  10   70.62    5.30
   2  -3  10   91.10    4.58
   2  -3  10   72.49    3.07
  -2   3 -10   89.11    6.51
  -2   3 -10   74.78    5.40
  -2   3 -10   77.30    4.15
   2  -3  11  351.28    9.07
   2  -3  11  343.28    8.02
   2  -3  11  380.00   10.48
  -2   3 -11  371.07    9.57
  -2   3 -11  372.23   10.32
  -2   3 -11  354.19    9.48
   2  -3  12  131.26    6.03
   2  -3  12  120.85    4.11
   2  -3  12  120.25    4.75
  -2   3 -12  118.55    5.89
  -2   3 -12  121.85    4.82
  -2   3 -12  119.94    5.23
   2  -3  13   76.84    5.21
   2  -3  13   65.80    3.72
   2  -3  13   65.56    4.62
  -2   3 -13   75.95    5.69
  -2   3 -13   70.82    5.23
  -2   3 -13   67.86    4.49
   2  -3  14   40.92    4.66
   2  -3  14   34.78    2.70
   2  -3  14   34.93    3.04
  -2   3 -14   33.23    4.66
  -2   3 -14   39.37    3.18
  -2   3 -14   35.83    2.56
   2  -3  15   74.60    8.99
   2  -3  15   61.99    3.76
  -2   3 -15   67.43    3.94
  -2   3 -15   63.17    5.83
   2  -2 -17   26.11    8.31
   2  -2 -17   37.20    3.45
  -2   2  17   41.96    5.30
   2  -2 -16    6.32    3.42
   2  -2 -16    5.39    3.24
   2  -2 -16    3.48    2.20
  -2   2  16    0.06    1.51
   2  -2 -15    2.22    2.58
   2  -2 -15    1.54    2.50
   2  -2 -15   -0.05    1.67
  -2   2  15    0.04    2.19
   2  -2 -14   68.44    7.48
   2  -2 -14   75.66    5.02
   2  -2 -14   73.86    3.77
  -2   2  14   71.27    3.79
   2  -2 -13  125.69    5.63
   2  -2 -13  128.83    5.73
   2  -2 -13  123.89    4.60
  -2   2  13  127.20    4.66
   2  -2 -12   72.13    4.33
   2  -2 -12   77.45    4.16
   2  -2 -12   74.13    3.44
  -2   2  12   74.45    3.40
   2  -2 -11  108.20    4.78
   2  -2 -11  102.01    4.64
   2  -2 -11   94.20    5.36
  -2   2  11   93.14    3.69
   2  -2 -10  299.79    8.72
   2  -2 -10  301.08    7.96
   2  -2 -10  316.44    7.96
  -2   2  10  297.93    7.08
   2  -2  -9   70.08    3.65
   2  -2  -9   73.75    3.06
   2  -2  -9   75.81    3.43
  -2   2   9   71.44    3.11
   2  -2  -8  130.55    4.34
   2  -2  -8  135.93    5.59
  -2   2   8   99.64    3.46
   2  -2  -7  292.71    7.05
   2  -2  -7  314.91    4.46
   2  -2  -7  286.29    7.04
   2  -2  -7  315.40    4.38
   2  -2  -7  306.01    8.02
  -2   2   7  296.41    7.71
   2  -2  -6 2206.85   36.83
   2  -2  -6 2071.45   39.39
   2  -2  -6 2052.96   39.19
   2  -2  -6 2071.69   39.77
   2  -2  -6 2159.49   36.28
  -2   2   6 2015.45   38.22
   2  -2  -5   11.83    1.05
   2  -2  -5    9.36    1.50
  -2   2   5    9.31    1.51
  -2   2   5   15.12    1.06
   2  -2  -4 1172.81   21.12
   2  -2  -4 1173.35   20.69
   2  -2  -4 1193.07   19.43
  -2   2   4 1152.23   18.74
  -2   2   4 1158.49   20.75
  -2   2   4 1150.07   20.33
   2  -2  -3  609.91   10.96
   2  -2  -3  615.65   10.00
   2  -2  -3  612.86   10.55
  -2   2   3  606.41   10.84
  -2   2   3  608.67   10.49
  -2   2   3  611.49   10.45
   2  -2  -2   74.09    2.94
   2  -2  -2   59.79    2.51
  -2   2   2   27.00    1.28
  -2   2   2   28.33    1.41
   2  -2  -1   57.31    1.91
   2  -2  -1   75.30    2.82
   2  -2  -1   61.87    2.10
   2  -2  -1   72.97    2.09
  -2   2   1   48.12    1.79
  -2   2   1   70.79    1.97
   2  -2   0  183.02    3.59
   2  -2   0  171.69    3.54
   2  -2   0  181.61    3.90
   2  -2   0  174.12    3.69
  -2   2   0  173.64    3.70
  -2   2   0  175.37    3.47
   2  -2   1  474.26    8.50
   2  -2   1  527.82    9.18
   2  -2   1  485.79    9.01
  -2   2  -1  430.86    7.99
  -2   2  -1  465.19    8.19
  -2   2  -1  427.63    7.71
   2  -2   2  415.06    8.28
   2  -2   2  419.59    7.56
   2  -2   2  387.10    7.58
  -2   2  -2  398.70    7.36
  -2   2  -2  413.32    8.27
  -2   2  -2  394.37    7.65
   2  -2   3 2133.52   40.32
   2  -2   3 2112.04   38.91
   2  -2   3 2346.14   44.32
  -2   2  -3 2121.98   39.29
  -2   2  -3 2141.05   40.23
  -2   2  -3 2169.46   39.72
   2  -2   4 1642.85   30.02
   2  -2   4 1618.93   31.63
   2  -2   4 1599.42   29.06
  -2   2  -4 1624.31   30.18
  -2   2  -4 1589.33   28.68
  -2   2  -4 1569.39   28.80
   2  -2   5    2.67    1.16
   2  -2   5    3.98    1.83
  -2   2  -5    3.06    1.90
  -2   2  -5    2.27    1.38
  -2   2  -5    2.80    1.07
   2  -2   6  289.16    6.37
   2  -2   6  264.79    6.18
   2  -2   6  253.72    5.35
  -2   2  -6  261.86    6.11
  -2   2  -6  262.39    5.98
  -2   2  -6  277.96    5.68
   2  -2   7  220.68    5.93
   2  -2   7  222.97    6.71
   2  -2   7  226.83    5.62
  -2   2  -7  216.50    4.75
  -2   2  -7  223.29    5.38
  -2   2  -7  217.38    6.91
   2  -2   8    1.08    2.39
   2  -2   8    0.66    2.09
   2  -2   8    1.33    1.05
  -2   2  -8    2.11    2.23
  -2   2  -8    2.27    1.09
  -2   2  -8    2.63    1.60
   2  -2   9  844.13   19.86
   2  -2   9  755.83   15.64
   2  -2   9  777.04   15.37
  -2   2  -9  795.11   17.14
  -2   2  -9  806.35   17.21
  -2   2  -9  832.59   16.95
   2  -2  10  601.94   16.57
   2  -2  10  572.63   12.48
   2  -2  10  584.04   12.27
  -2   2 -10  594.83   13.79
  -2   2 -10  572.09   16.40
  -2   2 -10  608.41   14.74
   2  -2  11  556.16   13.46
   2  -2  11  514.36   11.53
   2  -2  11  513.68   12.88
  -2   2 -11  537.09   15.68
  -2   2 -11  530.89   12.89
  -2   2 -11  542.45   11.90
   2  -2  12   59.71    3.10
   2  -2  12   61.68    2.91
   2  -2  12   63.31    4.35
  -2   2 -12   64.43    3.09
  -2   2 -12   65.38    4.21
  -2   2 -12   58.86    6.36
   2  -2  13  178.82    5.41
   2  -2  13  182.42    5.43
   2  -2  13  194.86    7.35
  -2   2 -13  185.31    9.81
  -2   2 -13  174.89    6.74
  -2   2 -13  183.73    7.04
   2  -2  14   53.19    3.05
   2  -2  14   61.14    3.21
   2  -2  14   61.41    7.36
  -2   2 -14   55.36    3.09
  -2   2 -14   53.19    7.22
  -2   2 -14   60.00    4.56
   2  -2  15    6.78    1.91
   2  -2  15    9.02    3.44
   2  -2  15    7.17    3.21
  -2   2 -15    6.60    2.00
  -2   2 -15    7.92    3.42
  -2   2 -15    9.99    3.10
   2  -2  16   48.10    5.34
   2  -2  16   39.02    4.85
  -2   2 -16   36.10    5.07
  -2   2 -16   40.06    4.48
   2  -1 -17   38.28    5.32
   2  -1 -17   40.40    5.12
   2  -1 -16  119.23    4.82
   2  -1 -16  136.32    7.01
   2  -1 -16  131.27    7.15
  -2   1  16  123.19    4.79
   2  -1 -15   16.52    3.77
   2  -1 -15   12.35    5.75
   2  -1 -15   15.94    2.21
  -2   1  15   12.02    3.36
   2  -1 -14    6.67    2.91
   2  -1 -14    9.39    4.26
   2  -1 -14    5.38    1.72
  -2   1  14    4.08    1.72
   2  -1 -13   -0.05    1.71
   2  -1 -13   -1.23    2.91
   2  -1 -13    0.37    1.07
  -2   1  13   -0.39    1.24
   2  -1 -12  279.49    8.02
   2  -1 -12  271.64    7.90
   2  -1 -12  272.45    8.11
  -2   1  12  274.21    6.60
   2  -1 -11   66.55    3.68
   2  -1 -11   60.13    3.85
   2  -1 -11   62.41    3.57
  -2   1  11   60.34    3.79
   2  -1 -10   43.58    4.62
   2  -1 -10   27.19    2.16
   2  -1 -10   37.67    2.91
  -2   1  10   31.02    3.14
   2  -1  -9  465.99   10.27
   2  -1  -9  462.65    9.34
   2  -1  -9  477.57   10.27
  -2   1   9  461.51   10.55
   2  -1  -8 1392.18   20.92
   2  -1  -8 1302.68   25.85
   2  -1  -8 1400.94   21.00
   2  -1  -8 1292.74   25.45
   2  -1  -8 1292.28   25.25
  -2   1   8 1262.62   23.55
   2  -1  -7  111.86    1.80
   2  -1  -7  109.82    2.89
   2  -1  -7  105.69    3.33
   2  -1  -7  115.58    1.86
   2  -1  -7  113.13    3.26
  -2   1   7  108.75    2.88
   2  -1  -6  334.28    6.81
   2  -1  -6  339.86    5.07
   2  -1  -6  331.86    7.57
   2  -1  -6  345.37    5.19
   2  -1  -6  331.84    6.29
  -2   1   6  327.52    6.21
   2  -1  -5  918.54   14.49
   2  -1  -5  935.37   14.63
   2  -1  -5  913.76   17.45
   2  -1  -5  892.92   15.62
   2  -1  -5  904.14   16.00
  -2   1   5  879.54   16.38
   2  -1  -4  395.50    6.29
   2  -1  -4  386.56    6.08
   2  -1  -4  386.19    6.90
   2  -1  -4  383.19    6.73
   2  -1  -4  392.74    7.05
  -2   1   4  380.69    6.73
   2  -1  -3   58.36    1.78
   2  -1  -3   64.26    2.62
  -2   1   3   59.21    1.75
  -2   1   3   54.80    1.81
   2  -1  -2 1057.59   17.86
   2  -1  -2 1064.34   18.01
   2  -1  -2 1053.11   17.57
   2  -1  -2 1077.73   17.33
  -2   1   2 1056.57   17.59
  -2   1   2 1032.74   16.81
   2  -1  -1 2636.36   48.25
   2  -1  -1 2479.22   45.17
   2  -1  -1 2791.89   50.02
   2  -1  -1 2657.74   47.16
  -2   1   1 2619.12   47.89
  -2   1   1 2761.55   49.86
   2  -1   010579.19  234.20
   2  -1   010656.42  237.78
   2  -1   010943.37  240.00
  -2   1   010285.41  223.76
  -2   1   010367.45  229.40
  -2   1   010350.93  227.88
   2  -1   151578.74 1547.40
   2  -1   153927.42 1608.63
   2  -1   150506.98 1524.58
  -2   1  -148970.16 1458.93
  -2   1  -151552.29 1527.37
  -2   1  -150267.89 1499.81
   2  -1   2   72.01    2.55
   2  -1   2  147.69    3.08
  -2   1  -2  289.99    5.81
  -2   1  -2  273.50    5.19
   2  -1   3  776.00   13.81
   2  -1   3  930.64   16.08
   2  -1   3  883.31   15.02
  -2   1  -3  847.51   14.73
  -2   1  -3  894.78   14.99
  -2   1  -3  810.32   13.61
   2  -1   4  170.52    3.85
   2  -1   4  164.09    3.45
  -2   1  -4  217.88    4.24
  -2   1  -4  209.06    4.19
   2  -1   5 1361.92   25.38
   2  -1   5 1375.36   24.37
   2  -1   5 1340.22   23.81
  -2   1  -5 1345.66   23.90
  -2   1  -5 1398.66   25.99
  -2   1  -5 1388.96   24.56
   2  -1   6  357.62    6.81
   2  -1   6  366.18    7.99
   2  -1   6  371.96    7.13
  -2   1  -6  372.25    7.04
  -2   1  -6  354.50    6.62
  -2   1  -6  361.85    7.98
   2  -1   7   41.99    2.07
   2  -1   7   38.55    2.74
   2  -1   7   38.01    2.67
  -2   1  -7   37.26    1.99
  -2   1  -7   38.11    1.82
  -2   1  -7   40.98    1.73
   2  -1   8    8.47    2.09
   2  -1   8    8.97    1.34
   2  -1   8   10.69    1.63
  -2   1  -8   10.65    1.66
  -2   1  -8    8.73    2.04
  -2   1  -8   13.72    2.14
   2  -1   9  415.40    9.74
   2  -1   9  426.59    9.41
   2  -1   9  417.44    8.70
  -2   1  -9  421.73   11.00
  -2   1  -9  420.35    8.61
  -2   1  -9  426.01    8.61
   2  -1  10   -0.02    1.50
   2  -1  10   -0.02    1.67
   2  -1  10   -0.66    1.15
  -2   1 -10   -0.34    1.04
  -2   1 -10    0.77    0.99
  -2   1 -10   -0.07    2.26
   2  -1  11  912.52   18.02
   2  -1  11  947.54   20.59
   2  -1  11  926.50   20.87
  -2   1 -11  947.65   21.07
  -2   1 -11  931.34   22.79
  -2   1 -11  951.11   18.70
   2  -1  12   58.86    2.67
   2  -1  12   67.61    5.97
   2  -1  12   62.55    4.48
  -2   1 -12   66.40    4.30
  -2   1 -12   65.10    6.01
  -2   1 -12   63.02    3.78
   2  -1  13   40.24    3.77
   2  -1  13   42.97    2.30
   2  -1  13   42.41    4.12
  -2   1 -13   42.56    3.38
  -2   1 -13   38.16    3.67
  -2   1 -13   43.38    2.58
   2  -1  14   21.98    3.33
   2  -1  14   16.78    3.60
   2  -1  14   14.31    2.80
  -2   1 -14   19.29    3.40
  -2   1 -14   18.97    2.19
  -2   1 -14   18.02    2.88
   2  -1  15   27.32    6.15
   2  -1  15   21.82    3.04
   2  -1  15   25.06    2.64
  -2   1 -15   20.51    1.95
  -2   1 -15   27.41    3.88
  -2   1 -15   25.97    3.79
   2  -1  16   26.65    4.41
   2  -1  16   28.67    2.97
  -2   1 -16   27.59    6.73
  -2   1 -16   22.82    2.72
   2  -1  17    9.96    2.52
   2  -1  17    9.45    6.41
  -2   1 -17    8.62    3.69
  -2   1 -17    4.83    3.76
   2   0 -16   24.98    4.67
   2   0 -16   21.50    6.50
   2   0 -15   -0.94    2.06
   2   0 -15    0.54    1.63
   2   0 -15   -0.48    3.55
  -2   0  15    0.93    1.31
   2   0 -14   43.08    4.33
   2   0 -14   37.44    3.46
   2   0 -14   44.31    4.11
  -2   0  14   41.91    3.49
   2   0 -13   86.73    4.82
   2   0 -13   89.78    6.99
   2   0 -13   85.15    4.07
  -2   0  13   87.11    3.09
   2   0 -12   43.14    3.58
   2   0 -12   43.41    2.06
   2   0 -12   46.28    3.46
  -2   0  12   42.02    2.15
   2   0 -11   68.74    3.57
   2   0 -11   62.98    1.45
   2   0 -11   61.00    1.39
   2   0 -11   61.44    3.79
   2   0 -11   62.20    2.31
  -2   0  11   60.92    3.29
   2   0 -10   44.38    1.08
   2   0 -10   49.29    3.02
   2   0 -10   44.92    3.24
   2   0 -10   46.11    2.00
   2   0 -10   43.88    1.04
  -2   0  10   49.37    2.62
  -2   0  10    0.26    2.62
   2   0  -9 1613.05   34.23
   2   0  -9 1690.92   28.76
   2   0  -9 1656.93   32.49
  -2   0   9 1613.79   31.65
  -2   0   9 1610.02   33.47
  -2   0   9 1576.15   26.64
   2   0  -8  580.71   12.04
   2   0  -8  607.46    9.54
   2   0  -8  588.10   10.60
  -2   0   8  569.50    9.26
  -2   0   8  587.23   12.13
  -2   0   8  568.99   10.21
   2   0  -7  711.67   12.44
   2   0  -7  715.84   13.95
   2   0  -7  722.09   11.96
  -2   0   7  728.30   14.20
  -2   0   7  701.69   11.57
  -2   0   7  696.40   12.25
   2   0  -6   69.63    2.59
   2   0  -6   72.91    1.83
   2   0  -6   71.74    1.86
  -2   0   6   70.38    1.84
  -2   0   6   69.62    1.75
  -2   0   6   76.30    2.65
   2   0  -5  805.50   15.47
   2   0  -5  809.23   13.25
   2   0  -5  791.11   13.15
  -2   0   5  765.97   12.67
  -2   0   5  797.36   14.24
  -2   0   5  737.63   11.81
   2   0  -4  257.31    4.34
   2   0  -4  214.79    4.23
   2   0  -4  224.38    4.74
   2   0  -4  264.15    4.11
  -2   0   4  261.59    5.08
   2   0  -3 1504.13   25.45
   2   0  -3 1440.81   24.64
   2   0  -3 1452.91   24.07
   2   0  -3 1459.39   24.73
   2   0  -3 1463.37   24.46
  -2   0   3 1435.44   23.79
   2   0  -2  525.53    8.05
   2   0  -2  534.79    8.20
   2   0  -2  519.51    8.06
   2   0  -2  516.51    7.90
   2   0  -2  517.93    8.05
   2   0  -2  511.87    7.92
   2   0  -110555.89  229.54
   2   0  -110651.09  228.61
   2   0  -110474.76  229.11
  -2   0   1 9360.38  201.62
  -2   0   110070.00  215.03
   2   0   012712.34  289.52
   2   0   012615.12  284.85
   2   0   013351.32  294.73
  -2   0   011882.47  259.74
  -2   0   012417.64  277.71
  -2   0   012710.46  285.48
   2   0   1  616.39    8.96
   2   0   1  651.02   10.52
  -2   0  -1  791.44   12.77
  -2   0  -1  745.99   13.50
   2   0   2  303.81    5.60
  -2   0  -2  428.49    6.50
  -2   0  -2  364.22    6.55
   2   0   3 4484.25   84.40
   2   0   3 4347.36   83.92
   2   0   3 4411.01   86.20
  -2   0  -3 4481.67   86.57
  -2   0  -3 4522.71   86.03
  -2   0  -3 4440.41   85.80
   2   0   4    0.67    0.63
   2   0   4   -0.29    0.70
   2   0   4   -0.10    0.54
  -2   0  -4   -0.03    0.79
  -2   0  -4    0.10    0.59
  -2   0  -4    0.06    0.68
   2   0   5 2239.93   40.87
   2   0   5 2156.64   40.32
   2   0   5 2197.08   40.56
  -2   0  -5 2206.14   40.32
  -2   0  -5 2167.78   39.70
  -2   0  -5 2169.00   40.99
   2   0   6  176.44    3.96
   2   0   6  169.82    3.67
   2   0   6  193.56    4.22
  -2   0  -6  130.87    3.80
  -2   0  -6  139.82    3.72
  -2   0  -6  143.05    3.45
   2   0   7   72.66    2.85
   2   0   7   80.26    3.78
  -2   0  -7   13.33    2.17
  -2   0  -7   24.59    1.57
   2   0   8  993.64   18.67
   2   0   8 1047.59   21.82
   2   0   8 1044.79   20.63
  -2   0  -8  998.90   20.07
  -2   0  -8  976.36   19.14
  -2   0  -8 1024.21   20.04
   2   0   9   28.49    3.36
   2   0   9   31.81    2.39
   2   0   9   26.45    2.03
  -2   0  -9   31.87    2.30
  -2   0  -9   26.24    2.93
  -2   0  -9   27.81    2.18
   2   0  10  234.32    4.98
   2   0  10  231.81    5.77
   2   0  10  247.94    6.29
  -2   0 -10  242.62    5.03
  -2   0 -10  235.25    7.03
  -2   0 -10  237.35    6.18
   2   0  11  578.85   14.89
   2   0  11  573.51   13.96
   2   0  11  565.28   10.74
  -2   0 -11  571.55   12.12
  -2   0 -11  585.46   11.89
  -2   0 -11  560.36   12.58
   2   0  12    2.31    1.62
   2   0  12    2.49    2.50
   2   0  12    1.47    1.88
  -2   0 -12    1.85    1.45
  -2   0 -12    1.93    2.99
  -2   0 -12    1.71    1.53
   2   0  13    5.28    1.17
   2   0  13    3.33    2.94
   2   0  13    7.53    3.74
  -2   0 -13    2.90    2.19
  -2   0 -13    4.69    1.68
  -2   0 -13    3.69    1.05
   2   0  14   52.09    4.02
   2   0  14   45.40    4.68
   2   0  14   42.64    2.89
  -2   0 -14   45.88    3.88
  -2   0 -14   47.60    1.99
  -2   0 -14   49.73    3.05
   2   0  15  138.75    5.30
   2   0  15  143.03    6.54
  -2   0 -15  133.14    8.69
  -2   0 -15  130.34    4.97
   2   0  16   67.36    3.96
   2   0  16   77.85    5.55
  -2   0 -16   75.45    5.78
  -2   0 -16   71.42    5.23
   2   0  17  228.03    7.86
  -2   0 -17  225.13    9.55
  -2   0 -17  228.28    7.63
  -2   0 -17  237.44    9.49
   2   1 -16    1.79    4.75
   2   1 -16    1.14    4.81
   2   1 -15    8.29    3.35
   2   1 -15    7.88    3.39
   2   1 -14    5.50    4.62
  -2  -1  14    2.66    2.82
   2   1 -13    3.46    1.04
   2   1 -13    6.82    2.73
  -2  -1  13    3.82    1.10
  -2  -1  13    4.39    2.68
   2   1 -12  122.05    2.80
   2   1 -12  116.23    2.98
   2   1 -12  135.81    5.75
  -2  -1  12  113.39    2.60
  -2  -1  12  120.91    3.93
  -2  -1  12  131.97    8.03
   2   1 -11  144.77    3.41
   2   1 -11  155.12    3.42
   2   1 -11  148.66    8.40
  -2  -1  11  147.21    4.33
  -2  -1  11  147.31    5.99
  -2  -1  11  138.00    3.10
   2   1 -10 1861.72   35.73
   2   1 -10 1929.48   35.67
   2   1 -10 1912.04   41.14
  -2  -1  10 1900.03   40.17
  -2  -1  10 1836.25   34.82
  -2  -1  10 1854.38   34.53
   2   1  -9  281.52    5.48
   2   1  -9  268.96    5.91
   2   1  -9  284.73    7.67
  -2  -1   9  280.13    6.00
  -2  -1   9  261.01    5.01
  -2  -1   9  270.67    7.43
   2   1  -8  281.75    8.52
   2   1  -8  308.77    5.62
   2   1  -8  292.93    5.10
  -2  -1   8  295.26    5.66
  -2  -1   8  285.90    5.68
  -2  -1   8  295.02    6.96
   2   1  -7  175.71    3.52
   2   1  -7  171.90    4.53
   2   1  -7  179.64    3.50
  -2  -1   7  170.06    3.00
  -2  -1   7  170.16    3.22
  -2  -1   7  168.83    4.47
   2   1  -6   34.60    1.91
   2   1  -6   36.08    1.34
   2   1  -6   36.93    1.32
  -2  -1   6   33.58    0.95
  -2  -1   6   34.12    1.15
  -2  -1   6   35.58    1.94
   2   1  -5  663.46   12.26
   2   1  -5  695.47   10.56
   2   1  -5  686.23   11.46
  -2  -1   5  669.08   11.03
  -2  -1   5  679.86   10.75
  -2  -1   5  652.69   13.21
   2   1  -4  433.82    7.82
   2   1  -4  449.63    7.54
   2   1  -4  443.00    6.88
   2   1  -4  425.59    6.19
  -2  -1   4  453.54    8.18
  -2  -1   4  441.64    8.03
   2   1  -3 4420.24   81.58
   2   1  -3 4387.11   84.04
   2   1  -3 4373.14   80.43
   2   1  -3 4276.93   82.64
  -2  -1   3 4275.86   81.66
  -2  -1   3 4282.40   83.70
   2   1  -2  298.12    4.46
   2   1  -2  296.43    4.80
   2   1  -2  301.24    4.44
   2   1  -2  311.44    5.76
  -2  -1   2  301.97    4.94
  -2  -1   2  297.97    4.97
   2   1  -1  952.41   16.11
   2   1  -1  990.46   14.90
   2   1  -1  992.81   15.47
  -2  -1   1  944.52   15.32
  -2  -1   1  960.45   14.66
  -2  -1   1  972.43   15.18
   2   1   0  445.73    7.87
   2   1   0  433.92    6.61
   2   1   0  434.22    5.83
  -2  -1   0  431.42    5.81
  -2  -1   0  445.83    7.84
  -2  -1   0  426.00    6.42
   2   1   1  345.37    6.40
   2   1   1  285.70    5.33
  -2  -1  -1  325.02    5.47
  -2  -1  -1  302.54    5.01
   2   1   2 1978.10   34.56
   2   1   2 2036.21   35.31
   2   1   2 1904.92   33.36
  -2  -1  -2 1896.04   29.68
  -2  -1  -2 1980.05   34.19
   2   1   3 6429.88  129.61
   2   1   3 6334.98  127.35
   2   1   3 6302.69  129.19
  -2  -1  -3 6325.06  123.23
  -2  -1  -3 6231.59  121.25
  -2  -1  -3 6235.11  126.28
   2   1   4  262.26    4.93
   2   1   4  263.96    4.77
   2   1   4  242.38    4.33
  -2  -1  -4  251.88    4.13
  -2  -1  -4  259.35    4.85
  -2  -1  -4  261.23    5.27
   2   1   5  453.69    7.51
   2   1   5  448.44    8.09
   2   1   5  444.63    7.42
  -2  -1  -5  444.66    7.93
  -2  -1  -5  454.85    7.51
  -2  -1  -5  442.96    7.36
   2   1   6   90.78    2.64
   2   1   6   90.65    2.32
   2   1   6   87.15    2.70
  -2  -1  -6   90.91    3.59
  -2  -1  -6   87.02    2.29
  -2  -1  -6   89.54    2.06
   2   1   7 4678.80   93.52
   2   1   7 4743.76   97.00
   2   1   7 4852.11   97.68
  -2  -1  -7 4744.76   99.29
  -2  -1  -7 4739.51   96.33
  -2  -1  -7 4858.71   95.81
   2   1   8  236.49    5.18
   2   1   8  255.82    6.93
   2   1   8  251.68    5.50
  -2  -1  -8  236.49    6.41
  -2  -1  -8  255.74    6.74
  -2  -1  -8  237.59    4.49
   2   1   9 1232.96   23.82
   2   1   9 1226.55   22.35
   2   1   9 1263.30   24.28
  -2  -1  -9 1254.37   24.27
  -2  -1  -9 1277.06   22.21
  -2  -1  -9 1232.46   23.91
   2   1  10  204.36    4.77
   2   1  10  210.78    6.95
   2   1  10  203.93    5.40
  -2  -1 -10  204.28    5.28
  -2  -1 -10  197.91    6.77
  -2  -1 -10  205.77    4.67
   2   1  11   27.41    2.60
   2   1  11   30.96    2.72
  -2  -1 -11   19.99    2.26
  -2  -1 -11   13.61    1.23
  -2  -1 -11   24.59    2.46
   2   1  12  524.81   11.79
   2   1  12  523.80    9.46
   2   1  12  562.42   12.75
  -2  -1 -12  533.87   14.25
  -2  -1 -12  529.52   11.77
  -2  -1 -12  531.00   10.16
   2   1  13  546.10   13.26
   2   1  13  504.69    9.56
   2   1  13  544.24   15.05
  -2  -1 -13  544.09   12.93
  -2  -1 -13  505.71    9.31
  -2  -1 -13  538.09   13.36
   2   1  14  234.43    5.18
   2   1  14  244.27    7.29
   2   1  14  232.99    4.67
  -2  -1 -14  243.96    7.88
  -2  -1 -14  249.80    9.05
  -2  -1 -14  243.49    7.63
   2   1  15  131.31    5.31
  -2  -1 -15  133.66    6.16
  -2  -1 -15  143.95    5.95
  -2  -1 -15  130.13    5.23
   2   1  16   -0.53    1.86
  -2  -1 -16   -0.03    2.83
  -2  -1 -16    1.35    2.10
  -2  -1 -16   -0.47    2.31
   2   1  17   17.77    4.89
  -2  -1 -17   21.38    3.86
  -2  -1 -17   20.25    3.13
  -2  -1 -17   22.70    3.82
   2   1  18    3.64    2.50
  -2  -1 -18    4.03    3.35
  -2  -1 -18    0.29    5.20
  -2  -1 -18    7.53    2.45
   2   2 -15    0.24    2.52
  -2  -2  15   -1.76    2.96
   2   2 -14    9.51    3.40
  -2  -2  14    6.87    3.24
   2   2 -13  122.26    6.14
  -2  -2  13  103.95    3.08
  -2  -2  13  120.94    5.94
   2   2 -12  206.26    7.40
   2   2 -12  206.29    6.05
  -2  -2  12  209.74    7.41
  -2  -2  12  191.67    4.50
   2   2 -11   96.74    7.04
   2   2 -11   92.05    1.96
   2   2 -11  100.47    3.06
  -2  -2  11   94.59    6.98
  -2  -2  11   92.03    3.68
  -2  -2  11   91.09    1.95
   2   2 -10   48.78    3.36
   2   2 -10   41.17    1.46
  -2  -2  10   45.22    3.35
  -2  -2  10   41.71    1.14
  -2  -2  10   41.31    1.82
   2   2  -9    0.34    1.51
   2   2  -9   -0.46    0.53
   2   2  -9    0.25    0.92
  -2  -2   9    0.00    0.36
  -2  -2   9    1.55    0.85
  -2  -2   9    2.19    2.47
   2   2  -8  258.11    6.64
   2   2  -8  258.43    4.12
   2   2  -8  271.88    6.76
  -2  -2   8  258.46    6.53
  -2  -2   8  252.32    4.07
  -2  -2   8  248.35    5.14
   2   2  -7   23.20    0.68
   2   2  -7   24.37    2.07
   2   2  -7   22.10    1.53
  -2  -2   7   21.55    1.99
  -2  -2   7   21.87    0.51
  -2  -2   7   21.66    2.08
   2   2  -6  645.86   12.71
   2   2  -6  671.46   13.43
   2   2  -6  638.99    8.86
   2   2  -6  652.63    9.01
  -2  -2   6  642.93   12.69
  -2  -2   6  648.30   14.01
   2   2  -5 1111.23   22.04
   2   2  -5 1149.41   20.64
  -2  -2   5 1101.44   21.59
  -2  -2   5 1086.89   19.40
   2   2  -4   88.28    2.62
   2   2  -4   99.74    3.35
  -2  -2   4   88.44    3.62
  -2  -2   4  110.65    3.37
   2   2  -3 2792.83   51.95
   2   2  -3 2849.29   53.20
  -2  -2   3 2721.20   51.44
  -2  -2   3 2703.81   50.12
   2   2  -2   70.31    1.78
   2   2  -2   73.46    2.02
   2   2  -2   72.79    0.95
  -2  -2   2   70.47    1.77
  -2  -2   2   68.38    1.92
   2   2  -1 2232.78   36.72
   2   2  -1 2172.12   38.93
   2   2  -1 2189.12   38.00
  -2  -2   1 2177.29   37.73
  -2  -2   1 2158.02   38.64
   2   2   0   93.25    2.26
   2   2   0   94.70    1.70
   2   2   0   93.17    1.62
  -2  -2   0   92.28    1.55
  -2  -2   0   92.66    2.02
  -2  -2   0   91.84    2.24
   2   2   1 3158.03   58.82
   2   2   1 3053.27   54.75
   2   2   1 3064.70   53.71
  -2  -2  -1 3062.51   53.31
  -2  -2  -1 3025.54   54.99
  -2  -2  -1 3007.67   55.11
   2   2   2  108.14    1.75
   2   2   2  106.11    2.35
   2   2   2  119.81    3.09
  -2  -2  -2   97.60    2.08
  -2  -2  -2  104.59    1.97
  -2  -2  -2  113.19    2.99
   2   2   3    9.45    0.82
   2   2   3    1.68    1.00
   2   2   3    7.20    0.81
  -2  -2  -3    2.79    0.41
  -2  -2  -3    6.03    0.85
   2   2   4 3665.04   68.60
   2   2   4 3651.51   67.02
   2   2   4 3711.35   72.13
  -2  -2  -4 3611.00   68.86
  -2  -2  -4 3659.20   68.01
  -2  -2  -4 3633.81   67.90
   2   2   5 3637.95   67.98
   2   2   5 3675.90   71.02
   2   2   5 3570.14   67.83
  -2  -2  -5 3571.23   67.32
  -2  -2  -5 3536.68   68.58
  -2  -2  -5 3517.87   67.39
   2   2   6  172.01    3.65
   2   2   6  179.58    5.22
   2   2   6  173.11    3.18
  -2  -2  -6  173.85    3.42
  -2  -2  -6  171.83    3.53
  -2  -2  -6  174.39    4.00
   2   2   7 1425.05   25.30
   2   2   7 1425.46   24.47
   2   2   7 1503.05   28.36
  -2  -2  -7 1376.77   25.99
  -2  -2  -7 1459.42   27.67
  -2  -2  -7 1378.37   26.26
   2   2   8  668.21   11.10
   2   2   8  666.76   14.74
   2   2   8  677.33   11.20
  -2  -2  -8  669.60   12.85
  -2  -2  -8  664.61   13.29
  -2  -2  -8  668.20   13.64
   2   2   9   34.09    1.95
   2   2   9   41.21    1.87
   2   2   9   51.80    2.64
  -2  -2  -9   43.23    2.38
  -2  -2  -9   37.44    2.12
  -2  -2  -9   49.54    3.88
   2   2  10  413.95    6.87
   2   2  10  420.33    9.29
   2   2  10  421.21    7.09
  -2  -2 -10  418.39    8.99
  -2  -2 -10  408.07    8.66
  -2  -2 -10  428.80    9.33
   2   2  11  348.35    6.86
   2   2  11  360.36    8.80
   2   2  11  348.27    6.74
  -2  -2 -11  365.02   10.83
  -2  -2 -11  376.76    9.04
  -2  -2 -11  357.37    8.54
   2   2  12  104.83    2.31
   2   2  12  109.79    4.66
   2   2  12  102.56    2.18
  -2  -2 -12  110.52    4.53
  -2  -2 -12  102.41    4.48
  -2  -2 -12  104.78    4.21
   2   2  13    0.11    0.92
   2   2  13    0.27    3.06
   2   2  13    1.73    0.52
  -2  -2 -13    1.21    1.71
  -2  -2 -13   -0.41    1.76
  -2  -2 -13    1.03    2.69
   2   2  14  177.79    3.43
   2   2  14  165.99    3.27
   2   2  14  194.29    6.40
  -2  -2 -14  187.29    9.16
  -2  -2 -14  197.24    6.48
  -2  -2 -14  194.35    6.36
   2   2  15  128.96    5.49
  -2  -2 -15  129.13    5.46
  -2  -2 -15  124.41    5.23
  -2  -2 -15  122.04    5.71
   2   2  16    4.56    2.40
  -2  -2 -16    2.93    2.23
  -2  -2 -16    2.17    4.20
  -2  -2 -16    3.10    2.43
   2   2  17   26.56    3.50
  -2  -2 -17   30.42    5.27
  -2  -2 -17   30.28    5.99
  -2  -2 -17   25.15    4.08
   2   2  18   -0.93    2.18
  -2  -2 -18    1.62    2.76
  -2  -2 -18    1.10    2.22
  -2  -2 -18    0.29    2.61
   2   3 -15   16.92    4.40
  -2  -3  15   17.21    4.39
   2   3 -14   36.74    4.82
  -2  -3  14   28.53    4.59
   2   3 -13  140.17    7.01
   2   3 -13  128.48    5.94
  -2  -3  13  130.40    6.52
  -2  -3  13  120.96    5.37
   2   3 -12  126.18    4.23
   2   3 -12  122.57    6.10
  -2  -3  12  114.55    3.84
  -2  -3  12  132.85    6.21
   2   3 -11   85.03    3.33
   2   3 -11   79.09    7.06
  -2  -3  11   73.77    2.96
  -2  -3  11   78.15    6.90
   2   3 -10   49.77    5.50
   2   3 -10   41.79    3.83
  -2  -3  10   39.89    3.37
  -2  -3  10   45.60    3.62
   2   3  -9   28.29    3.32
   2   3  -9   28.18    4.54
  -2  -3   9   25.00    2.90
  -2  -3   9   26.78    1.95
   2   3  -8   50.47    2.55
   2   3  -8   50.47    4.75
  -2  -3   8   50.37    3.17
  -2  -3   8   48.79    3.35
   2   3  -7  296.75    7.65
   2   3  -7  308.79    7.17
  -2  -3   7  291.41    9.22
  -2  -3   7  294.32    6.69
   2   3  -6   70.20    3.27
   2   3  -6   76.63    3.07
  -2  -3   6   72.33    2.68
  -2  -3   6   70.45    4.70
   2   3  -5   -0.52    1.74
   2   3  -5    1.16    1.03
  -2  -3   5   41.52    2.53
  -2  -3   5    0.73    1.20
   2   3  -4   -1.79    1.57
   2   3  -4   -0.24    0.97
  -2  -3   4    0.16    0.71
  -2  -3   4   -0.10    0.79
   2   3  -3 1049.68   19.31
   2   3  -3 1119.57   21.88
  -2  -3   3 1003.86   18.53
  -2  -3   3 1031.84   18.87
   2   3  -2   11.53    1.76
   2   3  -2   12.72    1.33
  -2  -3   2   10.43    1.10
  -2  -3   2   10.55    1.24
   2   3  -1  430.22    8.11
   2   3  -1  437.70    6.45
   2   3  -1  422.56    7.79
  -2  -3   1  388.55    5.66
  -2  -3   1  409.25    7.13
  -2  -3   1  422.49    7.66
   2   3   0  253.63    4.99
   2   3   0  255.14    4.44
   2   3   0  258.71    4.00
  -2  -3   0  253.79    3.88
  -2  -3   0  255.37    4.93
  -2  -3   0  255.69    4.47
   2   3   1  766.69   13.32
   2   3   1  775.68   12.55
   2   3   1  788.82   13.32
  -2  -3  -1  771.49   13.38
  -2  -3  -1  763.83   12.45
  -2  -3  -1  752.73   12.10
   2   3   2  963.46   17.55
   2   3   2  924.22   15.20
   2   3   2  961.08   16.89
  -2  -3  -2  891.62   15.07
  -2  -3  -2  954.71   16.59
  -2  -3  -2  963.57   16.58
   2   3   3 3483.17   67.30
   2   3   3 3601.86   67.81
   2   3   3 3494.40   66.79
  -2  -3  -3 3462.33   67.04
  -2  -3  -3 3520.00   65.45
  -2  -3  -3 3348.53   65.78
   2   3   4  104.61    2.42
   2   3   4  106.73    2.88
   2   3   4  108.23    2.25
  -2  -3  -4  107.90    2.42
  -2  -3  -4  103.25    2.21
  -2  -3  -4  106.56    2.77
   2   3   5   43.87    1.54
   2   3   5   80.78    1.96
  -2  -3  -5  101.27    3.08
  -2  -3  -5   70.97    2.05
   2   3   6    1.04    1.15
   2   3   6    1.40    0.62
   2   3   6    1.22    0.72
  -2  -3  -6    2.31    0.66
  -2  -3  -6    2.48    1.27
  -2  -3  -6    2.01    1.13
   2   3   7 1217.00   21.39
   2   3   7 1233.92   21.06
   2   3   7 1256.87   23.59
  -2  -3  -7 1202.95   21.79
  -2  -3  -7 1215.61   21.87
  -2  -3  -7 1245.14   23.29
   2   3   8    1.62    1.82
   2   3   8    0.53    0.78
   2   3   8   -0.21    0.83
  -2  -3  -8    0.20    0.85
  -2  -3  -8    0.51    0.78
  -2  -3  -8   -0.44    1.77
   2   3   9  348.49    6.67
   2   3   9  357.65    6.75
   2   3   9  372.50    8.55
  -2  -3  -9  359.77    8.10
  -2  -3  -9  358.85    7.91
   2   3  10  229.27    6.27
   2   3  10  218.07    4.34
   2   3  10  217.91    4.48
  -2  -3 -10  222.71    5.49
  -2  -3 -10  227.16    6.20
  -2  -3 -10  212.37    5.58
   2   3  11 1198.45   20.19
   2   3  11 1237.33   25.82
   2   3  11 1235.27   21.74
  -2  -3 -11 1209.56   25.13
  -2  -3 -11 1228.99   25.12
  -2  -3 -11 1247.93   25.91
   2   3  12 1095.94   19.56
   2   3  12 1165.83   25.51
   2   3  12 1069.32   17.95
  -2  -3 -12 1112.98   24.15
  -2  -3 -12 1122.86   24.92
  -2  -3 -12 1176.31   25.95
   2   3  13   65.91    1.55
   2   3  13   74.51    6.05
  -2  -3 -13   70.24    3.81
  -2  -3 -13   68.91    3.87
  -2  -3 -13   72.71    5.37
   2   3  14    2.40    2.11
  -2  -3 -14    1.69    1.78
  -2  -3 -14    0.21    2.84
  -2  -3 -14   -0.30    1.67
   2   3  15    4.80    3.95
  -2  -3 -15    6.93    2.46
  -2  -3 -15    4.68    2.52
  -2  -3 -15    6.76    2.44
   2   3  16   -0.70    2.14
  -2  -3 -16   -0.54    2.04
  -2  -3 -16    0.40    2.27
  -2  -3 -16   -2.04    2.13
   2   3  17    9.92    3.00
  -2  -3 -17    8.21    2.89
  -2  -3 -17    9.54    3.19
  -2  -3 -17    7.25    3.07
   2   3  18  153.43    6.98
  -2  -3 -18  162.87    9.79
  -2  -3 -18  158.01    7.63
  -2  -3 -18  151.44    7.67
   2   4 -14   55.29    5.53
  -2  -4  14   45.02    8.26
   2   4 -13    0.11    1.60
   2   4 -13    1.66    3.96
  -2  -4  13    0.99    1.53
  -2  -4  13    1.22    2.70
   2   4 -12    6.00    5.06
   2   4 -12    5.57    2.05
  -2  -4  12    6.56    2.02
  -2  -4  12    8.02    3.24
   2   4 -11   54.11    3.31
   2   4 -11   54.55    6.91
  -2  -4  11   55.96    6.87
  -2  -4  11   51.11    4.41
   2   4 -10    6.81    4.35
   2   4 -10    7.00    2.09
  -2  -4  10    6.50    1.80
  -2  -4  10    7.26    2.67
   2   4  -9    7.77    4.06
   2   4  -9    6.71    1.99
  -2  -4   9    6.90    2.49
  -2  -4   9    6.71    2.86
   2   4  -8   26.97    2.60
   2   4  -8   29.17    3.00
  -2  -4   8   25.47    2.91
  -2  -4   8   24.82    2.27
   2   4  -7  124.82    4.37
   2   4  -7  125.42    4.73
  -2  -4   7  122.39    4.64
  -2  -4   7  114.75    5.42
   2   4  -6    0.74    1.53
   2   4  -6    1.00    1.56
  -2  -4   6    1.28    1.57
  -2  -4   6   -0.47    2.10
   2   4  -5  207.24    5.55
   2   4  -5  205.90    5.39
  -2  -4   5  199.63    5.25
  -2  -4   5  191.41    4.98
   2   4  -4  226.66    5.66
   2   4  -4  224.01    5.42
  -2  -4   4  224.80    5.38
  -2  -4   4  222.78    5.36
   2   4  -3  627.90   12.20
   2   4  -3  640.66   12.67
  -2  -4   3  610.12   11.94
  -2  -4   3  638.85   12.65
   2   4  -2    0.98    1.26
   2   4  -2    2.86    1.05
  -2  -4   2    0.79    0.99
  -2  -4   2    1.64    1.81
  -2  -4   2    1.58    0.34
   2   4  -1  280.76    6.55
   2   4  -1  277.41    4.61
   2   4  -1  279.81    7.32
  -2  -4   1  262.68    5.29
  -2  -4   1  267.06    5.66
  -2  -4   1  267.16    4.05
   2   4   0   65.61    1.54
   2   4   0   80.04    2.74
   2   4   0   59.93    2.10
  -2  -4   0   60.48    1.47
  -2  -4   0   76.46    2.54
  -2  -4   0   67.71    2.19
   2   4   1  105.27    3.12
   2   4   1  103.30    2.70
   2   4   1  114.84    2.53
  -2  -4  -1  115.63    2.87
  -2  -4  -1   98.24    2.95
  -2  -4  -1  115.36    3.07
   2   4   2 1650.70   31.86
   2   4   2 1651.00   30.38
   2   4   2 1624.39   29.05
  -2  -4  -2 1581.18   29.02
  -2  -4  -2 1650.90   31.49
  -2  -4  -2 1561.52   29.10
   2   4   3 1366.84   24.87
   2   4   3 1391.01   25.27
   2   4   3 1422.06   26.43
  -2  -4  -3 1375.63   25.48
  -2  -4  -3 1373.86   24.21
  -2  -4  -3 1363.65   24.64
   2   4   4 1805.91   33.44
   2   4   4 1776.44   33.94
   2   4   4 1809.71   32.58
  -2  -4  -4 1763.08   31.82
  -2  -4  -4 1761.90   32.41
  -2  -4  -4 1818.46   34.34
   2   4   5  417.13    9.19
   2   4   5  409.38    7.52
   2   4   5  423.96    7.60
  -2  -4  -5  405.95    7.37
  -2  -4  -5  414.28    7.43
  -2  -4  -5  415.42    8.05
   2   4   6   39.93    1.58
   2   4   6   34.76    3.38
   2   4   6   40.02    1.69
  -2  -4  -6   39.64    2.18
  -2  -4  -6   37.38    1.66
  -2  -4  -6   31.83    2.27
   2   4   7  151.26    3.93
   2   4   7  150.93    5.76
   2   4   7  125.21    3.22
  -2  -4  -7  148.70    4.54
  -2  -4  -7  130.57    2.97
  -2  -4  -7  150.57    5.58
   2   4   8 3772.02   80.92
   2   4   8 3562.86   72.45
   2   4   8 3713.69   73.75
  -2  -4  -8 3638.62   75.94
  -2  -4  -8 3686.37   77.49
   2   4   9 1558.21   27.48
   2   4   9 1547.91   27.50
   2   4   9 1589.02   34.62
  -2  -4  -9 1534.71   30.23
  -2  -4  -9 1563.09   34.04
  -2  -4  -9 1566.38   32.39
   2   4  10 1071.42   19.28
   2   4  10 1038.10   17.92
   2   4  10 1102.57   23.03
  -2  -4 -10 1075.11   21.71
  -2  -4 -10 1099.53   22.78
  -2  -4 -10 1043.47   21.41
   2   4  11   44.63    3.94
   2   4  11   48.33    1.42
   2   4  11   50.92    1.98
  -2  -4 -11   44.05    2.91
  -2  -4 -11   34.48    5.51
  -2  -4 -11   43.96    3.24
   2   4  12   17.14    2.65
   2   4  12   14.46    0.76
   2   4  12   15.90    1.14
  -2  -4 -12   13.75    2.21
  -2  -4 -12   17.42    2.34
  -2  -4 -12   14.98    2.55
   2   4  13    8.08    0.69
   2   4  13    9.51    2.59
  -2  -4 -13    9.70    3.89
  -2  -4 -13    7.44    2.18
  -2  -4 -13    7.20    2.09
   2   4  14   64.54    4.28
  -2  -4 -14   63.45    3.80
  -2  -4 -14   60.06    5.52
  -2  -4 -14   71.60    4.20
   2   4  15  211.63   10.09
  -2  -4 -15  197.53    9.64
  -2  -4 -15  187.26    6.71
  -2  -4 -15  191.79    8.88
   2   4  16    1.84    2.48
  -2  -4 -16    0.97    2.52
  -2  -4 -16    3.27    3.85
  -2  -4 -16    2.25    3.63
   2   4  17    0.41    3.71
  -2  -4 -17    0.64    2.45
  -2  -4 -17    2.14    2.55
  -2  -4 -17    1.39    2.44
   2   4  18  131.93    6.92
  -2  -4 -18  125.30    6.68
  -2  -4 -18  133.83    7.32
  -2  -4 -18  133.50    6.84
   2   5 -13    0.32    2.77
   2   5 -13   -0.84    1.95
  -2  -5  13    3.16    3.38
  -2  -5  13    1.96    3.24
   2   5 -12   48.46    3.84
   2   5 -12   50.90    5.14
  -2  -5  12   56.97    7.82
  -2  -5  12   45.37    3.54
   2   5 -11   68.22    4.32
   2   5 -11   70.73    5.39
  -2  -5  11   69.11    5.19
  -2  -5  11   62.66    3.77
   2   5 -10   15.28    3.46
   2   5 -10   18.99    2.87
  -2  -5  10   13.18    3.21
  -2  -5  10   11.42    3.76
   2   5  -9   18.79    2.88
   2   5  -9   20.73    5.13
  -2  -5   9   23.56    2.63
  -2  -5   9   19.76    3.30
   2   5  -8    2.14    3.34
   2   5  -8    3.17    3.53
  -2  -5   8    3.06    2.25
  -2  -5   8    3.13    1.83
   2   5  -7    2.36    2.66
   2   5  -7   -0.56    1.71
  -2  -5   7   -0.78    1.85
  -2  -5   7   -0.85    2.56
   2   5  -6  765.19   19.54
   2   5  -6  769.41   17.57
  -2  -5   6  746.99   16.80
  -2  -5   6  715.68   16.13
   2   5  -5  283.44    7.40
   2   5  -5  282.48    7.70
  -2  -5   5  265.82    7.09
  -2  -5   5  273.83    7.22
   2   5  -4   32.04    2.78
   2   5  -4   28.27    2.51
  -2  -5   4   34.01    2.50
  -2  -5   4   31.15    2.57
   2   5  -3   55.80    4.12
   2   5  -3   55.19    4.88
  -2  -5   3   51.48    2.85
  -2  -5   3   59.18    4.13
   2   5  -2  621.37   13.24
   2   5  -2  601.53   12.22
  -2  -5   2  595.65    9.06
  -2  -5   2  599.45   12.17
  -2  -5   2  592.07   12.45
  -2  -5   2  588.87    9.45
   2   5  -1  113.55    3.96
   2   5  -1  111.76    3.42
   2   5  -1  119.42    2.74
  -2  -5   1  106.49    2.11
  -2  -5   1  110.23    3.72
  -2  -5   1  112.65    4.62
   2   5   0 1406.43   25.18
   2   5   0 1373.35   26.96
   2   5   0 1351.30   25.80
  -2  -5   0 1342.62   25.33
  -2  -5   0 1338.17   24.04
  -2  -5   0 1360.68   28.14
   2   5   1 1195.40   23.61
   2   5   1 1206.75   23.47
   2   5   1 1221.47   21.54
  -2  -5  -1 1176.61   22.62
  -2  -5  -1 1180.35   22.01
  -2  -5  -1 1153.26   20.38
   2   5   2  230.78    4.94
   2   5   2  236.70    5.59
   2   5   2  239.65    5.72
  -2  -5  -2  222.26    4.63
  -2  -5  -2  231.43    5.02
  -2  -5  -2  231.68    6.53
   2   5   3   72.26    2.63
   2   5   3   73.02    2.31
   2   5   3   73.13    3.38
  -2  -5  -3   68.19    3.25
  -2  -5  -3   74.11    2.58
  -2  -5  -3   72.50    3.30
   2   5   4  773.22   15.86
   2   5   4  743.75   14.21
   2   5   4  764.88   14.13
  -2  -5  -4  747.46   14.15
  -2  -5  -4  748.06   15.25
  -2  -5  -4  742.84   14.91
   2   5   5 1175.05   22.05
   2   5   5 1199.19   22.29
   2   5   5 1215.24   23.16
  -2  -5  -5 1182.26   21.96
  -2  -5  -5 1174.95   22.51
  -2  -5  -5 1170.39   21.92
   2   5   6  700.91   15.01
   2   5   6  669.96   13.16
   2   5   6  714.43   14.92
  -2  -5  -6  662.57   13.20
  -2  -5  -6  724.31   13.72
  -2  -5  -6  664.19   14.82
   2   5   7  474.46    9.53
   2   5   7  468.04   10.07
   2   5   7  478.22   12.50
  -2  -5  -7  471.99   10.86
  -2  -5  -7  473.51    8.94
  -2  -5  -7  479.42   10.41
   2   5   8  287.91    7.39
   2   5   8  268.46    6.59
   2   5   8  272.51    6.34
  -2  -5  -8  270.33    6.44
  -2  -5  -8  274.27    6.39
  -2  -5  -8  272.29    7.19
   2   5   9 1216.08   25.42
   2   5   9 1162.26   23.28
   2   5   9 1142.79   20.93
  -2  -5  -9 1188.44   27.55
  -2  -5  -9 1158.38   23.35
  -2  -5  -9 1175.90   22.58
   2   5  10   40.45    3.50
   2   5  10   47.66    2.65
   2   5  10   47.42    2.64
  -2  -5 -10   63.59    4.85
  -2  -5 -10   49.00    3.75
  -2  -5 -10   56.73    3.36
   2   5  11   80.74    6.35
   2   5  11   81.65    2.08
   2   5  11   77.71    2.63
  -2  -5 -11   80.87    3.60
  -2  -5 -11   83.82    3.58
  -2  -5 -11   87.37    6.29
   2   5  12   36.52    1.75
   2   5  12   38.13    3.49
   2   5  12   34.55    1.73
  -2  -5 -12   31.46    3.39
  -2  -5 -12   36.96    2.75
  -2  -5 -12   38.81    4.43
   2   5  13    0.85    0.70
   2   5  13    1.77    0.74
   2   5  13    2.91    2.21
  -2  -5 -13    1.18    1.77
  -2  -5 -13    2.78    3.55
  -2  -5 -13    3.04    3.07
   2   5  14    1.95    2.43
  -2  -5 -14    1.28    2.20
  -2  -5 -14    0.40    1.83
  -2  -5 -14    1.32    3.07
   2   5  15  110.08    8.41
  -2  -5 -15  108.78    7.37
  -2  -5 -15  103.40    5.23
  -2  -5 -15  100.47    8.29
   2   5  16    2.71    2.84
  -2  -5 -16    2.03    2.34
  -2  -5 -16    0.47    3.70
  -2  -5 -16    0.55    2.61
   2   5  17    7.16    3.39
  -2  -5 -17    7.28    3.38
  -2  -5 -17    6.05    3.15
  -2  -5 -17    8.18    5.02
   2   6 -11   12.59    5.20
   2   6 -11   13.40    4.12
  -2  -6  11   11.09    3.79
  -2  -6  11   12.02    2.84
   2   6 -10   31.98    4.35
   2   6 -10   27.36    3.80
  -2  -6  10   29.47    4.22
  -2  -6  10   30.99    5.19
   2   6  -9   36.27    3.97
   2   6  -9   40.60    4.26
  -2  -6   9   44.43    6.49
  -2  -6   9   41.87    3.66
   2   6  -8   74.93    4.66
   2   6  -8   69.41    4.68
  -2  -6   8   76.33    6.86
  -2  -6   8   63.29    4.09
   2   6  -7    1.02    3.53
   2   6  -7    2.08    2.13
  -2  -6   7    1.60    2.14
  -2  -6   7    0.78    3.00
   2   6  -6    6.72    2.52
   2   6  -6   10.72    2.67
  -2  -6   6   11.21    3.96
  -2  -6   6    7.77    2.38
   2   6  -5   16.03    2.84
   2   6  -5   12.92    2.61
  -2  -6   5   15.57    4.05
  -2  -6   5   10.90    2.45
   2   6  -4  217.42    6.90
   2   6  -4  216.56    8.51
  -2  -6   4  208.06    8.13
  -2  -6   4  207.26    6.40
   2   6  -3   15.29    2.25
   2   6  -3   12.87    2.72
  -2  -6   3   11.22    2.33
  -2  -6   3   11.09    0.74
  -2  -6   3   13.00    2.20
   2   6  -2  264.24    6.94
   2   6  -2  283.33    7.85
  -2  -6   2  264.92    6.88
  -2  -6   2  262.11    7.22
  -2  -6   2  255.30    4.88
  -2  -6   2  256.08    4.81
   2   6  -1    2.22    1.90
   2   6  -1    3.63    2.41
   2   6  -1    1.39    0.69
  -2  -6   1    3.17    1.79
  -2  -6   1    2.48    2.56
  -2  -6   1    2.11    1.17
   2   6   0  127.37    4.15
   2   6   0  138.98    4.92
   2   6   0  132.45    3.04
  -2  -6   0  129.40    4.57
  -2  -6   0  129.71    3.02
  -2  -6   0  130.50    4.17
   2   6   1   21.69    2.21
   2   6   1   20.30    2.00
   2   6   1   22.32    2.53
  -2  -6  -1   21.87    3.59
  -2  -6  -1   19.63    2.23
  -2  -6  -1   19.74    1.44
   2   6   2    1.99    1.11
   2   6   2    2.78    1.34
   2   6   2    3.20    1.64
  -2  -6  -2    2.19    1.57
  -2  -6  -2    2.14    1.39
  -2  -6  -2    2.69    1.08
   2   6   3   19.42    2.19
   2   6   3   19.84    1.78
   2   6   3   19.28    2.83
  -2  -6  -3   19.30    1.71
  -2  -6  -3   16.86    3.15
  -2  -6  -3   18.94    1.87
   2   6   4    5.24    1.71
   2   6   4    7.87    1.54
   2   6   4    3.01    1.99
  -2  -6  -4    2.24    1.93
  -2  -6  -4    6.75    1.53
  -2  -6  -4    3.18    1.71
   2   6   5   53.60    2.80
   2   6   5   46.03    2.52
   2   6   5   50.58    2.66
  -2  -6  -5   43.86    4.09
  -2  -6  -5   50.75    2.56
  -2  -6  -5   46.87    2.52
   2   6   6  805.59   16.92
   2   6   6  778.14   15.61
   2   6   6  775.09   17.60
  -2  -6  -6  779.92   15.85
  -2  -6  -6  775.09   16.13
  -2  -6  -6  774.90   15.64
   2   6   7 1557.65   32.70
   2   6   7 1610.15   32.88
   2   6   7 1580.83   31.66
  -2  -6  -7 1560.50   30.73
  -2  -6  -7 1571.36   31.65
  -2  -6  -7 1556.57   32.20
   2   6   8  168.63    4.37
   2   6   8  174.26    5.66
   2   6   8  174.55    4.83
  -2  -6  -8  172.55    5.31
  -2  -6  -8  173.17    4.95
  -2  -6  -8  171.20    7.40
   2   6   9   32.35    1.80
   2   6   9   28.43    3.08
   2   6   9   27.78    2.41
  -2  -6  -9   31.19    1.74
  -2  -6  -9   28.92    2.51
  -2  -6  -9   30.97    3.05
   2   6  10    0.72    2.15
   2   6  10    0.48    1.35
   2   6  10    0.04    1.74
  -2  -6 -10    2.79    1.43
  -2  -6 -10   -0.17    1.87
  -2  -6 -10    0.24    0.83
   2   6  11   42.11    2.66
   2   6  11   41.60    1.73
   2   6  11   46.88    3.77
  -2  -6 -11   42.36    3.13
  -2  -6 -11   44.43    3.75
  -2  -6 -11   40.77    3.00
   2   6  12    1.09    0.75
   2   6  12    1.86    2.26
   2   6  12    1.41    1.26
  -2  -6 -12    0.30    1.73
  -2  -6 -12    1.18    2.71
  -2  -6 -12    1.50    2.13
   2   6  13   48.40    1.56
   2   6  13   48.68    4.39
   2   6  13   46.86    1.49
  -2  -6 -13   49.70    3.62
  -2  -6 -13   50.93    4.30
  -2  -6 -13   58.98    3.77
   2   6  14   77.04    5.20
  -2  -6 -14   71.28    6.25
  -2  -6 -14   68.82    4.88
  -2  -6 -14   67.04    4.34
   2   6  15   34.68    6.87
  -2  -6 -15   32.38    5.71
  -2  -6 -15   28.03    4.28
  -2  -6 -15   29.75    3.72
   2   6  16   59.73    5.60
  -2  -6 -16   62.92    4.81
  -2  -6 -16   61.83    4.82
  -2  -6 -16   62.21    8.03
   2   6  17    1.25    3.05
  -2  -6 -17   -0.61    2.16
  -2  -6 -17    0.53    2.14
  -2  -6 -17   -0.33    2.41
   2   7 -10   -0.87    3.49
   2   7 -10    0.90    3.74
  -2  -7  10   -0.61    3.15
  -2  -7  10   -3.28    2.54
   2   7  -9    4.35    4.94
   2   7  -9    3.88    3.33
  -2  -7   9    3.10    2.97
  -2  -7   9   -0.09    4.12
   2   7  -8   21.29    4.02
   2   7  -8   19.67    3.98
  -2  -7   8   25.75    4.05
  -2  -7   8   23.21    3.59
   2   7  -7    8.74    3.17
   2   7  -7    5.80    3.06
  -2  -7   7    7.14    2.87
  -2  -7   7    5.22    2.74
   2   7  -6    7.31    5.07
   2   7  -6    9.13    2.86
  -2  -7   6    8.69    4.35
  -2  -7   6    7.27    2.83
   2   7  -5    8.46    2.60
   2   7  -5    7.18    2.98
  -2  -7   5    6.81    2.63
  -2  -7   5    6.01    2.57
   2   7  -4   41.49    3.49
   2   7  -4   40.80    6.30
  -2  -7   4   36.63    3.41
  -2  -7   4   40.91    3.53
   2   7  -3    7.64    2.44
   2   7  -3   11.82    2.97
  -2  -7   3    9.03    0.60
  -2  -7   3    8.25    0.61
  -2  -7   3   10.33    2.63
  -2  -7   3   11.80    2.46
   2   7  -2    2.11    2.16
   2   7  -2   -1.83    2.82
  -2  -7   2   -2.84    1.79
  -2  -7   2    0.36    0.89
  -2  -7   2    0.05    1.58
   2   7  -1  348.52    9.84
   2   7  -1  359.75   11.21
  -2  -7   1  341.31    9.33
  -2  -7   1  332.86    7.26
  -2  -7   1  339.22    7.14
  -2  -7   1  345.04    8.82
   2   7   0  295.20   10.83
   2   7   0  271.68    7.25
   2   7   0  276.82    5.68
  -2  -7   0  264.33    7.68
  -2  -7   0  265.49    7.31
  -2  -7   0  270.66    5.68
   2   7   1   12.61    2.03
   2   7   1    7.40    1.38
   2   7   1   10.11    2.54
  -2  -7  -1    8.50    1.36
  -2  -7  -1    9.04    2.06
  -2  -7  -1    8.11    3.70
   2   7   2   24.65    2.92
   2   7   2   24.64    1.87
   2   7   2   24.37    2.39
  -2  -7  -2   27.95    2.71
  -2  -7  -2   21.75    4.09
  -2  -7  -2   25.72    1.89
   2   7   3  954.16   23.17
   2   7   3  938.41   19.60
   2   7   3  981.77   19.67
  -2  -7  -3  940.79   20.15
  -2  -7  -3  953.47   20.01
  -2  -7  -3  918.12   18.65
   2   7   4 1617.27   33.01
   2   7   4 1568.93   32.78
   2   7   4 1555.25   35.75
  -2  -7  -4 1553.46   32.23
  -2  -7  -4 1515.94   31.41
  -2  -7  -4 1549.37   32.73
   2   7   5  563.14   12.44
   2   7   5  545.05   14.14
   2   7   5  550.81   12.49
  -2  -7  -5  541.82   14.19
  -2  -7  -5  548.82   12.31
  -2  -7  -5  531.19   12.06
   2   7   6  142.88    6.75
   2   7   6  140.51    4.68
   2   7   6  147.88    4.69
  -2  -7  -6  132.37    4.58
  -2  -7  -6  137.76    6.60
  -2  -7  -6  139.27    5.89
   2   7   7  287.64    8.79
   2   7   7  305.22    8.03
   2   7   7  300.06    9.14
  -2  -7  -7  285.43    6.92
  -2  -7  -7  289.55    7.39
  -2  -7  -7  293.27    7.84
   2   7   8   29.81    3.02
   2   7   8   27.62    3.39
   2   7   8   27.75    2.53
  -2  -7  -8   30.92    3.16
  -2  -7  -8   27.79    2.67
  -2  -7  -8   26.63    2.99
   2   7   9  279.63   10.42
   2   7   9  260.45    7.02
   2   7   9  257.66    6.27
  -2  -7  -9  256.80    5.98
  -2  -7  -9  254.08    6.98
  -2  -7  -9  261.87   10.08
   2   7  10   92.47    5.66
   2   7  10   86.31    4.76
   2   7  10   82.84    3.03
  -2  -7 -10   85.53    2.95
  -2  -7 -10   89.41    4.78
  -2  -7 -10   92.45    4.08
   2   7  11   52.48    2.35
   2   7  11   51.27    5.22
   2   7  11   62.85    4.41
  -2  -7 -11   54.57    3.55
  -2  -7 -11   51.47    2.20
  -2  -7 -11   53.29    6.36
   2   7  12    6.52    1.26
   2   7  12    9.70    2.98
   2   7  12    4.38    1.15
  -2  -7 -12    5.61    3.76
  -2  -7 -12    4.64    2.91
  -2  -7 -12    8.37    2.38
   2   7  13   21.15    3.99
  -2  -7 -13   22.41    3.15
  -2  -7 -13   24.59    3.14
  -2  -7 -13   26.48    3.83
   2   7  14  175.33   11.07
  -2  -7 -14  167.09    8.94
  -2  -7 -14  167.37    7.49
  -2  -7 -14  165.28    6.65
   2   7  15    7.03    5.79
  -2  -7 -15    9.74    3.08
  -2  -7 -15    9.93    3.72
  -2  -7 -15   10.55    3.12
   2   7  16   78.05    6.24
  -2  -7 -16   85.91    5.56
  -2  -7 -16   85.51    6.26
  -2  -7 -16   74.56    5.48
   2   8  -8    6.12    5.98
   2   8  -8    7.89    5.80
  -2  -8   8    3.06    3.13
  -2  -8   8    0.18    2.84
   2   8  -7    2.73    2.99
   2   8  -7   -0.29    2.68
  -2  -8   7    3.09    2.91
  -2  -8   7    1.46    2.84
   2   8  -6   78.77    9.09
   2   8  -6   72.93    5.36
  -2  -8   6   70.73    5.32
  -2  -8   6   66.21    5.23
   2   8  -5   17.79    4.01
   2   8  -5   12.69    3.37
  -2  -8   5   15.12    5.86
  -2  -8   5   19.65    3.60
   2   8  -4  172.40    6.88
   2   8  -4  183.09    8.04
  -2  -8   4  169.89    6.78
  -2  -8   4  175.04    9.97
   2   8  -3   52.34    4.85
   2   8  -3   50.42    4.01
  -2  -8   3   46.67    3.85
  -2  -8   3   41.32    6.39
   2   8  -2   93.49    4.74
   2   8  -2  100.23    8.60
  -2  -8   2   82.26    2.23
  -2  -8   2   89.03    4.67
  -2  -8   2   79.73    2.29
  -2  -8   2   90.22    7.41
   2   8  -1    6.44    4.10
   2   8  -1    9.67    3.12
  -2  -8   1    8.65    2.51
  -2  -8   1   10.29    4.55
  -2  -8   1    6.75    1.19
  -2  -8   1    7.11    1.10
   2   8   0  250.22    8.49
   2   8   0  234.35    9.94
  -2  -8   0  243.07   10.57
  -2  -8   0  240.20    7.44
  -2  -8   0  226.39    6.48
  -2  -8   0  224.92    6.25
   2   8   1  877.33   24.35
   2   8   1  853.15   22.22
   2   8   1  827.85   18.23
  -2  -8  -1  861.56   20.39
  -2  -8  -1  816.29   16.72
  -2  -8  -1  845.08   19.16
   2   8   2  194.54    7.00
   2   8   2  177.80    6.04
   2   8   2  192.53    5.19
  -2  -8  -2  188.35    6.70
  -2  -8  -2  197.20    8.86
  -2  -8  -2  186.41    5.15
   2   8   3    8.78    1.91
   2   8   3   13.22    2.38
   2   8   3   13.37    2.77
  -2  -8  -3   11.52    4.24
  -2  -8  -3   13.12    1.99
  -2  -8  -3   15.17    2.52
   2   8   4   25.99    2.55
   2   8   4   27.18    2.78
   2   8   4   32.18    3.15
  -2  -8  -4   25.70    2.85
  -2  -8  -4   30.85    2.92
  -2  -8  -4   27.58    2.52
   2   8   5  173.12    6.04
   2   8   5  171.37    7.61
   2   8   5  181.39    5.69
  -2  -8  -5  183.83    7.60
  -2  -8  -5  174.30    5.86
  -2  -8  -5  165.63    5.49
   2   8   6  137.95    5.01
   2   8   6  125.00    4.92
   2   8   6  123.13    4.84
  -2  -8  -6  132.22    4.77
  -2  -8  -6  132.06    6.80
  -2  -8  -6  120.59    4.87
   2   8   7   89.07    4.33
   2   8   7   78.68    3.86
   2   8   7   86.49    3.93
  -2  -8  -7   81.48    5.95
  -2  -8  -7   78.37    3.61
  -2  -8  -7   82.95    4.25
   2   8   8    5.28    1.81
   2   8   8    3.30    2.40
   2   8   8    4.10    2.00
  -2  -8  -8    2.60    1.60
  -2  -8  -8    5.55    3.21
  -2  -8  -8    2.65    2.21
   2   8   9    0.94    1.42
   2   8   9    0.36    2.12
   2   8   9    1.32    2.81
  -2  -8  -9    2.34    3.02
  -2  -8  -9    0.71    1.36
  -2  -8  -9    4.23    3.47
   2   8  10   80.10    4.89
   2   8  10   69.50    3.30
   2   8  10   72.19    5.89
  -2  -8 -10   68.16    3.01
  -2  -8 -10   72.81    4.15
  -2  -8 -10   68.43    4.71
   2   8  11   20.63    2.96
   2   8  11   20.75    3.32
   2   8  11   18.74    5.95
  -2  -8 -11   22.31    3.08
  -2  -8 -11   18.61    3.63
  -2  -8 -11   19.23    2.99
   2   8  12  107.39    5.14
   2   8  12   91.31    3.47
   2   8  12  113.99    8.89
  -2  -8 -12  103.22    7.38
  -2  -8 -12   92.95    4.38
  -2  -8 -12  102.27    8.82
   2   8  13    8.83    5.80
  -2  -8 -13    8.08    3.59
  -2  -8 -13    9.19    2.94
  -2  -8 -13    7.70    2.84
   2   8  14   78.36    9.23
  -2  -8 -14   73.21    5.08
  -2  -8 -14   71.55    4.94
  -2  -8 -14   70.29    8.78
   2   8  15   25.61    7.81
  -2  -8 -15   31.19    4.18
  -2  -8 -15   32.20    4.86
  -2  -8 -15   27.98    4.18
   2   9  -5    1.66    2.76
   2   9  -5    0.27    3.21
  -2  -9   5    0.52    2.81
  -2  -9   5    1.23    4.32
   2   9  -4   76.01    6.63
   2   9  -4   73.49    8.05
  -2  -9   4   66.38    8.17
  -2  -9   4   63.58    5.73
   2   9  -3   -0.77    2.85
   2   9  -3    1.30    2.35
  -2  -9   3   -0.22    4.07
  -2  -9   3    2.44    2.93
   2   9  -2   25.80    7.17
   2   9  -2   24.76    3.72
  -2  -9   2   27.36    4.39
  -2  -9   2   34.28    6.05
   2   9  -1   57.77    6.68
   2   9  -1   62.61    5.57
  -2  -9   1   61.18    7.06
  -2  -9   1   66.52    5.24
   2   9   0    1.67    2.89
   2   9   0    3.07    3.87
  -2  -9   0   -2.21    2.58
  -2  -9   0    0.78    0.85
  -2  -9   0   -0.75    1.23
  -2  -9   0   -0.75    1.76
   2   9   1  115.18    5.46
   2   9   1  120.10    9.35
  -2  -9  -1  107.08    4.80
  -2  -9  -1  116.66    6.09
  -2  -9  -1  112.39    7.72
  -2  -9  -1  107.22    3.81
   2   9   2   87.55    4.68
   2   9   2  101.11    5.73
   2   9   2   84.86    3.49
  -2  -9  -2   91.49    5.26
  -2  -9  -2   96.50    4.93
  -2  -9  -2   83.82    5.13
   2   9   3  114.31    5.95
   2   9   3  116.57    5.26
   2   9   3  122.98    6.04
  -2  -9  -3  118.38    5.38
  -2  -9  -3  106.39    5.30
  -2  -9  -3  110.10    5.89
   2   9   4    0.96    3.41
   2   9   4    3.47    2.45
   2   9   4    2.51    2.92
  -2  -9  -4    2.17    2.11
  -2  -9  -4   -0.04    2.15
  -2  -9  -4    3.92    2.80
   2   9   5   -1.11    1.97
   2   9   5    0.86    2.54
  -2  -9  -5    0.15    1.73
  -2  -9  -5    0.47    2.47
  -2  -9  -5    0.05    2.78
   2   9   6   -0.95    1.84
   2   9   6   -0.13    3.08
   2   9   6   -1.19    1.99
  -2  -9  -6    0.07    1.81
  -2  -9  -6    0.00    1.66
  -2  -9  -6    0.74    1.66
   2   9   7   -0.81    1.83
   2   9   7    0.12    1.83
   2   9   7   -1.22    1.92
  -2  -9  -7   -0.05    1.67
  -2  -9  -7   -0.20    1.67
  -2  -9  -7   -0.13    1.48
   2   9   8   -0.41    1.84
   2   9   8    1.52    1.73
   2   9   8   -0.15    2.07
  -2  -9  -8    0.29    1.83
  -2  -9  -8    0.90    2.47
  -2  -9  -8   -0.09    1.97
   2   9   9    6.12    3.54
   2   9   9    5.22    2.52
   2   9   9    8.07    4.75
  -2  -9  -9    5.71    3.38
  -2  -9  -9    4.05    4.82
  -2  -9  -9    9.02    2.69
   2   9  10    0.01    2.74
   2   9  10    3.71    1.84
   2   9  10    0.96    2.31
  -2  -9 -10    2.31    3.99
  -2  -9 -10    1.90    2.68
  -2  -9 -10    2.89    2.74
   2   9  11   59.73    5.14
   2   9  11   49.75    4.82
   2   9  11   50.48    4.11
  -2  -9 -11   53.54    4.43
  -2  -9 -11   49.30    4.93
  -2  -9 -11   45.31    2.93
   2   9  12  108.29    6.49
   2   9  12   86.15    4.11
   2   9  12   95.50    5.37
  -2  -9 -12   94.79    9.56
  -2  -9 -12   94.41    5.64
   2   9  13   28.55    5.00
   2   9  13   35.26    4.18
  -2  -9 -13   35.36    6.63
  -2  -9 -13   32.04    5.04
   2   9  14   46.34    5.68
  -2  -9 -14   38.97    4.58
  -2  -9 -14   41.93    8.43
  -2  -9 -14   35.43    4.51
   2  10  -2   47.54    9.80
   2  10  -2   44.09    4.94
  -2 -10   2   46.88    4.85
  -2 -10   2   42.45    5.50
   2  10  -1  184.11    9.93
   2  10  -1  175.60   11.43
  -2 -10   1  177.47    8.05
  -2 -10   1  183.43    8.85
   2  10   0   92.31    7.13
   2  10   0   92.93    5.98
  -2 -10   0   88.32    5.90
  -2 -10   0   89.07    9.59
   2  10   1  105.21   10.52
   2  10   1   94.08    5.71
  -2 -10  -1   95.49    5.80
  -2 -10  -1   81.28    3.58
  -2 -10  -1   86.56    8.78
  -2 -10  -1   84.64    5.26
   2  10   2   60.31    4.83
   2  10   2   59.23    8.76
  -2 -10  -2   54.03    3.37
  -2 -10  -2   60.12    5.09
  -2 -10  -2   61.34    4.77
  -2 -10  -2   59.84    4.88
   2  10   3    6.33    3.45
   2  10   3    5.57    2.88
   2  10   3    6.98    2.04
  -2 -10  -3    3.38    2.71
  -2 -10  -3    3.33    2.85
  -2 -10  -3    3.16    1.98
   2  10   4    0.46    2.55
   2  10   4    1.11    1.76
   2  10   4    0.17    2.25
  -2 -10  -4    0.62    2.11
  -2 -10  -4    0.22    1.64
  -2 -10  -4   -0.06    2.13
   2  10   5   38.34    4.42
   2  10   5   41.47    3.94
   2  10   5   37.24    3.48
  -2 -10  -5   34.16    4.03
  -2 -10  -5   32.83    3.36
  -2 -10  -5   33.57    4.03
   2  10   6   39.36    4.20
   2  10   6   36.04    4.04
   2  10   6   42.71    5.78
  -2 -10  -6   40.36    3.97
  -2 -10  -6   39.32    4.08
  -2 -10  -6   40.62    3.82
   2  10   7    3.00    2.37
   2  10   7    2.44    2.36
   2  10   7   -0.25    2.38
  -2 -10  -7   -0.04    1.75
  -2 -10  -7    0.01    1.65
  -2 -10  -7   -0.31    3.39
   2  10   8   -0.16    2.70
   2  10   8    6.15    2.77
   2  10   8    6.23    4.07
  -2 -10  -8   -0.24    3.52
  -2 -10  -8   -0.18    3.34
  -2 -10  -8   -0.16    2.85
   2  10   9   -1.72    1.86
   2  10   9    0.02    2.17
   2  10   9    1.36    2.00
  -2 -10  -9   -0.26    2.29
  -2 -10  -9    0.35    2.41
  -2 -10  -9   -2.47    2.93
   2  10  10   28.95    3.37
   2  10  10   18.25    6.99
   2  10  10   26.92    3.94
  -2 -10 -10   24.61    2.96
  -2 -10 -10   25.23    4.05
  -2 -10 -10   26.56    4.30
   2  10  11  110.08    7.36
   2  10  11  119.43    7.20
   2  10  11  110.72    6.05
  -2 -10 -11  102.85    6.65
  -2 -10 -11  114.22    6.21
  -2 -10 -11  109.89    6.75
   3  -9  -9   49.98    5.89
   3  -9  -9   62.26    5.91
   3  -9  -9   58.07    5.60
  -3   9   9   56.03    5.34
  -3   9   9   37.49    3.27
   3  -9  -8   10.63    4.22
   3  -9  -8   13.93    6.53
   3  -9  -8   16.54    4.40
   3  -9  -8   16.76    4.05
  -3   9   8   10.70    2.53
  -3   9   8   12.06    3.89
   3  -9  -7    0.78    4.52
   3  -9  -7    0.22    1.81
   3  -9  -7   -0.26    2.87
   3  -9  -7    2.11    2.62
  -3   9   7    1.18    2.68
  -3   9   7    0.38    1.83
   3  -9  -6    0.04    2.76
   3  -9  -6   -1.77    4.06
   3  -9  -6   -1.57    2.73
   3  -9  -6   -0.27    1.91
  -3   9   6    0.03    3.14
  -3   9   6   -0.92    2.57
   3  -9  -5  100.67    9.20
   3  -9  -5  114.41    7.08
   3  -9  -5  103.41    6.13
   3  -9  -5  103.79    7.61
  -3   9   5   96.40    5.23
  -3   9   5   98.59    6.47
   3  -9  -4   -0.18    2.03
   3  -9  -4   -0.10    1.74
   3  -9  -4    0.15    1.90
  -3   9   4    0.01    1.77
  -3   9   4   -0.14    2.14
   3  -9  -3   -0.21    1.84
   3  -9  -3    0.97    2.94
   3  -9  -3   -0.30    3.13
  -3   9   3   -0.11    2.10
  -3   9   3    0.09    3.00
   3  -9  -2    1.91    2.34
   3  -9  -2    1.13    2.38
   3  -9  -2   -0.01    2.47
  -3   9   2   -0.14    2.17
   3  -9  -1    1.30    3.87
   3  -9  -1    0.61    2.05
   3  -9  -1   -0.40    3.46
  -3   9   1    1.26    2.77
   3  -9   0    6.99    3.47
   3  -9   0    4.79    2.57
   3  -9   0    5.05    5.27
   3  -9   0    4.80    2.84
  -3   9   0    6.42    3.49
  -3   9   0    7.68    3.62
   3  -9   1   -1.00    1.93
   3  -9   1    2.64    2.11
   3  -9   1   -2.04    4.23
   3  -9   1    0.30    2.65
  -3   9  -1    0.00    2.20
  -3   9  -1   -0.16    2.44
   3  -9   2   75.38    4.67
   3  -9   2   75.97    6.41
   3  -9   2   81.08    9.30
   3  -9   2   69.92    7.29
  -3   9  -2   76.09    6.52
  -3   9  -2   88.69    9.48
   3  -9   3   19.35    4.59
   3  -9   3   17.42    4.91
   3  -9   3   12.90    4.70
   3  -9   3   12.53    7.06
  -3   9  -3   15.84    4.55
  -3   9  -3   15.85    4.69
   3  -8 -12   90.35    7.39
   3  -8 -12  104.30    7.16
  -3   8  12  100.52    6.84
  -3   8  12   87.51    6.82
   3  -8 -11   38.20    7.97
  -3   8  11   33.75    4.74
  -3   8  11   29.70    4.66
   3  -8 -10   17.68    4.22
   3  -8 -10   15.52    4.28
  -3   8  10   14.01    3.89
  -3   8  10   19.26    4.19
   3  -8  -9   20.34    3.46
   3  -8  -9   32.10    4.51
   3  -8  -9   18.57    6.98
  -3   8   9   21.51    3.77
  -3   8   9    8.93    3.93
  -3   8   9   14.03    3.29
   3  -8  -8  133.93    6.41
   3  -8  -8  137.79   10.48
   3  -8  -8  152.54    7.41
   3  -8  -8  147.96    7.11
  -3   8   8  144.09    6.83
  -3   8   8  127.19    4.80
   3  -8  -7    3.17    2.98
   3  -8  -7    3.22    2.92
   3  -8  -7    2.19    2.85
   3  -8  -7    3.27    2.74
  -3   8   7    2.34    2.74
  -3   8   7    0.57    2.53
   3  -8  -6    0.42    1.77
   3  -8  -6    2.08    2.60
   3  -8  -6    3.66    2.54
   3  -8  -6    0.96    2.50
  -3   8   6    0.06    1.69
  -3   8   6    2.20    2.30
   3  -8  -5    4.39    4.56
   3  -8  -5    5.07    2.69
   3  -8  -5    3.47    3.44
  -3   8   5    0.01    1.99
  -3   8   5    5.48    2.55
   3  -8  -4   15.63    2.86
   3  -8  -4   15.06    3.42
   3  -8  -4   18.77    3.21
  -3   8   4    0.01    2.60
  -3   8   4   18.84    3.00
   3  -8  -3   21.56    3.27
   3  -8  -3   30.22    5.72
   3  -8  -3   26.14    3.39
  -3   8   3   21.07    3.75
  -3   8   3   25.99    3.29
   3  -8  -2    2.46    2.42
   3  -8  -2    0.24    3.83
   3  -8  -2    3.18    3.65
  -3   8   2    1.58    2.24
  -3   8   2    0.07    2.13
   3  -8  -1    2.83    2.53
   3  -8  -1    2.25    3.75
   3  -8  -1    0.90    3.53
  -3   8   1    0.01    2.30
  -3   8   1    1.52    2.31
   3  -8   0  119.33    5.68
   3  -8   0  129.34    7.73
   3  -8   0  123.64    6.37
   3  -8   0  195.82   10.52
  -3   8   0  118.96    6.23
  -3   8   0  125.34    6.48
   3  -8   1  193.15    8.26
   3  -8   1  232.59   12.06
   3  -8   1  192.75    9.48
   3  -8   1  195.52    9.18
  -3   8  -1  196.06    8.64
  -3   8  -1  260.49   12.69
   3  -8   2  105.97    5.40
   3  -8   2  111.55    6.70
   3  -8   2  139.01   10.50
   3  -8   2  113.59    7.29
  -3   8  -2  115.13    6.95
  -3   8  -2  128.58    6.93
   3  -8   3  133.96   10.59
   3  -8   3  127.56    5.75
   3  -8   3  160.46   11.09
   3  -8   3  140.07    5.67
  -3   8  -3  149.52    7.85
  -3   8  -3  137.57    7.11
   3  -8   4   16.13    2.49
   3  -8   4    7.49    6.32
   3  -8   4    6.53    3.85
   3  -8   4    5.20    4.34
  -3   8  -4   10.23    3.76
  -3   8  -4    8.93    4.16
   3  -8   5  101.78    6.87
   3  -8   5  102.14    6.78
   3  -8   5  103.27    6.78
   3  -8   5   94.86    6.39
  -3   8  -5  100.11    6.56
  -3   8  -5  103.83    7.10
   3  -8   6   35.08    3.40
   3  -8   6   33.77    7.97
   3  -8   6   29.27    5.21
   3  -8   6   37.63    3.15
  -3   8  -6   33.83    8.55
  -3   8  -6   37.11    5.05
   3  -8   7    4.16    2.19
   3  -8   7    2.05    3.49
   3  -8   7    3.77    5.81
   3  -8   7    1.29    3.34
  -3   8  -7    2.89    3.69
  -3   8  -7    4.19    3.58
   3  -7 -13    2.57    3.29
   3  -7 -13    2.28    3.26
   3  -7 -13    0.17    5.09
  -3   7  13    0.53    2.83
   3  -7 -12    3.43    4.75
   3  -7 -12    1.75    2.90
   3  -7 -12    0.17    2.99
  -3   7  12    0.82    2.77
   3  -7 -11   41.40    4.82
   3  -7 -11   45.87    4.76
  -3   7  11   40.69    4.53
  -3   7  11   41.28    4.86
   3  -7 -10   63.71    7.97
   3  -7 -10   67.49    7.91
  -3   7  10   61.41    4.82
  -3   7  10   59.86    7.76
   3  -7  -9   66.10    2.77
   3  -7  -9   71.49    5.28
   3  -7  -9   75.93    5.24
  -3   7   9   78.06    5.31
  -3   7   9   79.45    7.46
  -3   7   9   64.05    2.79
   3  -7  -8  254.59    7.86
   3  -7  -8  284.32    9.40
   3  -7  -8  260.91    9.48
  -3   7   8  250.23    6.55
  -3   7   8  265.21    9.26
  -3   7   8  264.06   11.62
   3  -7  -7   81.05    4.85
   3  -7  -7   87.05    5.39
   3  -7  -7   89.45    8.01
  -3   7   7   95.99    7.54
  -3   7   7   80.32    3.51
   3  -7  -6   61.13    3.18
   3  -7  -6   61.94    6.91
   3  -7  -6   59.26    4.45
   3  -7  -6   59.68    4.27
  -3   7   6   58.86    3.25
  -3   7   6   66.31    6.44
   3  -7  -5    4.90    2.53
   3  -7  -5    4.18    1.90
   3  -7  -5    6.07    2.61
   3  -7  -5    4.00    2.46
  -3   7   5    3.67    2.35
  -3   7   5    3.00    1.74
   3  -7  -4    5.16    2.51
   3  -7  -4    5.97    2.59
   3  -7  -4    4.55    2.39
   3  -7  -4    4.65    2.08
  -3   7   4    3.58    1.92
  -3   7   4    3.68    2.28
   3  -7  -3   14.34    4.86
   3  -7  -3   18.54    3.05
   3  -7  -3   17.97    4.22
   3  -7  -3   20.69    2.84
  -3   7   3   19.37    2.97
  -3   7   3   22.23    4.21
   3  -7  -2   62.03    6.05
   3  -7  -2   41.66    3.63
   3  -7  -2   40.48    3.52
   3  -7  -2   43.78    3.31
  -3   7   2   39.30    3.45
  -3   7   2   42.69    3.57
   3  -7  -1   35.15    3.30
   3  -7  -1   29.85    3.44
   3  -7  -1   32.76    3.08
   3  -7  -1   35.22    5.58
  -3   7   1   32.07    3.41
  -3   7   1   31.68    3.42
   3  -7   0    0.85    2.00
   3  -7   0    0.56    2.04
   3  -7   0   -0.35    1.64
   3  -7   0    1.05    1.77
  -3   7   0    0.53    1.82
  -3   7   0   -0.21    1.69
   3  -7   1  138.86    5.53
   3  -7   1  140.92    5.31
   3  -7   1  138.23    6.36
   3  -7   1  141.55    6.34
  -3   7  -1  140.50    6.45
  -3   7  -1  145.34    6.09
   3  -7   2  520.74   14.66
   3  -7   2  498.49   12.52
   3  -7   2  499.07   15.26
   3  -7   2  524.17   14.50
  -3   7  -2  509.16   13.91
  -3   7  -2  522.84   14.64
   3  -7   3  120.96    6.24
   3  -7   3  116.36    4.75
   3  -7   3  120.93    6.40
   3  -7   3  113.39    5.07
  -3   7  -3  115.12    5.85
  -3   7  -3  121.65    6.46
   3  -7   4   22.04    4.04
   3  -7   4   20.61    3.89
   3  -7   4   21.54    2.59
   3  -7   4   21.81    2.89
  -3   7  -4   26.78    4.23
  -3   7  -4   25.31    3.80
   3  -7   5   15.48    2.29
   3  -7   5   11.93    3.91
   3  -7   5   14.96    3.61
   3  -7   5    5.11    5.95
  -3   7  -5   12.34    3.71
  -3   7  -5   12.74    3.50
   3  -7   6    6.29    3.47
   3  -7   6    5.41    3.33
   3  -7   6    7.38    2.17
   3  -7   6    7.80    3.23
  -3   7  -6    7.63    3.26
  -3   7  -6    9.77    5.81
   3  -7   7   75.64    8.07
   3  -7   7   63.36    3.61
   3  -7   7   63.21    5.63
   3  -7   7   58.31    3.63
  -3   7  -7   66.96    5.67
  -3   7  -7   72.00    8.28
   3  -7   8    4.09    2.70
   3  -7   8    1.38    4.92
   3  -7   8    0.01    4.87
   3  -7   8    0.73    1.80
  -3   7  -8    1.50    3.24
  -3   7  -8    4.69    3.09
   3  -7   9   15.66    2.43
   3  -7   9   14.32    4.34
   3  -7   9   13.46    2.51
   3  -7   9   14.00    4.03
  -3   7  -9   15.55    6.74
  -3   7  -9   15.88    4.12
   3  -6 -14   15.10    4.07
   3  -6 -14   13.27    3.97
   3  -6 -14   14.41    6.51
  -3   6  14    8.80    5.85
   3  -6 -13    5.63    3.27
   3  -6 -13    7.74    5.36
   3  -6 -13    7.31    5.33
  -3   6  13    4.08    4.95
   3  -6 -12   11.05    3.45
   3  -6 -12    8.61    3.35
   3  -6 -12   13.01    5.51
  -3   6  12   10.89    5.44
   3  -6 -11    5.13    2.85
   3  -6 -11    5.54    2.81
   3  -6 -11    2.44    2.85
  -3   6  11    4.53    2.90
   3  -6 -10    5.09    3.01
   3  -6 -10    5.29    2.89
  -3   6  10    5.24    2.92
  -3   6  10    8.35    4.44
   3  -6  -9  337.16   13.40
   3  -6  -9  365.24   10.32
   3  -6  -9  324.60    6.81
  -3   6   9  351.64   10.07
  -3   6   9  317.27    6.77
  -3   6   9  347.75   10.45
   3  -6  -8  256.84    8.69
   3  -6  -8  252.55    7.05
   3  -6  -8  277.80    8.58
  -3   6   8  264.09    8.12
  -3   6   8  259.90   11.32
  -3   6   8  247.41    5.77
   3  -6  -7   50.64    2.48
   3  -6  -7   59.35    3.95
   3  -6  -7   51.52    4.24
  -3   6   7   48.36    2.43
  -3   6   7   55.71    4.18
  -3   6   7   55.85    3.71
   3  -6  -6    1.68    2.18
   3  -6  -6    2.39    2.07
   3  -6  -6    1.56    2.21
  -3   6   6    0.29    1.96
  -3   6   6    0.50    1.76
  -3   6   6    1.29    1.88
   3  -6  -5    0.99    1.36
   3  -6  -5    0.43    1.78
   3  -6  -5    1.35    1.95
   3  -6  -5    0.92    1.74
  -3   6   5    1.97    1.39
  -3   6   5    2.60    2.92
   3  -6  -4    9.86    2.57
   3  -6  -4   12.66    1.99
   3  -6  -4   11.22    2.37
   3  -6  -4    9.35    2.43
  -3   6   4   11.73    1.92
  -3   6   4   11.49    2.31
   3  -6  -3   65.79    3.36
   3  -6  -3   63.62    5.71
   3  -6  -3   63.63    3.75
   3  -6  -3   57.68    5.16
  -3   6   3   65.00    3.54
  -3   6   3   59.81    3.19
   3  -6  -2  190.89    7.93
   3  -6  -2  190.86    6.19
   3  -6  -2  194.18    5.84
   3  -6  -2  195.87    6.28
  -3   6   2  193.15    5.99
  -3   6   2  187.61    5.83
   3  -6  -1  498.33   12.22
   3  -6  -1  518.17   14.72
   3  -6  -1  539.98   15.17
   3  -6  -1  513.44   11.74
  -3   6   1  514.04   14.48
  -3   6   1  519.93   12.40
   3  -6   0  120.90    7.26
   3  -6   0  119.64    5.12
   3  -6   0  117.79    6.32
   3  -6   0  120.87    4.80
  -3   6   0  135.56    7.28
  -3   6   0  120.49    5.14
   3  -6   1    1.97    3.17
   3  -6   1    1.54    2.45
   3  -6   1    0.21    1.65
   3  -6   1    0.10    1.90
  -3   6  -1    1.84    2.01
  -3   6  -1    0.25    1.82
   3  -6   2   63.72    6.58
   3  -6   2   63.23    3.60
   3  -6   2   77.06    6.26
   3  -6   2   69.80    3.42
  -3   6  -2   66.81    4.41
  -3   6  -2   68.99    3.91
   3  -6   3   72.71    4.57
   3  -6   3   78.24    4.35
   3  -6   3   78.39    3.58
   3  -6   3   71.08    5.33
  -3   6  -3   74.43    4.24
  -3   6  -3   79.55    4.70
   3  -6   4    0.95    1.83
   3  -6   4    0.13    1.68
   3  -6   4    0.31    1.92
   3  -6   4   -0.46    1.27
  -3   6  -4    0.17    1.99
  -3   6  -4   -1.00    2.81
   3  -6   5    8.54    3.22
   3  -6   5   10.77    2.75
   3  -6   5    7.53    1.90
   3  -6   5    8.74    3.00
  -3   6  -5   10.87    3.15
  -3   6  -5   10.15    4.48
   3  -6   6   19.13    3.49
   3  -6   6   18.60    3.33
   3  -6   6   16.08    5.52
   3  -6   6   15.17    2.31
  -3   6  -6   19.43    5.66
  -3   6  -6   18.38    3.13
   3  -6   7   43.75    4.28
   3  -6   7   41.39    2.94
   3  -6   7   43.77    4.53
   3  -6   7   45.88    3.03
  -3   6  -7   47.22    4.34
  -3   6  -7   45.07    4.59
   3  -6   8  143.02    6.63
   3  -6   8  153.96    7.10
   3  -6   8  136.95    5.07
   3  -6   8  163.14   10.30
  -3   6  -8  161.40    7.38
  -3   6  -8  159.91    7.24
   3  -6   9    1.23    1.59
   3  -6   9    3.34    4.47
   3  -6   9    1.39    2.68
   3  -6   9    1.30    2.74
  -3   6  -9    1.44    4.32
  -3   6  -9    1.15    4.37
   3  -6  10   35.59    7.01
   3  -6  10   27.28    4.27
   3  -6  10   25.47    4.18
   3  -6  10   27.18    4.23
  -3   6 -10   31.98    4.52
  -3   6 -10   29.07    4.44
   3  -6  11   26.75    4.57
   3  -6  11   15.60    3.86
  -3   6 -11   11.36    4.01
  -3   6 -11   13.43    4.06
   3  -5 -15    3.40    3.37
   3  -5 -15    4.02    2.95
   3  -5 -15    3.71    5.51
  -3   5  15    0.05    2.03
   3  -5 -14    0.42    5.00
   3  -5 -14    2.67    2.78
   3  -5 -14    4.68    4.85
  -3   5  14   -0.26    2.22
   3  -5 -13  113.42    5.81
   3  -5 -13  120.75    9.20
   3  -5 -13  116.65    6.31
  -3   5  13  116.91    5.94
   3  -5 -12  136.26    8.80
   3  -5 -12  133.75    6.16
   3  -5 -12  121.89    5.97
  -3   5  12  132.86    6.01
   3  -5 -11    5.74    2.73
   3  -5 -11   10.69    4.45
   3  -5 -11    7.03    4.47
  -3   5  11    7.46    2.76
   3  -5 -10    0.07    2.15
   3  -5 -10    0.72    0.69
   3  -5 -10    3.32    2.15
   3  -5 -10    3.06    2.11
  -3   5  10   -0.19    3.30
  -3   5  10    0.82    0.42
   3  -5  -9   53.00    5.94
   3  -5  -9   56.41    5.53
   3  -5  -9   45.55    1.58
  -3   5   9   50.66    3.76
  -3   5   9   46.43    2.12
  -3   5   9   53.04    3.57
   3  -5  -8   31.30    1.58
   3  -5  -8   38.82    3.04
   3  -5  -8   28.84    5.18
  -3   5   8   34.97    3.22
  -3   5   8   37.28    2.98
  -3   5   8   29.66    1.53
   3  -5  -7  179.09    4.16
   3  -5  -7  180.25    5.73
   3  -5  -7  171.22    8.15
  -3   5   7  168.58    4.82
  -3   5   7  175.04    8.02
  -3   5   7  178.10    5.52
   3  -5  -6   18.69    1.62
   3  -5  -6   22.11    2.45
   3  -5  -6   15.02    4.27
  -3   5   6   15.70    1.48
  -3   5   6   16.75    2.23
  -3   5   6   15.98    2.57
   3  -5  -5   31.66    1.98
   3  -5  -5   26.15    2.54
   3  -5  -5   31.37    4.55
  -3   5   5   17.40    2.68
  -3   5   5   26.88    2.43
  -3   5   5   27.48    1.80
   3  -5  -4    7.63    2.69
   3  -5  -4    7.95    3.66
   3  -5  -4   10.35    2.01
   3  -5  -4   11.99    1.99
  -3   5   4    8.28    1.59
  -3   5   4    8.75    1.91
   3  -5  -3  219.37    6.10
   3  -5  -3  220.85    5.81
   3  -5  -3  220.86    6.41
   3  -5  -3  231.59    8.01
  -3   5   3  225.40    5.82
  -3   5   3  230.25    7.81
   3  -5  -2  344.53    8.69
   3  -5  -2  365.49    8.73
   3  -5  -2  354.14    8.40
   3  -5  -2  347.45    8.28
  -3   5   2  348.97    8.22
  -3   5   2  353.38    8.25
   3  -5  -1    0.64    2.44
   3  -5  -1    0.50    1.50
   3  -5  -1    0.92    1.36
   3  -5  -1   -0.46    1.57
  -3   5   1    0.11    2.47
  -3   5   1    1.17    2.37
   3  -5   0  622.61   13.93
   3  -5   0  656.08   14.24
   3  -5   0  619.31   13.35
   3  -5   0  622.88   13.75
  -3   5   0  631.01   14.04
  -3   5   0  625.86   13.55
   3  -5   1   12.87    2.19
   3  -5   1   10.55    2.02
   3  -5   1   14.01    2.48
   3  -5   1   10.54    3.81
  -3   5  -1   14.52    2.45
  -3   5  -1   10.87    2.19
   3  -5   2   77.35    4.62
   3  -5   2   84.68    3.73
   3  -5   2   73.29    4.07
   3  -5   2   80.51    4.96
  -3   5  -2   84.62    4.06
  -3   5  -2   79.43    5.20
   3  -5   3  145.39    4.72
   3  -5   3  155.19    4.66
   3  -5   3  167.04    5.28
   3  -5   3  158.09    5.65
  -3   5  -3  159.03    5.73
  -3   5  -3  153.13    6.97
   3  -5   4  124.32    4.31
   3  -5   4  133.90    7.49
   3  -5   4  130.56    4.93
   3  -5   4  135.62    5.71
  -3   5  -4  131.38    5.41
  -3   5  -4  128.93    6.57
   3  -5   5  116.41    5.69
   3  -5   5  125.94    5.12
   3  -5   5  123.12    4.08
   3  -5   5  122.41    5.32
  -3   5  -5  130.24    5.47
  -3   5  -5  133.77    6.96
   3  -5   6  146.48    6.10
   3  -5   6  162.64    5.86
   3  -5   6  144.32    4.70
   3  -5   6  151.00    5.98
  -3   5  -6  153.56    5.72
  -3   5  -6  155.75    8.57
   3  -5   7    3.79    1.66
   3  -5   7    4.53    3.91
   3  -5   7    2.92    4.05
   3  -5   7    4.83    1.72
  -3   5  -7    6.94    2.68
  -3   5  -7    5.57    2.47
   3  -5   8   49.41    6.39
   3  -5   8   47.92    4.24
   3  -5   8   49.67    4.16
  -3   5  -8   52.89    4.33
  -3   5  -8   55.40    6.22
   3  -5   9   35.98    5.75
   3  -5   9   27.06    2.41
   3  -5   9   25.19    3.77
  -3   5  -9   30.84    5.93
  -3   5  -9   27.56    3.80
  -3   5  -9   26.91    2.40
   3  -5  10    6.70    3.15
   3  -5  10    7.35    3.20
   3  -5  10    9.89    3.07
  -3   5 -10   11.10    3.20
  -3   5 -10    7.55    3.06
  -3   5 -10    6.94    1.86
   3  -5  11    1.54    4.38
   3  -5  11    2.27    2.46
   3  -5  11    1.21    1.63
  -3   5 -11    1.08    4.10
  -3   5 -11    1.43    1.55
  -3   5 -11    2.39    4.27
   3  -5  12   -1.90    4.62
   3  -5  12   -0.07    2.51
   3  -5  12    2.53    1.66
  -3   5 -12    2.78    2.66
  -3   5 -12    0.55    1.50
  -3   5 -12   -0.37    2.37
   3  -4 -16   20.90    4.52
   3  -4 -16   29.29    4.50
   3  -4 -16   -0.01    5.66
  -3   4  16   30.68    3.95
   3  -4 -15   77.39    8.91
   3  -4 -15   82.79    7.46
   3  -4 -15   80.37    5.87
  -3   4  15   80.17    4.99
   3  -4 -14    1.53    3.75
   3  -4 -14    1.70    2.60
   3  -4 -14    1.29    4.32
  -3   4  14    0.13    1.84
   3  -4 -13   11.61    4.53
   3  -4 -13   11.87    3.18
   3  -4 -13   14.40    3.31
  -3   4  13   -0.09    1.72
   3  -4 -12  175.09    8.55
   3  -4 -12  183.86    9.28
   3  -4 -12  179.75    6.86
  -3   4  12  173.40    6.29
   3  -4 -11    4.09    2.48
   3  -4 -11    4.75    2.39
   3  -4 -11    3.66    3.71
  -3   4  11    2.91    2.15
   3  -4 -10  233.13    7.02
   3  -4 -10  205.89    8.82
   3  -4 -10  218.00    6.93
  -3   4  10  213.61    6.75
   3  -4  -9    1.60    2.73
   3  -4  -9    0.74    0.43
   3  -4  -9   -0.86    2.68
   3  -4  -9    1.53    1.72
   3  -4  -9    0.43    0.61
  -3   4   9   -0.37    1.57
   3  -4  -8   17.01    1.50
   3  -4  -8   13.51    3.87
   3  -4  -8   16.86    2.35
  -3   4   8   14.43    3.50
  -3   4   8   15.52    3.78
  -3   4   8   14.03    1.35
   3  -4  -7   27.93    1.35
   3  -4  -7   28.07    2.45
   3  -4  -7   24.12    2.71
  -3   4   7   25.14    1.25
  -3   4   7   25.02    2.29
  -3   4   7   28.92    2.58
   3  -4  -6   24.67    2.61
   3  -4  -6   22.16    2.27
   3  -4  -6   24.44    2.23
  -3   4   6   23.24    1.37
  -3   4   6   25.34    3.93
  -3   4   6   25.33    2.15
   3  -4  -5    3.92    1.18
   3  -4  -5    3.42    1.86
   3  -4  -5    3.53    1.59
  -3   4   5    3.41    1.68
  -3   4   5    1.40    2.60
  -3   4   5    4.45    1.79
   3  -4  -4   49.48    3.20
   3  -4  -4   48.18    2.94
   3  -4  -4   53.01    3.82
   3  -4  -4   49.03    2.64
  -3   4   4   45.19    2.96
  -3   4   4   44.79    2.42
   3  -4  -3   80.49    3.02
   3  -4  -3   76.12    3.63
   3  -4  -3   94.23    3.40
   3  -4  -3   84.28    3.47
  -3   4   3   74.70    3.08
  -3   4   3   77.55    3.96
   3  -4  -2 1080.90   20.98
   3  -4  -2 1021.88   20.57
   3  -4  -2 1079.65   22.66
   3  -4  -2 1045.77   20.56
  -3   4   2 1031.61   20.07
   3  -4  -1   32.55    2.41
   3  -4  -1   35.48    3.83
   3  -4  -1   31.45    2.31
   3  -4  -1   33.11    2.28
  -3   4   1   30.07    2.31
  -3   4   1   32.67    2.13
   3  -4   0   78.36    3.23
   3  -4   0   90.40    4.70
   3  -4   0   77.30    2.97
   3  -4   0   73.86    2.91
  -3   4   0   77.17    2.84
  -3   4   0   77.12    3.14
   3  -4   1  210.16    5.71
   3  -4   1  213.23    5.33
   3  -4   1  194.63    4.89
   3  -4   1  212.20    6.89
  -3   4  -1  208.18    5.61
  -3   4  -1  207.51    6.44
   3  -4   2    4.37    2.56
   3  -4   2    4.18    1.89
   3  -4   2    5.35    2.65
   3  -4   2    5.12    1.48
  -3   4  -2    4.97    1.56
  -3   4  -2    3.39    3.07
   3  -4   3   51.84    5.03
   3  -4   3   54.43    2.88
   3  -4   3   54.49    2.54
   3  -4   3   54.18    2.69
  -3   4  -3   53.97    4.97
  -3   4  -3   53.27    4.06
   3  -4   4  427.91   11.24
   3  -4   4  460.87   10.78
   3  -4   4  430.48   10.02
  -3   4  -4  449.92   13.32
  -3   4  -4  439.30   10.16
  -3   4  -4  456.19    9.81
   3  -4   5   93.07    4.00
   3  -4   5   90.54    4.29
   3  -4   5   86.10    4.58
  -3   4  -5   92.70    4.29
  -3   4  -5   88.69    3.76
  -3   4  -5   87.96    3.25
   3  -4   6   -0.52    1.23
   3  -4   6   -1.08    1.77
   3  -4   6   -0.46    2.64
  -3   4  -6    0.22    1.44
  -3   4  -6   -1.17    2.17
  -3   4  -6    0.05    0.98
   3  -4   7    2.01    1.83
   3  -4   7    0.57    2.17
   3  -4   7    2.23    1.92
  -3   4  -7    3.41    2.06
  -3   4  -7    2.13    1.85
  -3   4  -7    1.67    1.37
   3  -4   8  109.52    4.78
   3  -4   8  100.25    3.70
   3  -4   8  107.51    4.77
  -3   4  -8  100.58    6.88
  -3   4  -8  109.53    4.60
  -3   4  -8  102.57    3.69
   3  -4   9   10.92    2.93
   3  -4   9    6.68    2.59
   3  -4   9   11.62    2.71
  -3   4  -9   12.99    2.65
  -3   4  -9    9.19    2.68
  -3   4  -9    9.50    2.92
   3  -4  10   71.64    3.39
   3  -4  10   74.05    4.69
   3  -4  10   67.47    4.33
  -3   4 -10   77.52    6.46
  -3   4 -10   69.58    4.58
  -3   4 -10   65.21    4.58
   3  -4  11    3.79    2.70
   3  -4  11    2.34    2.72
   3  -4  11    3.09    3.74
  -3   4 -11    1.36    2.38
  -3   4 -11    1.01    2.40
  -3   4 -11    1.52    2.18
   3  -4  12    5.85    3.07
   3  -4  12    6.75    2.69
   3  -4  12    5.40    1.98
  -3   4 -12    5.13    3.05
  -3   4 -12    4.74    2.85
  -3   4 -12    4.33    4.15
   3  -4  13    1.39    2.83
   3  -4  13    1.45    1.74
   3  -4  13    1.96    2.30
  -3   4 -13    2.00    2.74
  -3   4 -13    1.90    2.55
  -3   4 -13   -0.04    2.24
   3  -4  14    4.90    3.38
   3  -4  14    5.56    2.50
   3  -4  14    0.03    3.23
  -3   4 -14    0.28    2.99
  -3   4 -14    1.81    2.33
   3  -3 -16    3.57    5.28
   3  -3 -16    2.53    5.15
   3  -3 -16    3.87    2.44
  -3   3  16   -0.11    1.75
   3  -3 -15    1.29    2.64
   3  -3 -15   -0.06    3.18
   3  -3 -15    1.67    4.09
  -3   3  15    0.03    1.54
   3  -3 -14    5.04    2.94
   3  -3 -14    3.91    3.75
   3  -3 -14    7.17    4.60
  -3   3  14   -0.16    1.66
   3  -3 -13   11.80    3.18
   3  -3 -13   11.31    4.03
   3  -3 -13   12.51    4.78
  -3   3  13    0.15    2.54
   3  -3 -12   39.56    3.12
   3  -3 -12   45.83    5.80
   3  -3 -12   41.28    3.79
  -3   3  12   41.12    4.83
   3  -3 -11   10.40    4.33
   3  -3 -11   15.07    2.40
   3  -3 -11   14.41    2.69
  -3   3  11    8.74    3.45
   3  -3 -10   32.54    2.77
   3  -3 -10   38.19    4.80
   3  -3 -10   38.89    3.05
  -3   3  10   35.30    2.75
   3  -3  -9   20.87    2.33
   3  -3  -9   16.80    0.63
   3  -3  -9   16.90    0.65
   3  -3  -9   21.37    3.69
   3  -3  -9   23.43    3.86
  -3   3   9   13.51    2.22
   3  -3  -8   39.44    4.19
   3  -3  -8   35.13    0.95
   3  -3  -8   37.93    2.62
   3  -3  -8   35.47    1.06
   3  -3  -8   38.82    2.79
  -3   3   8   33.89    2.58
   3  -3  -7    2.37    0.72
   3  -3  -7   11.31    1.66
   3  -3  -7    3.54    1.70
  -3   3   7    3.11    0.63
  -3   3   7    2.50    2.58
  -3   3   7    6.38    1.53
   3  -3  -6  154.10    3.14
   3  -3  -6  153.66    4.60
   3  -3  -6  151.55    4.23
  -3   3   6  151.13    4.39
  -3   3   6  150.27    3.62
  -3   3   6  150.44    5.43
   3  -3  -5    7.45    1.01
   3  -3  -5    6.58    1.70
   3  -3  -5    5.00    1.45
  -3   3   5    6.23    1.46
  -3   3   5    6.30    1.42
  -3   3   5    5.82    1.66
   3  -3  -4  635.62   12.85
   3  -3  -4  644.12   12.99
   3  -3  -4  652.07   12.50
   3  -3  -4  626.06   12.30
  -3   3   4  675.07   14.15
  -3   3   4  632.02   11.37
   3  -3  -3  185.98    4.29
   3  -3  -3  196.73    4.82
   3  -3  -3  188.58    6.15
   3  -3  -3  180.52    5.21
  -3   3   3  191.51    5.82
  -3   3   3  173.91    5.26
   3  -3  -2  704.57   13.34
   3  -3  -2  697.06   13.71
   3  -3  -2  736.91   13.55
   3  -3  -2  726.05   13.34
  -3   3   2  697.59   13.93
   3  -3  -1  459.25    9.00
   3  -3  -1  469.49    8.97
   3  -3  -1  454.98    8.97
   3  -3  -1  440.81    9.00
  -3   3   1  453.55    9.64
  -3   3   1  450.33    8.78
   3  -3   0   50.13    2.89
   3  -3   0   73.49    4.63
   3  -3   0   62.39    2.62
   3  -3   0   65.70    2.87
  -3   3   0   48.30    2.37
   3  -3   1  150.67    4.34
   3  -3   1  153.27    3.92
   3  -3   1  153.48    4.26
   3  -3   1  144.38    3.87
  -3   3  -1  144.19    3.72
  -3   3  -1  153.38    4.21
   3  -3   2   53.98    2.61
   3  -3   2   50.59    2.50
   3  -3   2   35.11    2.86
  -3   3  -2   15.86    2.06
  -3   3  -2   15.64    1.72
  -3   3  -2    8.79    2.07
   3  -3   3  867.58   17.20
   3  -3   3  884.94   16.78
   3  -3   3  841.89   16.11
  -3   3  -3  866.27   18.92
  -3   3  -3  869.64   17.87
  -3   3  -3  858.10   16.24
   3  -3   4  215.46    5.74
   3  -3   4  216.51    5.25
   3  -3   4  209.00    6.15
  -3   3  -4  219.16    7.44
  -3   3  -4  218.77    5.22
  -3   3  -4  208.10    4.94
   3  -3   5  308.82    7.45
   3  -3   5  319.16    7.21
   3  -3   5  308.57    6.81
  -3   3  -5  304.36    6.99
  -3   3  -5  322.66    9.36
  -3   3  -5  317.36    6.84
   3  -3   6   23.26    2.61
   3  -3   6   32.09    2.30
   3  -3   6   24.69    1.98
  -3   3  -6   25.56    2.57
  -3   3  -6   31.06    2.33
  -3   3  -6   30.35    1.94
   3  -3   7   51.41    4.86
   3  -3   7   59.12    4.49
   3  -3   7   52.60    2.54
  -3   3  -7   56.75    3.23
  -3   3  -7   54.38    2.46
  -3   3  -7   56.05    2.99
   3  -3   8    8.81    1.68
   3  -3   8    8.64    2.15
   3  -3   8    8.43    2.07
  -3   3  -8    8.26    2.17
  -3   3  -8   11.98    2.56
  -3   3  -8    9.13    3.33
   3  -3   9  103.99    3.77
   3  -3   9  106.37    4.62
   3  -3   9   94.93    4.30
  -3   3  -9   99.13    4.44
  -3   3  -9   95.23    4.31
  -3   3  -9   99.66    3.65
   3  -3  10   44.86    3.59
   3  -3  10   43.70    4.05
   3  -3  10   35.87    5.02
  -3   3 -10   42.90    3.62
  -3   3 -10   44.69    2.66
  -3   3 -10   41.79    3.32
   3  -3  11   26.13    2.52
   3  -3  11   25.75    3.40
   3  -3  11   22.89    2.98
  -3   3 -11   23.92    5.28
  -3   3 -11   29.97    4.66
  -3   3 -11   24.40    2.36
   3  -3  12   95.33    5.26
   3  -3  12   92.73    4.61
   3  -3  12   87.97    3.97
  -3   3 -12   90.42    4.59
  -3   3 -12   88.01    5.14
  -3   3 -12   84.29    3.76
   3  -3  13  157.86    9.87
   3  -3  13  141.75    5.71
   3  -3  13  135.28    6.90
  -3   3 -13  143.23    6.85
  -3   3 -13  145.18    5.70
  -3   3 -13  136.46    5.04
   3  -3  14   39.91    7.39
   3  -3  14   38.17    3.51
   3  -3  14   39.48    3.26
  -3   3 -14   44.58    4.70
  -3   3 -14   36.41    3.10
  -3   3 -14   44.05    5.48
   3  -3  15    0.04    2.39
   3  -3  15    0.06    1.61
   3  -3  15    0.18    1.53
  -3   3 -15   -0.23    3.03
  -3   3 -15    1.79    2.13
  -3   3 -15    4.56    2.94
   3  -2 -16    4.64    3.78
   3  -2 -16    6.45    3.46
   3  -2 -16    7.46    2.28
  -3   2  16   -0.10    2.52
   3  -2 -15    6.97    3.53
   3  -2 -15   13.20    2.43
   3  -2 -15   11.07    3.46
  -3   2  15   -0.09    1.52
   3  -2 -14    5.14    4.61
   3  -2 -14    3.80    2.00
   3  -2 -14    5.09    2.81
  -3   2  14   -0.12    1.43
   3  -2 -13   31.54    3.62
   3  -2 -13   28.61    3.55
   3  -2 -13   31.52    4.17
  -3   2  13   33.64    4.13
   3  -2 -12   56.98    3.98
   3  -2 -12   57.93    4.57
   3  -2 -12   59.65    3.82
  -3   2  12   57.34    4.55
   3  -2 -11   48.99    3.51
   3  -2 -11   48.98    3.36
   3  -2 -11   46.84    2.82
  -3   2  11   47.80    4.12
   3  -2 -10   50.46    2.79
   3  -2 -10   50.43    3.21
   3  -2 -10   51.20    3.30
  -3   2  10   46.69    3.96
   3  -2  -9   27.28    0.60
   3  -2  -9   29.35    3.42
   3  -2  -9   25.71    2.57
   3  -2  -9   30.05    2.46
   3  -2  -9   27.39    0.59
  -3   2   9   25.76    2.14
   3  -2  -8    5.56    1.59
   3  -2  -8    5.06    0.48
   3  -2  -8    5.00    0.66
   3  -2  -8    5.77    1.72
   3  -2  -8    5.53    1.66
  -3   2   8    4.96    1.56
   3  -2  -7  352.11    6.15
   3  -2  -7  338.55    5.39
   3  -2  -7  334.30    7.49
   3  -2  -7  344.19    7.56
   3  -2  -7  341.68    7.73
  -3   2   7  332.12    8.70
   3  -2  -6    0.48    0.96
   3  -2  -6   -1.28    1.26
   3  -2  -6    0.21    1.15
   3  -2  -6    2.13    1.17
   3  -2  -6    0.58    0.80
  -3   2   6    0.79    1.16
   3  -2  -5 1693.06   29.58
   3  -2  -5 1650.03   33.17
   3  -2  -5 1647.99   31.08
  -3   2   5 1647.83   31.43
  -3   2   5 1604.07   28.78
  -3   2   5 1597.80   31.42
   3  -2  -4   15.12    1.76
   3  -2  -4   24.22    1.86
   3  -2  -4   31.59    2.39
   3  -2  -4   18.73    1.63
  -3   2   4   18.55    1.62
  -3   2   4   11.65    1.29
   3  -2  -3   78.55    3.00
   3  -2  -3   75.64    2.48
   3  -2  -3   72.09    2.62
   3  -2  -3   78.79    2.35
  -3   2   3   77.47    2.27
  -3   2   3   75.30    2.93
   3  -2  -2 1597.50   31.27
   3  -2  -2 1666.35   31.14
   3  -2  -2 1612.34   29.15
   3  -2  -2 1613.47   29.77
  -3   2   2 1577.11   28.56
  -3   2   2 1565.20   29.39
   3  -2  -1 3564.43   69.40
   3  -2  -1 3457.50   68.17
   3  -2  -1 3521.71   70.65
   3  -2  -1 3574.19   68.65
  -3   2   1 3444.23   66.99
  -3   2   1 3453.13   66.42
   3  -2   0   49.02    2.13
   3  -2   0   50.24    1.71
   3  -2   0   47.83    1.97
  -3   2   0   47.95    2.04
  -3   2   0   45.37    1.59
  -3   2   0   48.19    1.98
   3  -2   1  611.12   11.56
   3  -2   1  632.42   12.08
   3  -2   1  610.08   12.31
  -3   2  -1  589.29   10.39
  -3   2  -1  599.95   11.18
  -3   2  -1  586.06   10.81
   3  -2   2 1919.33   36.36
   3  -2   2 2002.67   37.75
   3  -2   2 1899.45   35.38
  -3   2  -2 1860.90   34.24
  -3   2  -2 1904.31   35.81
  -3   2  -2 1950.83   37.49
   3  -2   3  348.88    6.84
   3  -2   3  339.64    7.29
   3  -2   3  359.62    7.23
  -3   2  -3  326.89    7.58
  -3   2  -3  338.64    6.87
  -3   2  -3  339.16    7.36
   3  -2   4   35.73    3.25
   3  -2   4   32.43    2.74
   3  -2   4   32.04    1.69
  -3   2  -4   34.07    1.67
  -3   2  -4   32.83    2.12
  -3   2  -4   35.83    1.78
   3  -2   5  614.01   12.61
   3  -2   5  623.13   12.05
   3  -2   5  640.00   12.43
  -3   2  -5  640.59   13.60
  -3   2  -5  594.25   11.58
  -3   2  -5  623.30   12.63
   3  -2   6   75.74    4.02
   3  -2   6   66.56    2.57
   3  -2   6   69.75    3.02
  -3   2  -6   68.16    2.71
  -3   2  -6   70.17    2.70
  -3   2  -6   72.67    3.02
   3  -2   7   88.55    4.78
   3  -2   7   87.13    3.14
   3  -2   7   84.72    2.95
  -3   2  -7   90.01    3.34
  -3   2  -7   89.25    2.97
  -3   2  -7   89.43    3.13
   3  -2   8   26.19    2.06
   3  -2   8   26.48    2.36
   3  -2   8   25.87    3.61
  -3   2  -8   23.99    1.95
  -3   2  -8   26.44    3.62
  -3   2  -8   26.77    2.25
   3  -2   9  735.04   15.52
   3  -2   9  733.11   15.86
   3  -2   9  749.82   16.29
  -3   2  -9  725.99   15.75
  -3   2  -9  741.08   15.93
  -3   2  -9  729.63   16.83
   3  -2  10  153.30    5.26
   3  -2  10  162.82    5.66
   3  -2  10  158.47    6.66
  -3   2 -10  158.25    5.52
  -3   2 -10  152.57    4.80
  -3   2 -10  153.81    5.18
   3  -2  11  155.62    5.61
   3  -2  11  144.19    4.98
   3  -2  11  146.88    6.46
  -3   2 -11  150.90    4.94
  -3   2 -11  135.73    5.46
  -3   2 -11  141.63    4.66
   3  -2  12   96.61    4.96
   3  -2  12   92.78    4.09
   3  -2  12   92.37    4.05
  -3   2 -12   89.96    7.04
  -3   2 -12   95.75    3.92
  -3   2 -12   97.08    4.11
   3  -2  13   30.22    2.80
   3  -2  13   30.76    2.82
   3  -2  13   31.96    5.86
  -3   2 -13   33.14    5.72
  -3   2 -13   29.10    4.16
  -3   2 -13   31.51    2.80
   3  -2  14    2.54    1.75
   3  -2  14    2.60    2.58
   3  -2  14    0.18    1.80
  -3   2 -14    1.51    2.32
  -3   2 -14   -2.09    3.29
  -3   2 -14   -0.09    2.26
   3  -2  15   17.23    2.53
   3  -2  15    0.50    4.16
   3  -2  15   18.28    3.72
  -3   2 -15   16.78    3.99
  -3   2 -15   15.43    2.52
  -3   2 -15   15.80    3.73
   3  -2  16   25.91    2.82
   3  -2  16   31.41    4.57
   3  -2  16   28.95    4.90
  -3   2 -16   23.67    2.68
  -3   2 -16   26.41    4.35
  -3   2 -16   23.93    2.95
   3  -1 -16   -1.12    2.76
   3  -1 -16   -0.09    2.66
   3  -1 -15  134.87    6.90
   3  -1 -15  121.70    4.58
   3  -1 -15  144.20    9.63
  -3   1  15  129.42    6.41
   3  -1 -14    1.93    2.03
   3  -1 -14   -1.36    1.96
   3  -1 -14   -0.07    1.89
  -3   1  14   -0.41    1.32
   3  -1 -13   12.01    4.75
   3  -1 -13    8.77    2.92
   3  -1 -13   14.95    2.86
  -3   1  13   13.58    1.89
   3  -1 -12   53.41    3.93
   3  -1 -12   50.44    2.67
   3  -1 -12   55.17    3.69
  -3   1  12   50.74    2.67
   3  -1 -11   -0.86    1.73
   3  -1 -11   -0.09    1.16
   3  -1 -11    3.06    1.60
  -3   1  11    0.18    1.03
   3  -1 -10   28.27    4.32
   3  -1 -10   27.06    2.02
   3  -1 -10   25.85    2.62
  -3   1  10   25.56    1.95
   3  -1  -9  594.21   15.00
   3  -1  -9  587.46   11.90
   3  -1  -9  593.79    9.37
   3  -1  -9  604.45    9.52
   3  -1  -9  613.85   13.19
  -3   1   9  582.13   11.70
   3  -1  -8  105.03    3.75
   3  -1  -8  101.16    3.16
   3  -1  -8  105.40    2.27
   3  -1  -8  107.92    2.39
   3  -1  -8  103.88    3.62
  -3   1   8  100.79    3.09
   3  -1  -7    3.95    0.87
   3  -1  -7    5.66    2.16
   3  -1  -7    5.76    1.93
   3  -1  -7    3.50    1.47
   3  -1  -7    3.76    0.91
  -3   1   7    4.12    1.15
   3  -1  -6  245.98    4.26
   3  -1  -6  262.14    5.80
   3  -1  -6  240.35    5.28
   3  -1  -6  244.05    5.62
   3  -1  -6  256.39    5.13
  -3   1   6  244.12    6.31
   3  -1  -5 1563.80   28.89
   3  -1  -5 1575.96   26.90
   3  -1  -5 1569.40   28.87
   3  -1  -5 1556.63   30.04
   3  -1  -5 1593.26   27.28
  -3   1   5 1561.46   28.68
   3  -1  -4  554.34   10.18
   3  -1  -4  562.65   10.00
   3  -1  -4  555.05    9.91
   3  -1  -4  578.95   10.31
   3  -1  -4  561.98    9.33
   3  -1  -4  558.58    9.77
   3  -1  -3  509.39    9.47
   3  -1  -3  505.20   10.13
   3  -1  -3  508.95    9.84
   3  -1  -3  518.53    9.37
  -3   1   3  485.61    8.35
  -3   1   3  489.24    8.26
   3  -1  -2    9.83    1.87
   3  -1  -2    7.83    0.84
   3  -1  -2    6.74    1.07
   3  -1  -2   10.72    1.01
  -3   1   2    9.01    0.86
  -3   1   2   12.14    1.04
   3  -1  -1  813.53   14.98
   3  -1  -1  801.01   13.07
   3  -1  -1  796.43   14.79
  -3   1   1  768.10   13.27
  -3   1   1  781.27   12.67
  -3   1   1  787.99   13.64
   3  -1   0 1125.60   19.90
   3  -1   0 1173.66   19.19
   3  -1   0 1138.70   19.93
  -3   1   0 1106.54   19.00
  -3   1   0 1108.59   19.34
  -3   1   0 1146.40   21.22
   3  -1   1  152.66    3.66
   3  -1   1  155.72    2.93
   3  -1   1  165.23    3.66
  -3   1  -1  164.75    3.61
  -3   1  -1  167.16    4.64
   3  -1   2    0.52    1.01
   3  -1   2    2.21    0.66
   3  -1   2    0.82    1.12
  -3   1  -2    1.42    0.99
  -3   1  -2    0.62    0.93
  -3   1  -2    0.72    1.07
   3  -1   3  482.24   10.06
   3  -1   3  478.84    8.62
   3  -1   3  485.83    9.83
  -3   1  -3  469.67    9.42
  -3   1  -3  458.84    7.67
  -3   1  -3  518.62   10.49
   3  -1   4    2.41    1.67
   3  -1   4    0.14    0.74
   3  -1   4    1.65    0.94
  -3   1  -4    1.12    0.66
  -3   1  -4   -0.18    1.38
  -3   1  -4   -0.04    0.95
   3  -1   5    4.66    1.13
   3  -1   5    1.54    0.86
   3  -1   5    1.37    1.06
  -3   1  -5    1.81    1.06
  -3   1  -5    1.01    0.80
  -3   1  -5    2.61    1.53
   3  -1   6  494.71    9.72
   3  -1   6  505.00   10.43
   3  -1   6  497.44    9.61
  -3   1  -6  493.47    9.50
  -3   1  -6  485.45    9.12
  -3   1  -6  502.75    9.72
   3  -1   7  185.39    4.67
   3  -1   7  176.41    4.64
   3  -1   7  185.79    4.56
  -3   1  -7  171.06    4.36
  -3   1  -7  185.74    4.58
  -3   1  -7  180.18    4.60
   3  -1   8  104.97    3.49
   3  -1   8  110.12    3.51
   3  -1   8  106.41    3.51
  -3   1  -8  112.45    3.47
  -3   1  -8  109.73    4.77
  -3   1  -8  111.30    3.45
   3  -1   9    2.52    1.61
   3  -1   9    3.78    1.55
   3  -1   9    4.18    1.53
  -3   1  -9    2.69    1.54
  -3   1  -9    3.09    1.42
  -3   1  -9    4.03    2.33
   3  -1  10   14.20    3.62
   3  -1  10   13.95    1.88
   3  -1  10   14.86    3.30
  -3   1 -10   12.19    2.25
  -3   1 -10   13.63    1.98
  -3   1 -10   13.52    1.87
   3  -1  11  231.19    6.75
   3  -1  11  221.80    5.87
   3  -1  11  226.51    8.05
  -3   1 -11  219.55    6.61
  -3   1 -11  224.07    7.74
  -3   1 -11  235.33    7.47
   3  -1  12   34.04    3.76
   3  -1  12   32.86    2.74
   3  -1  12   31.01    3.22
  -3   1 -12   31.47    3.23
  -3   1 -12   31.25    2.65
  -3   1 -12   33.63    2.45
   3  -1  13   47.21    4.12
   3  -1  13   49.68    3.21
   3  -1  13   49.08    3.77
  -3   1 -13   46.18    3.76
  -3   1 -13   48.13    2.97
  -3   1 -13   46.41    4.12
   3  -1  14   53.17    3.52
   3  -1  14   50.22    2.98
   3  -1  14   54.61    6.59
  -3   1 -14   53.13    4.26
  -3   1 -14   56.05    3.37
  -3   1 -14   52.04    2.85
   3  -1  15   99.68    4.11
   3  -1  15  110.50    4.86
   3  -1  15  114.94    6.03
  -3   1 -15  111.14    6.01
  -3   1 -15   99.82    6.43
  -3   1 -15  103.31    4.00
   3  -1  16   30.03    4.18
   3  -1  16   25.37    3.19
  -3   1 -16   25.16    4.09
  -3   1 -16   22.65    3.00
   3   0 -16    2.64    3.46
   3   0 -16    5.92    5.09
   3   0 -15   46.37    4.87
   3   0 -15   40.13    4.62
   3   0 -14    6.66    2.85
   3   0 -14    2.48    1.41
   3   0 -14    7.13    2.66
  -3   0  14    4.45    1.42
   3   0 -13    1.03    1.96
   3   0 -13    0.31    1.00
   3   0 -13   -1.78    2.95
  -3   0  13    0.85    1.74
   3   0 -12   27.03    3.29
   3   0 -12   26.08    3.18
   3   0 -12   22.67    2.73
  -3   0  12   25.48    2.72
   3   0 -11  186.53    6.21
   3   0 -11  175.46    4.29
   3   0 -11  182.17    5.97
   3   0 -11  171.56    2.87
   3   0 -11  178.22    3.41
  -3   0  11  177.90    5.38
   3   0 -10   14.90    4.26
   3   0 -10   16.69    0.89
   3   0 -10   16.88    2.35
   3   0 -10   17.87    1.23
   3   0 -10   13.53    2.55
  -3   0  10   18.02    2.28
   3   0  -9   17.45    2.51
   3   0  -9   18.61    0.96
   3   0  -9   18.86    1.48
   3   0  -9   20.85    2.34
   3   0  -9   16.52    1.40
  -3   0   9   20.32    2.25
   3   0  -8  840.85   18.97
   3   0  -8  869.29   14.52
   3   0  -8  845.85   14.75
   3   0  -8  852.62   17.00
   3   0  -8  858.32   15.58
  -3   0   8  826.15   15.04
   3   0  -7    1.80    1.31
   3   0  -7    1.56    0.85
   3   0  -7    1.58    0.61
   3   0  -7    1.65    1.23
   3   0  -7    2.48    0.62
  -3   0   7    1.40    1.29
   3   0  -6  119.18    3.35
   3   0  -6  121.09    3.21
   3   0  -6  119.10    2.44
   3   0  -6  119.00    2.73
   3   0  -6  123.86    2.98
  -3   0   6  114.78    2.66
   3   0  -5    1.66    0.96
   3   0  -5    1.77    1.15
   3   0  -5    0.90    0.90
   3   0  -5    0.94    1.05
   3   0  -5    1.91    0.61
   3   0  -5    1.57    0.60
   3   0  -4   41.35    1.48
   3   0  -4   46.13    1.98
   3   0  -4   39.00    1.94
   3   0  -4   37.56    1.52
   3   0  -4   38.32    1.87
   3   0  -4   41.42    2.37
   3   0  -3  148.78    3.12
   3   0  -3  144.53    3.07
   3   0  -3  168.50    3.28
   3   0  -3  158.89    3.12
   3   0  -3  157.33    3.17
   3   0  -3  150.44    3.13
   3   0  -2   14.09    1.06
   3   0  -2    8.63    1.00
   3   0  -2   11.01    0.90
   3   0  -2   11.67    0.78
   3   0  -2   11.37    1.04
   3   0  -1  630.60   11.86
   3   0  -1  621.46   10.49
   3   0  -1  650.35    9.92
   3   0  -1  607.62    9.41
  -3   0   1  660.51   11.85
   3   0   0 4227.66   82.84
   3   0   0 4357.60   80.24
   3   0   0 4311.00   85.26
  -3   0   0 4096.94   78.98
  -3   0   0 4216.87   77.34
  -3   0   0 4242.02   82.18
   3   0   1 2115.71   39.09
   3   0   1 2078.48   34.29
   3   0   1 2074.73   38.74
  -3   0  -1 2042.86   36.87
  -3   0  -1 2056.14   33.65
  -3   0  -1 2064.14   36.95
   3   0   2 1053.41   16.29
   3   0   2 1009.24   17.50
   3   0   2 1000.80   18.50
  -3   0  -2 1016.64   15.65
  -3   0  -2  985.75   16.97
  -3   0  -2  998.56   17.39
   3   0   3   15.37    1.08
   3   0   3   19.02    1.40
   3   0   3   17.98    2.23
  -3   0  -3    9.75    0.63
  -3   0  -3    7.20    1.21
  -3   0  -3   15.08    1.36
   3   0   4 2135.58   37.13
   3   0   4 2119.86   40.77
   3   0   4 2093.34   38.86
  -3   0  -4 2090.71   36.67
  -3   0  -4 2114.43   40.13
  -3   0  -4 2142.91   40.85
   3   0   5   57.51    2.09
   3   0   5   59.74    2.28
   3   0   5   60.65    2.22
  -3   0  -5   60.74    3.00
  -3   0  -5   55.40    1.57
  -3   0  -5   62.42    2.07
   3   0   6  344.48    7.08
   3   0   6  345.36    7.54
   3   0   6  342.27    7.41
  -3   0  -6  319.71    6.22
  -3   0  -6  339.27    6.84
  -3   0  -6  339.56    7.18
   3   0   7 2948.59   59.67
   3   0   7 2955.83   60.92
   3   0   7 3046.05   60.66
  -3   0  -7 2992.81   58.42
  -3   0  -7 2897.58   56.28
  -3   0  -7 2933.00   60.09
   3   0   8  369.41    8.26
   3   0   8  388.13    9.10
   3   0   8  383.49   10.04
  -3   0  -8  365.55    8.26
  -3   0  -8  389.87    8.67
  -3   0  -8  390.84    8.16
   3   0   9  663.99   13.19
   3   0   9  668.77   13.88
   3   0   9  696.91   14.07
  -3   0  -9  678.06   13.95
  -3   0  -9  652.62   13.30
  -3   0  -9  680.97   13.41
   3   0  10  329.92    7.11
   3   0  10  323.15    7.80
   3   0  10  349.33    9.56
  -3   0 -10  335.58    7.11
  -3   0 -10  316.59    7.53
  -3   0 -10  325.75    7.65
   3   0  11   -0.61    1.62
   3   0  11    0.84    1.36
   3   0  11    0.52    1.36
  -3   0 -11   -0.53    0.86
  -3   0 -11    1.07    1.20
  -3   0 -11    0.24    1.15
   3   0  12  100.15    3.34
   3   0  12  101.92    4.20
   3   0  12   97.33    4.31
  -3   0 -12   93.29    3.15
  -3   0 -12   96.87    4.16
  -3   0 -12   98.44    5.50
   3   0  13  213.10    8.52
   3   0  13  207.31    5.30
   3   0  13  211.84    6.79
  -3   0 -13  197.77    5.04
  -3   0 -13  200.08    6.59
  -3   0 -13  216.39    8.18
   3   0  14    6.17    2.26
   3   0  14   -0.12    3.25
   3   0  14    0.25    2.31
  -3   0 -14    7.66    2.49
  -3   0 -14    6.97    2.15
  -3   0 -14    4.49    2.30
   3   0  15   -0.08    3.84
   3   0  15    9.28    1.63
   3   0  15    1.11    4.45
  -3   0 -15    7.88    4.58
  -3   0 -15   11.40    2.45
  -3   0 -15    9.66    2.50
   3   0  16    0.03    1.81
   3   0  16   -0.85    2.26
  -3   0 -16    5.42    3.71
  -3   0 -16    7.25    3.12
   3   0  17   27.46    3.36
   3   0  17   23.38    4.27
  -3   0 -17   23.26    4.05
  -3   0 -17   19.25    3.02
   3   1 -15    7.11    3.39
   3   1 -15    7.19    3.37
   3   1 -14    1.56    4.42
   3   1 -14    2.58    4.18
   3   1 -13    2.63    2.51
   3   1 -13    1.18    2.38
   3   1 -12   11.16    1.76
   3   1 -12   11.44    1.63
   3   1 -12   12.27    2.92
   3   1 -12   12.11    2.78
   3   1 -12   10.25    0.93
  -3  -1  12   10.94    1.12
   3   1 -11   34.03    1.58
   3   1 -11   33.38    3.37
   3   1 -11   31.02    1.45
  -3  -1  11   31.83    1.46
  -3  -1  11   37.48    3.36
  -3  -1  11   32.68    1.38
   3   1 -10    1.43    1.85
   3   1 -10    1.71    0.84
   3   1 -10    0.81    1.17
  -3  -1  10    0.03    0.61
  -3  -1  10    0.07    0.98
  -3  -1  10    1.84    1.58
   3   1  -9  214.31    8.04
   3   1  -9  211.09    5.24
   3   1  -9  201.91    4.59
  -3  -1   9  198.21    3.84
  -3  -1   9  196.56    4.72
  -3  -1   9  208.10    6.05
   3   1  -8   19.12    2.26
   3   1  -8   21.66    1.99
   3   1  -8   19.97    1.56
  -3  -1   8   22.50    3.55
  -3  -1   8   21.59    1.82
   3   1  -7  444.57    9.44
   3   1  -7  456.59    8.14
   3   1  -7  458.43    7.99
   3   1  -7  460.41    9.09
  -3  -1   7  430.32    7.70
  -3  -1   7  445.92    9.34
   3   1  -6  178.05    5.55
   3   1  -6  183.18    3.68
   3   1  -6  185.35    3.55
   3   1  -6  190.17    4.48
  -3  -1   6  176.11    3.52
  -3  -1   6  172.57    4.22
   3   1  -5  423.82    8.33
   3   1  -5  400.26    8.33
   3   1  -5  406.21    6.58
   3   1  -5  406.61    7.34
  -3  -1   5  389.12    7.32
  -3  -1   5  388.68    7.72
   3   1  -4  795.78   14.05
   3   1  -4  814.61   13.00
   3   1  -4  800.89   13.82
   3   1  -4  812.49   13.30
  -3  -1   4  785.51   14.29
  -3  -1   4  779.74   13.69
   3   1  -3 2923.65   54.28
   3   1  -3 2990.67   53.86
   3   1  -3 2934.79   55.31
   3   1  -3 3011.53   54.73
  -3  -1   3 2868.70   53.92
  -3  -1   3 2841.63   52.54
   3   1  -2  680.70   10.88
   3   1  -2  691.08   11.79
   3   1  -2  711.55   11.59
  -3  -1   2  668.29   11.39
  -3  -1   2  667.81   10.49
  -3  -1   2  673.56   10.72
   3   1  -1 1195.49   21.88
   3   1  -1 1219.22   19.58
   3   1  -1 1228.18   20.11
  -3  -1   1 1180.37   18.49
  -3  -1   1  866.56   13.62
   3   1   0   10.86    0.49
   3   1   0    9.28    1.25
   3   1   0    9.75    0.99
   3   1   0   11.14    0.32
   3   1   0   11.69    1.76
  -3  -1   0   10.67    0.77
   3   1   1  456.64    7.59
   3   1   1  463.27    8.72
   3   1   1  452.96    8.68
  -3  -1  -1  454.83    7.51
   3   1   2 3577.35   68.06
   3   1   2 3437.27   66.71
   3   1   2 3505.97   68.16
  -3  -1  -2 3512.68   67.39
   3   1   3  941.18   16.42
   3   1   3  919.82   16.09
   3   1   3  950.23   13.86
  -3  -1  -3  950.16   17.20
  -3  -1  -3  896.34   15.71
   3   1   4  678.10   12.24
   3   1   4  707.49   11.20
   3   1   4  680.59   13.09
  -3  -1  -4  667.43   13.01
  -3  -1  -4  671.81   10.67
  -3  -1  -4  709.05   12.45
   3   1   510218.73  234.67
   3   1   510368.69  229.00
   3   1   510008.06  226.89
  -3  -1  -5 9838.28  216.88
  -3  -1  -5 9857.63  222.55
  -3  -1  -510343.66  233.25
   3   1   6 1441.76   27.38
   3   1   6 1421.19   28.53
   3   1   6 1473.35   25.75
  -3  -1  -6 1397.17   26.16
  -3  -1  -6 1398.39   24.36
  -3  -1  -6 1406.32   27.38
   3   1   7  249.49    5.13
   3   1   7  257.23    7.15
   3   1   7  255.74    5.08
  -3  -1  -7  253.85    5.66
  -3  -1  -7  258.93    6.11
  -3  -1  -7  240.73    4.86
   3   1   8   22.48    2.21
   3   1   8   21.54    3.11
   3   1   8   21.32    2.33
  -3  -1  -8   20.73    1.49
  -3  -1  -8   19.84    1.82
  -3  -1  -8   22.09    1.45
   3   1   9   12.33    1.35
   3   1   9   18.79    1.62
   3   1   9   13.96    1.93
  -3  -1  -9   10.71    1.52
  -3  -1  -9   14.65    1.99
  -3  -1  -9   14.55    1.77
   3   1  10  103.58    3.85
   3   1  10  104.88    3.48
   3   1  10  102.74    3.86
  -3  -1 -10  102.85    3.44
  -3  -1 -10  102.17    3.66
  -3  -1 -10  106.53    3.75
   3   1  11  551.98   10.74
   3   1  11  545.43   12.56
   3   1  11  580.31   13.97
  -3  -1 -11  544.00   13.66
  -3  -1 -11  553.67   12.49
  -3  -1 -11  577.27   11.01
   3   1  12   12.15    1.43
   3   1  12   11.42    2.33
   3   1  12   13.30    2.24
  -3  -1 -12   12.05    2.16
  -3  -1 -12   15.27    2.19
  -3  -1 -12   11.54    1.35
   3   1  13    0.80    1.47
   3   1  13    0.96    2.56
   3   1  13   -0.53    1.55
  -3  -1 -13    0.30    1.72
  -3  -1 -13   -0.39    2.71
  -3  -1 -13    1.41    0.94
   3   1  14    4.88    1.20
   3   1  14    0.00    3.43
   3   1  14    0.46    2.16
  -3  -1 -14    6.35    3.27
  -3  -1 -14    4.53    1.94
  -3  -1 -14    0.66    1.01
   3   1  15  105.95    3.17
   3   1  15  104.30    3.91
   3   1  15  109.58    5.02
  -3  -1 -15  111.47    5.10
  -3  -1 -15  111.07    5.01
  -3  -1 -15  113.91    5.10
   3   1  16    0.11    1.74
  -3  -1 -16   -1.27    1.95
  -3  -1 -16    0.56    1.70
  -3  -1 -16   -0.38    3.10
   3   1  17   -0.71    2.06
  -3  -1 -17    0.08    2.35
  -3  -1 -17    1.19    3.84
  -3  -1 -17    1.28    1.96
   3   2 -15    7.98    5.95
   3   2 -15    7.92    3.58
   3   2 -14   15.59    3.84
  -3  -2  14   16.28    3.87
   3   2 -13  131.03    6.31
  -3  -2  13  125.90    6.33
   3   2 -12    0.86    1.70
   3   2 -12    1.20    3.59
  -3  -2  12    0.01    1.22
  -3  -2  12    0.10    1.68
   3   2 -11   41.96    3.64
   3   2 -11   41.09    2.17
  -3  -2  11   36.52    1.87
  -3  -2  11   39.08    3.58
   3   2 -10  200.77    6.50
   3   2 -10  187.88    2.90
   3   2 -10  211.03    4.94
   3   2 -10  190.39    3.16
  -3  -2  10  197.56    4.54
  -3  -2  10  202.47    6.39
   3   2  -9  563.25   12.20
   3   2  -9  519.31    8.04
   3   2  -9  553.76   12.61
   3   2  -9  523.80    7.74
  -3  -2   9  522.37   10.18
  -3  -2   9  551.67   12.48
   3   2  -8   22.85    0.74
   3   2  -8   22.05    2.37
   3   2  -8   25.45    1.72
   3   2  -8   23.40    0.73
  -3  -2   8   23.50    2.45
  -3  -2   8   24.30    2.32
   3   2  -7   48.32    1.00
   3   2  -7   50.22    3.12
   3   2  -7   47.12    2.61
   3   2  -7   45.44    0.94
  -3  -2   7   44.28    1.94
  -3  -2   7   44.06    2.56
   3   2  -6  990.09   19.26
   3   2  -6 1025.63   19.12
   3   2  -6 1022.07   15.25
   3   2  -6 1048.77   15.71
  -3  -2   6  957.76   17.63
  -3  -2   6  970.83   18.74
   3   2  -5  604.19   11.60
   3   2  -5  612.61    8.72
   3   2  -5  607.33    8.70
   3   2  -5  624.25   11.48
  -3  -2   5  580.77   10.76
  -3  -2   5  576.16   11.00
   3   2  -4    0.31    0.81
   3   2  -4    0.60    0.79
   3   2  -4    0.36    0.31
   3   2  -4    0.52    0.34
  -3  -2   4    1.29    0.84
  -3  -2   4    0.33    0.80
   3   2  -3 1025.06   15.74
   3   2  -3  998.55   17.51
   3   2  -3  986.44   17.68
   3   2  -3 1030.54   15.54
  -3  -2   3  969.65   17.85
  -3  -2   3  990.20   18.63
   3   2  -2  184.47    3.34
   3   2  -2  196.76    3.73
   3   2  -2  210.01    4.57
  -3  -2   2  190.82    4.23
  -3  -2   2  187.48    4.29
  -3  -2   2  169.34    3.14
   3   2  -1  208.20    3.61
   3   2  -1  208.75    5.02
   3   2  -1  204.75    3.37
  -3  -2   1  200.26    3.74
  -3  -2   1  196.62    3.98
  -3  -2   1  198.11    3.38
   3   2   0  979.71   16.58
   3   2   0  926.27   16.42
   3   2   0  953.52   14.96
  -3  -2   0  889.92   14.12
  -3  -2   0 1031.19   19.12
  -3  -2   0  991.87   16.70
   3   2   1  334.47    5.68
   3   2   1  335.66    4.52
   3   2   1  322.91    6.09
  -3  -2  -1  332.34    4.71
  -3  -2  -1  336.13    5.63
  -3  -2  -1  341.47    7.13
   3   2   2  475.89    8.38
   3   2   2  481.45    8.77
   3   2   2  511.19    6.92
  -3  -2  -2  492.99    6.76
  -3  -2  -2  481.72    9.02
  -3  -2  -2  498.79    9.68
   3   2   3 9078.51  201.37
   3   2   3 8876.38  197.98
   3   2   3 9129.34  201.08
  -3  -2  -3 8900.73  195.51
  -3  -2  -3 8717.57  181.15
   3   2   4   83.18    2.49
   3   2   4   67.98    2.35
  -3  -2  -4  114.40    4.12
  -3  -2  -4   87.35    2.03
   3   2   5 1351.55   24.70
   3   2   5 1384.51   25.25
   3   2   5 1370.86   24.37
  -3  -2  -5 1341.00   22.13
  -3  -2  -5 1350.94   24.58
  -3  -2  -5 1343.99   22.57
   3   2   6   93.14    2.93
   3   2   6   92.66    3.18
   3   2   6   90.49    2.33
  -3  -2  -6   90.10    2.03
  -3  -2  -6   91.80    2.81
  -3  -2  -6   89.21    1.98
   3   2   7  267.39    5.12
   3   2   7  267.21    6.05
   3   2   7  269.08    5.23
  -3  -2  -7  268.44    5.75
  -3  -2  -7  266.61    5.88
  -3  -2  -7  263.63    4.91
   3   2   8   10.86    1.57
   3   2   8    5.51    1.66
   3   2   8    4.81    1.09
  -3  -2  -8    9.31    1.18
  -3  -2  -8    5.96    1.60
  -3  -2  -8    5.91    1.70
   3   2   9   34.63    2.21
   3   2   9   30.11    2.57
   3   2   9   36.41    2.38
  -3  -2  -9   32.36    1.91
  -3  -2  -9   36.26    2.49
  -3  -2  -9   34.37    1.84
   3   2  10  202.17    5.23
   3   2  10  198.18    4.89
   3   2  10  201.78    5.74
  -3  -2 -10  200.80    6.21
  -3  -2 -10  204.62    5.55
  -3  -2 -10  193.09    4.74
   3   2  11   27.07    1.43
   3   2  11   23.33    2.26
   3   2  11   28.74    2.67
  -3  -2 -11   24.08    2.04
  -3  -2 -11   25.34    2.22
  -3  -2 -11   28.94    2.58
   3   2  12   89.38    3.45
   3   2  12   96.17    4.35
   3   2  12   93.55    2.55
  -3  -2 -12   90.69    5.29
  -3  -2 -12   90.19    5.90
  -3  -2 -12   94.90    3.70
   3   2  13  300.05    6.93
   3   2  13  302.94    8.33
   3   2  13  289.87    6.50
  -3  -2 -13  295.55    7.91
  -3  -2 -13  312.04    8.42
  -3  -2 -13  298.48    7.73
   3   2  14  167.99    6.10
   3   2  14  162.70    4.66
   3   2  14  165.58    4.38
  -3  -2 -14  165.57    7.81
  -3  -2 -14  174.57    6.02
  -3  -2 -14  159.58    7.35
   3   2  15   49.20    3.97
  -3  -2 -15   45.75    3.65
  -3  -2 -15   49.46    5.61
  -3  -2 -15   44.12    3.43
   3   2  16   43.95    3.95
  -3  -2 -16   46.08    6.16
  -3  -2 -16   42.57    3.84
  -3  -2 -16   39.76    3.75
   3   2  17    3.65    4.15
  -3  -2 -17    2.84    3.71
  -3  -2 -17    0.66    2.56
  -3  -2 -17    1.91    3.80
   3   2  18    3.67    2.87
  -3  -2 -18    3.48    4.62
  -3  -2 -18    3.25    2.78
  -3  -2 -18    2.90    2.87
   3   3 -14    0.69    2.83
  -3  -3  14    0.36    2.42
   3   3 -13   49.58    4.95
  -3  -3  13   49.09    4.79
   3   3 -12   53.87    4.41
   3   3 -12   57.75    6.94
  -3  -3  12   52.80    3.89
  -3  -3  12   61.20    4.48
   3   3 -11   16.18    2.04
   3   3 -11   13.68    3.09
  -3  -3  11   10.32    1.67
  -3  -3  11   12.83    4.58
   3   3 -10    1.02    2.10
   3   3 -10    2.63    2.31
  -3  -3  10   -0.57    2.01
  -3  -3  10    4.22    2.09
   3   3  -9    4.56    1.56
   3   3  -9    2.48    2.12
  -3  -3   9    4.17    1.38
  -3  -3   9    3.00    2.12
   3   3  -8  217.22    5.71
   3   3  -8  208.48    6.30
  -3  -3   8  197.64    5.02
  -3  -3   8  205.68    6.08
   3   3  -7   32.37    2.29
   3   3  -7   21.49    2.52
  -3  -3   7   31.87    3.10
  -3  -3   7   22.14    2.50
   3   3  -6  319.57    8.87
   3   3  -6  321.61    8.70
  -3  -3   6  305.56    7.19
  -3  -3   6  309.38    6.77
   3   3  -5  127.84    3.68
   3   3  -5  125.70    3.63
  -3  -3   5  120.52    4.74
  -3  -3   5  120.31    3.38
   3   3  -4  381.18    8.53
   3   3  -4  371.30    7.60
  -3  -3   4  373.69    8.44
  -3  -3   4  357.26    7.29
   3   3  -3  130.98    3.52
   3   3  -3  128.60    4.10
  -3  -3   3  121.96    3.92
  -3  -3   3  124.40    4.42
   3   3  -2  315.06    5.97
   3   3  -2  341.06    6.93
   3   3  -2  329.10    4.65
  -3  -3   2  311.59    5.86
  -3  -3   2  318.36    6.35
   3   3  -1  151.87    4.12
   3   3  -1  164.01    3.19
   3   3  -1  160.35    2.56
  -3  -3   1  164.47    3.86
  -3  -3   1  176.42    4.20
  -3  -3   1  158.96    2.85
   3   3   0  445.09    8.38
   3   3   0  459.59    7.90
   3   3   0  454.02    7.18
  -3  -3   0  444.80    7.20
  -3  -3   0  447.42    6.97
  -3  -3   0  439.58    8.19
   3   3   1   74.96    2.44
   3   3   1   72.90    1.95
   3   3   1   73.53    2.36
  -3  -3  -1   70.76    1.68
  -3  -3  -1   70.52    1.53
  -3  -3  -1   78.49    3.31
   3   3   2 2381.21   44.63
   3   3   2 2353.99   43.84
   3   3   2 2423.77   42.44
  -3  -3  -2 2348.75   43.50
  -3  -3  -2 2310.74   44.37
  -3  -3  -2 2352.07   40.51
   3   3   3  365.15    5.65
   3   3   3  378.05    7.20
   3   3   3  374.10    7.12
  -3  -3  -3  351.67    6.76
  -3  -3  -3  430.35    8.84
  -3  -3  -3  393.54    6.58
   3   3   4 3440.94   66.97
   3   3   4 3311.44   64.32
   3   3   4 3421.94   63.25
  -3  -3  -4 3406.61   66.32
  -3  -3  -4 3396.35   65.73
  -3  -3  -4 3336.30   61.80
   3   3   5   12.97    1.57
   3   3   5   16.35    0.83
  -3  -3  -5   14.27    1.65
  -3  -3  -5   16.68    1.33
  -3  -3  -5   23.40    1.41
   3   3   6  897.22   15.89
   3   3   6  934.00   18.77
   3   3   6  894.68   15.95
  -3  -3  -6  912.19   16.94
  -3  -3  -6  883.71   15.00
  -3  -3  -6  890.79   15.16
   3   3   7 1298.70   23.25
   3   3   7 1325.66   25.34
   3   3   7 1301.36   24.30
  -3  -3  -7 1308.46   25.01
  -3  -3  -7 1308.84   23.98
  -3  -3  -7 1313.36   24.42
   3   3   8   40.31    1.67
   3   3   8   41.46    2.55
   3   3   8   41.10    1.69
  -3  -3  -8   40.48    2.52
  -3  -3  -8   41.96    2.46
  -3  -3  -8   39.23    1.75
   3   3   9  301.20    6.00
   3   3   9  323.56    7.92
   3   3   9  307.67    6.70
  -3  -3  -9  314.33    7.56
  -3  -3  -9  295.35    7.38
  -3  -3  -9  289.09    6.31
   3   3  10   47.33    1.79
   3   3  10   45.63    3.10
   3   3  10   43.46    2.36
  -3  -3 -10   40.35    3.07
  -3  -3 -10   43.86    2.29
  -3  -3 -10   42.91    2.29
   3   3  11  122.61    2.88
   3   3  11  129.18    4.75
   3   3  11  122.59    2.95
  -3  -3 -11  122.17    5.31
  -3  -3 -11  126.31    4.56
  -3  -3 -11  122.69    3.86
   3   3  12  185.95    6.08
   3   3  12  181.06    4.64
   3   3  12  166.64    4.27
  -3  -3 -12  174.08    5.14
  -3  -3 -12  184.28    5.87
  -3  -3 -12  173.65    6.47
   3   3  13   30.23    2.04
   3   3  13   28.88    3.23
   3   3  13   27.80    1.30
  -3  -3 -13   31.15    3.06
  -3  -3 -13   27.09    2.67
  -3  -3 -13   31.55    3.91
   3   3  14    1.50    0.68
   3   3  14    0.10    3.39
   3   3  14    0.85    1.21
  -3  -3 -14    1.78    1.92
  -3  -3 -14    2.47    2.10
  -3  -3 -14    2.45    2.89
   3   3  15   26.38    3.46
  -3  -3 -15   18.66    3.04
  -3  -3 -15   22.29    3.23
  -3  -3 -15   26.71    4.48
   3   3  16  181.86   10.17
  -3  -3 -16  173.73    6.54
  -3  -3 -16  165.53    6.67
  -3  -3 -16  184.83    9.57
   3   3  17   83.81    5.56
  -3  -3 -17   70.12    7.48
  -3  -3 -17   75.77    4.93
  -3  -3 -17   79.23    5.08
   3   3  18    8.14    3.45
  -3  -3 -18    3.72    3.27
  -3  -3 -18    5.99    5.15
  -3  -3 -18    7.11    3.07
   3   4 -13   10.54    5.89
  -3  -4  13    6.95    3.18
  -3  -4  13    8.11    3.44
   3   4 -12   21.70    4.11
   3   4 -12   21.41    3.85
  -3  -4  12   23.90    3.67
  -3  -4  12   13.30    3.80
   3   4 -11   43.58    4.76
   3   4 -11   32.83    4.09
  -3  -4  11   30.80    2.64
  -3  -4  11   39.32    6.02
   3   4 -10    2.35    1.84
   3   4 -10    3.05    2.40
  -3  -4  10    1.05    2.51
  -3  -4  10    3.19    2.34
   3   4  -9   84.30    4.49
   3   4  -9   81.66    3.86
  -3  -4   9   84.81    4.40
  -3  -4   9   73.88    3.44
   3   4  -8  878.36   19.34
   3   4  -8  849.79   19.23
  -3  -4   8  845.14   21.27
  -3  -4   8  796.94   17.09
   3   4  -7   33.69    4.50
   3   4  -7   39.03    2.80
  -3  -4   7   35.18    4.41
  -3  -4   7   38.37    3.81
   3   4  -6  105.18    4.00
   3   4  -6  101.97    3.90
  -3  -4   6   99.50    3.78
  -3  -4   6   93.16    3.55
   3   4  -5   58.72    4.20
   3   4  -5   59.73    3.03
  -3  -4   5   57.87    2.85
  -3  -4   5   52.77    2.75
   3   4  -4   41.68    2.52
   3   4  -4   35.26    2.24
  -3  -4   4   37.66    2.14
  -3  -4   4   36.21    2.28
   3   4  -3   64.70    2.46
   3   4  -3   68.05    2.89
  -3  -4   3   65.42    3.41
  -3  -4   3   62.54    2.66
   3   4  -2  681.44   13.54
   3   4  -2  704.42    9.92
   3   4  -2  682.76   13.77
  -3  -4   2  668.76   12.33
  -3  -4   2  663.81   14.44
   3   4  -1  457.96    9.24
   3   4  -1  433.08    8.27
   3   4  -1  461.52    7.32
  -3  -4   1  430.22    9.12
  -3  -4   1  456.68    7.19
  -3  -4   1  442.68    8.97
   3   4   0  408.01    6.58
   3   4   0  396.80    9.58
   3   4   0  407.14    8.14
  -3  -4   0  393.78    6.29
  -3  -4   0  400.97    8.09
  -3  -4   0  379.62    7.66
   3   4   1 3483.53   66.41
   3   4   1 3564.36   71.64
   3   4   1 3391.73   65.68
  -3  -4  -1 3277.05   62.73
  -3  -4  -1 3231.32   64.04
  -3  -4  -1 3318.26   63.63
   3   4   2 3133.91   59.55
   3   4   2 3212.51   63.61
   3   4   2 3247.13   62.11
  -3  -4  -2 3099.20   58.61
  -3  -4  -2 3176.00   64.02
  -3  -4  -2 3059.50   58.33
   3   4   3  218.73    4.84
   3   4   3  227.57    5.59
   3   4   3  220.64    3.99
  -3  -4  -3  219.58    4.79
  -3  -4  -3  214.98    3.93
  -3  -4  -3  215.84    4.41
   3   4   4  583.88   10.98
   3   4   4  576.39   10.87
   3   4   4  576.62    9.79
  -3  -4  -4  553.71    9.56
  -3  -4  -4  590.99   11.97
  -3  -4  -4  594.39   11.14
   3   4   5 1175.29   21.58
   3   4   5 1220.05   22.93
   3   4   5 1211.49   20.84
  -3  -4  -5 1186.90   21.85
  -3  -4  -5 1202.52   21.68
  -3  -4  -5 1171.08   22.11
   3   4   6  121.07    2.78
   3   4   6  122.66    3.71
   3   4   6  120.49    3.09
  -3  -4  -6  114.47    2.97
  -3  -4  -6  124.09    3.72
  -3  -4  -6  117.42    2.72
   3   4   7   90.44    3.39
   3   4   7   87.61    2.41
   3   4   7   96.68    3.41
  -3  -4  -7   86.35    2.38
  -3  -4  -7   94.04    3.40
  -3  -4  -7   89.84    2.57
   3   4   8  159.37    4.58
   3   4   8  152.62    4.72
   3   4   8  156.17    3.63
  -3  -4  -8  155.80    3.71
  -3  -4  -8  148.30    3.67
  -3  -4  -8  147.03    6.26
   3   4   9  932.21   21.53
   3   4   9  887.02   17.48
   3   4   9  875.82   17.41
  -3  -4  -9  861.53   16.70
  -3  -4  -9  848.02   16.66
  -3  -4  -9  877.85   18.15
   3   4  10  925.84   18.04
   3   4  10  920.59   18.13
   3   4  10  942.88   20.66
  -3  -4 -10  915.37   18.42
  -3  -4 -10  905.44   18.42
  -3  -4 -10  909.17   19.88
   3   4  11  891.61   19.46
   3   4  11  854.68   15.53
   3   4  11  865.55   15.67
  -3  -4 -11  853.58   19.01
  -3  -4 -11  886.47   19.07
  -3  -4 -11  837.29   17.41
   3   4  12   39.85    3.40
   3   4  12   31.29    2.16
   3   4  12   31.33    1.53
  -3  -4 -12   31.93    3.22
  -3  -4 -12   25.67    2.59
  -3  -4 -12   33.28    2.48
   3   4  13   18.21    1.73
   3   4  13   17.77    2.94
   3   4  13   13.85    1.05
  -3  -4 -13   16.89    2.90
  -3  -4 -13   16.02    2.30
  -3  -4 -13   15.93    2.20
   3   4  14  227.35   10.07
   3   4  14  208.95    4.74
   3   4  14  205.47    3.94
  -3  -4 -14  209.41    6.57
  -3  -4 -14  221.91    9.90
  -3  -4 -14  222.45    8.36
   3   4  15   95.50    5.63
  -3  -4 -15   89.26    5.20
  -3  -4 -15   86.08    6.62
  -3  -4 -15   88.69    6.34
   3   4  16    0.47    3.83
  -3  -4 -16    5.11    4.66
  -3  -4 -16    5.34    4.13
  -3  -4 -16    4.82    3.92
   3   4  17   62.65    5.40
  -3  -4 -17   57.17    4.85
  -3  -4 -17   64.44    5.03
  -3  -4 -17   64.34    6.77
   3   4  18    0.68    4.47
  -3  -4 -18    0.58    3.94
  -3  -4 -18   -0.90    2.38
  -3  -4 -18    1.56    2.24
   3   5 -12   18.93    4.23
   3   5 -12   21.89    3.20
  -3  -5  12   21.26    2.83
  -3  -5  12   17.39    6.53
   3   5 -11   50.53    4.07
   3   5 -11   50.53    4.82
  -3  -5  11   46.48    5.09
  -3  -5  11   48.35    4.66
   3   5 -10  120.61    6.15
   3   5 -10  131.24    5.69
  -3  -5  10  108.91    4.74
  -3  -5  10  125.62    6.04
   3   5  -9   25.76    3.42
   3   5  -9   24.31    3.10
  -3  -5   9   28.19    3.45
  -3  -5   9   28.57    4.44
   3   5  -8   25.13    3.09
   3   5  -8   28.26    3.00
  -3  -5   8   21.51    4.73
  -3  -5   8   26.50    2.64
   3   5  -7   10.29    2.41
   3   5  -7   10.40    3.92
  -3  -5   7    6.87    3.71
  -3  -5   7    9.11    2.13
   3   5  -6  150.19    5.39
   3   5  -6  147.66    5.19
  -3  -5   6  142.90    5.00
  -3  -5   6  144.05    6.82
   3   5  -5    1.82    1.88
   3   5  -5    3.58    2.70
  -3  -5   5    0.97    2.67
  -3  -5   5    3.34    2.70
   3   5  -4  161.92    7.23
   3   5  -4  157.10    4.74
  -3  -5   4  150.17    6.72
  -3  -5   4  155.10    6.18
   3   5  -3  464.00   12.71
   3   5  -3  434.87    9.49
  -3  -5   3  426.79    9.47
  -3  -5   3  454.59   12.20
   3   5  -2  352.60    8.51
   3   5  -2  347.67    8.79
  -3  -5   2  343.80    7.46
  -3  -5   2  346.98    9.74
  -3  -5   2  334.19    4.72
   3   5  -1 1201.13   19.65
   3   5  -1 1196.48   23.01
   3   5  -1 1189.21   24.05
  -3  -5   1 1138.63   19.12
  -3  -5   1 1159.02   23.58
  -3  -5   1 1143.09   22.96
   3   5   0  331.48    7.90
   3   5   0  335.24    9.49
   3   5   0  341.32    5.83
  -3  -5   0  332.13    6.17
  -3  -5   0  327.98    6.70
  -3  -5   0  331.95    7.54
   3   5   1   95.90    3.57
   3   5   1   91.85    3.64
   3   5   1   97.88    2.41
  -3  -5  -1  105.02    4.98
  -3  -5  -1   89.52    2.70
  -3  -5  -1   92.98    2.96
   3   5   2   81.80    2.35
   3   5   2   82.01    3.08
   3   5   2   84.38    3.22
  -3  -5  -2   82.45    3.04
  -3  -5  -2   78.79    2.22
  -3  -5  -2   77.62    2.36
   3   5   3  602.10   12.55
   3   5   3  591.07   11.87
   3   5   3  591.06   10.78
  -3  -5  -3  586.85   11.59
  -3  -5  -3  580.79   11.57
  -3  -5  -3  576.21   10.90
   3   5   4    0.25    1.21
   3   5   4    8.43    2.12
   3   5   4    0.09    1.45
  -3  -5  -4    4.69    1.69
  -3  -5  -4   -0.45    0.79
  -3  -5  -4   -0.07    1.00
   3   5   5  308.53    6.77
   3   5   5  297.30    6.45
   3   5   5  302.19    5.81
  -3  -5  -5  304.41    7.65
  -3  -5  -5  294.51    5.85
  -3  -5  -5  293.98    6.51
   3   5   6   31.42    1.91
   3   5   6   24.99    3.59
   3   5   6   30.19    1.60
  -3  -5  -6   27.70    2.72
  -3  -5  -6   26.91    1.62
  -3  -5  -6   27.52    2.29
   3   5   7    1.81    1.64
   3   5   7    1.20    1.42
   3   5   7   -0.79    1.49
  -3  -5  -7    0.64    1.00
  -3  -5  -7    0.76    1.56
  -3  -5  -7    1.52    1.40
   3   5   8  552.75   12.04
   3   5   8  552.76   12.14
   3   5   8  543.51   10.78
  -3  -5  -8  550.69   10.80
  -3  -5  -8  535.06   10.77
  -3  -5  -8  548.27   14.47
   3   5   9 1014.61   20.60
   3   5   9 1040.58   24.51
   3   5   9 1019.78   19.24
  -3  -5  -9 1000.88   19.66
  -3  -5  -9  997.47   19.91
  -3  -5  -9 1022.51   21.41
   3   5  10  191.95    4.37
   3   5  10  201.77    8.65
   3   5  10  185.16    4.28
  -3  -5 -10  182.20    5.02
  -3  -5 -10  180.08    5.06
  -3  -5 -10  191.95    6.14
   3   5  11    2.31    2.07
   3   5  11    1.55    0.92
   3   5  11    2.48    1.51
  -3  -5 -11    1.27    1.38
  -3  -5 -11    1.26    1.93
  -3  -5 -11    2.39    1.45
   3   5  12   84.11    4.65
   3   5  12   78.81    3.15
   3   5  12   76.08    2.38
  -3  -5 -12   72.89    5.00
  -3  -5 -12   82.82    5.16
  -3  -5 -12   77.33    4.38
   3   5  13   18.47    3.27
   3   5  13   16.63    1.90
  -3  -5 -13   14.40    2.45
  -3  -5 -13   12.41    2.29
  -3  -5 -13   15.38    3.05
   3   5  14   24.19    3.76
  -3  -5 -14   25.54    5.65
  -3  -5 -14   18.15    2.78
  -3  -5 -14   23.46    2.83
   3   5  15   20.94    3.92
  -3  -5 -15   22.38    3.09
  -3  -5 -15   20.06    3.78
  -3  -5 -15   28.77    4.66
   3   5  16    1.81    4.63
  -3  -5 -16    4.11    5.29
  -3  -5 -16    6.43    2.69
  -3  -5 -16    7.81    4.24
   3   5  17   36.90    4.79
  -3  -5 -17   38.04    4.75
  -3  -5 -17   36.12    4.18
  -3  -5 -17   43.77    6.37
   3   6 -11   13.87    5.18
   3   6 -11    4.79    6.08
  -3  -6  11    4.98    2.51
  -3  -6  11    4.81    3.40
   3   6 -10  130.81    6.96
   3   6 -10  146.17    9.30
  -3  -6  10  123.18    9.44
  -3  -6  10  122.80    7.88
   3   6  -9   10.36    3.28
   3   6  -9   11.12    4.96
  -3  -6   9    9.99    4.94
  -3  -6   9    8.65    2.71
   3   6  -8    1.28    2.29
   3   6  -8    1.59    2.25
  -3  -6   8    0.03    1.94
  -3  -6   8    0.57    1.73
   3   6  -7    0.66    3.64
   3   6  -7    3.51    2.35
  -3  -6   7   -0.18    1.89
  -3  -6   7   -1.74    2.90
   3   6  -6   32.36    3.54
   3   6  -6   32.32    3.13
  -3  -6   6   28.81    3.14
  -3  -6   6   31.06    4.72
   3   6  -5   75.43    5.73
   3   6  -5   81.80    6.60
  -3  -6   5   77.26    3.90
  -3  -6   5   74.75    4.04
   3   6  -4    0.49    1.66
   3   6  -4    2.49    2.03
  -3  -6   4   -0.21    1.39
  -3  -6   4    0.65    1.54
   3   6  -3  155.32    4.97
   3   6  -3  163.17    5.91
  -3  -6   3  152.32    4.91
  -3  -6   3  154.23    5.34
   3   6  -2  272.15   10.03
   3   6  -2  264.87    6.82
  -3  -6   2  257.26    7.24
  -3  -6   2  260.54    8.19
  -3  -6   2  248.58    3.92
   3   6  -1  198.31    4.11
   3   6  -1  213.70    6.72
   3   6  -1  202.33    5.47
  -3  -6   1  198.44    3.51
  -3  -6   1  195.87    5.55
  -3  -6   1  203.80    6.44
   3   6   0 1918.88   40.53
   3   6   0 1890.68   40.44
   3   6   0 1948.35   36.77
  -3  -6   0 1848.75   39.27
  -3  -6   0 1899.48   42.82
  -3  -6   0 1837.65   34.56
   3   6   1  144.56    5.01
   3   6   1  137.69    3.25
   3   6   1  131.34    3.91
  -3  -6  -1  129.95    3.90
  -3  -6  -1  136.27    4.74
  -3  -6  -1  135.25    3.97
   3   6   2  401.67    8.85
   3   6   2  382.82    8.97
   3   6   2  383.17    8.11
  -3  -6  -2  384.83    8.87
  -3  -6  -2  378.25    8.01
  -3  -6  -2  375.29    7.37
   3   6   3  569.24   12.30
   3   6   3  558.03   11.09
   3   6   3  579.58   12.48
  -3  -6  -3  563.01   11.98
  -3  -6  -3  559.24   12.28
  -3  -6  -3  553.02   11.95
   3   6   4   33.41    3.80
   3   6   4   30.10    2.14
   3   6   4   36.75    2.85
  -3  -6  -4   32.48    3.54
  -3  -6  -4   31.30    1.93
  -3  -6  -4   33.83    2.10
   3   6   5   21.55    2.50
   3   6   5   17.90    2.06
   3   6   5   18.52    2.04
  -3  -6  -5   19.67    2.07
  -3  -6  -5   17.95    1.72
  -3  -6  -5   30.01    2.11
   3   6   6  317.68    7.42
   3   6   6  318.14    6.82
   3   6   6  317.99    7.63
  -3  -6  -6  314.35    7.23
  -3  -6  -6  307.83    6.77
  -3  -6  -6  317.53    7.55
   3   6   7  173.65    6.97
   3   6   7  156.85    4.45
   3   6   7  160.51    4.23
  -3  -6  -7  156.69    4.27
  -3  -6  -7  163.03    4.38
  -3  -6  -7  164.00    6.63
   3   6   8    5.27    2.10
   3   6   8    5.47    1.45
   3   6   8    6.08    2.32
  -3  -6  -8    6.48    2.51
  -3  -6  -8    8.21    2.32
  -3  -6  -8    6.57    2.04
   3   6   9    9.75    2.41
   3   6   9   11.47    1.68
   3   6   9   10.09    1.52
  -3  -6  -9    9.43    1.46
  -3  -6  -9   10.62    1.67
  -3  -6  -9    7.68    2.32
   3   6  10   65.67    4.02
   3   6  10   69.08    3.59
   3   6  10   69.25    3.01
  -3  -6 -10   65.70    3.02
  -3  -6 -10   70.06    4.03
   3   6  11  107.38    4.93
   3   6  11  101.02    3.05
   3   6  11  102.29    3.04
  -3  -6 -11  106.86    5.41
  -3  -6 -11  105.18    5.51
  -3  -6 -11  112.93    7.18
   3   6  12  136.05    8.30
   3   6  12  119.77    3.26
   3   6  12  122.55    4.33
  -3  -6 -12  113.14    4.46
  -3  -6 -12  123.15    4.52
  -3  -6 -12  122.81    5.52
   3   6  13  319.35    6.58
   3   6  13  347.50   13.19
   3   6  13  318.54    7.44
  -3  -6 -13  338.86    8.92
  -3  -6 -13  352.55   13.47
  -3  -6 -13  319.09    8.84
   3   6  14   33.40    4.15
  -3  -6 -14   33.80    3.24
  -3  -6 -14   36.80    3.15
  -3  -6 -14   27.27    4.09
   3   6  15   81.66    5.73
  -3  -6 -15   77.88    4.66
  -3  -6 -15   82.30    5.78
   3   6  16   48.34    7.93
  -3  -6 -16   51.25    5.12
  -3  -6 -16   42.14    6.35
  -3  -6 -16   48.63    4.12
   3   6  17   99.73    6.66
  -3  -6 -17  104.12    6.79
  -3  -6 -17   91.76    8.24
  -3  -6 -17  103.33    5.74
   3   7  -9   82.92    8.93
   3   7  -9   81.19    8.66
  -3  -7   9   66.56    5.44
  -3  -7   9   65.51    5.10
   3   7  -8   51.07    4.95
   3   7  -8   48.72    4.79
  -3  -7   8   47.79    6.80
  -3  -7   8   42.23    4.21
   3   7  -7    4.19    2.90
   3   7  -7    3.54    2.77
  -3  -7   7    2.87    4.15
  -3  -7   7    2.03    4.02
   3   7  -6   76.58    7.18
   3   7  -6   83.19    5.35
  -3  -7   6   75.83    6.95
  -3  -7   6   75.53    6.93
   3   7  -5  135.45    9.24
   3   7  -5  126.93    5.65
  -3  -7   5  132.45    7.64
  -3  -7   5  127.61    5.72
   3   7  -4   53.45    4.41
   3   7  -4   50.59    3.69
  -3  -7   4   48.36    5.49
  -3  -7   4   56.25    4.00
   3   7  -3  220.70    8.97
   3   7  -3  229.65    7.87
  -3  -7   3  220.21    8.64
  -3  -7   3  221.08    7.38
   3   7  -2  478.45   12.81
   3   7  -2  447.76   12.80
  -3  -7   2  463.38   11.08
  -3  -7   2  465.88   12.01
  -3  -7   2  426.04    7.06
   3   7  -1    2.47    2.38
   3   7  -1    3.35    2.87
  -3  -7   1    2.39    2.05
  -3  -7   1    1.27    1.64
  -3  -7   1    1.54    0.94
  -3  -7   1    1.76    0.64
   3   7   0  147.79    5.71
   3   7   0  138.55    6.16
   3   7   0  141.52    3.21
  -3  -7   0  131.56    4.51
  -3  -7   0  130.96    3.84
  -3  -7   0  146.64    7.44
   3   7   1  149.47    7.82
   3   7   1  143.48    3.54
   3   7   1  141.95    4.53
  -3  -7  -1  140.43    5.21
  -3  -7  -1  139.96    4.53
  -3  -7  -1  139.17    3.42
   3   7   2  141.63    3.80
   3   7   2  145.25    4.43
   3   7   2  149.55    5.36
  -3  -7  -2  138.12    5.12
  -3  -7  -2  137.59    4.71
  -3  -7  -2  140.85    4.44
   3   7   3  124.53    4.00
   3   7   3  129.86    3.78
   3   7   3  118.99    4.79
  -3  -7  -3  126.07    6.57
  -3  -7  -3  127.44    5.43
  -3  -7  -3  117.47    3.58
   3   7   4  199.26    8.05
   3   7   4  192.34    5.19
   3   7   4  185.90    5.06
  -3  -7  -4  186.69    5.66
  -3  -7  -4  184.31    5.15
  -3  -7  -4  181.17    4.95
   3   7   5   21.78    2.48
   3   7   5   19.70    2.27
   3   7   5   19.25    2.04
  -3  -7  -5   22.52    3.90
  -3  -7  -5   22.53    3.32
  -3  -7  -5   19.66    2.19
   3   7   6  191.23    5.74
   3   7   6  199.98    5.77
   3   7   6  188.10    6.65
  -3  -7  -6  187.12    5.51
  -3  -7  -6  190.27    5.32
  -3  -7  -6  184.97    5.54
   3   7   7  375.00    9.03
   3   7   7  378.67    8.66
   3   7   7  386.18    9.35
  -3  -7  -7  372.47    8.78
  -3  -7  -7  372.54    8.66
  -3  -7  -7  377.34    9.29
   3   7   8  308.08    7.60
   3   7   8  312.53    9.05
   3   7   8  328.71    8.68
  -3  -7  -8  317.42    8.45
  -3  -7  -8  307.34    7.43
  -3  -7  -8  319.89    9.40
   3   7   9  224.67    5.83
   3   7   9  223.94    7.11
   3   7   9  212.34    5.93
  -3  -7  -9  225.49    7.09
  -3  -7  -9  219.26    7.75
  -3  -7  -9  216.43    9.19
   3   7  10   70.36    3.38
   3   7  10   71.98    4.25
   3   7  10   74.78    4.42
  -3  -7 -10   72.54    4.96
  -3  -7 -10   73.37    2.89
  -3  -7 -10   74.26    4.27
   3   7  11  301.85    9.41
   3   7  11  296.71    7.97
   3   7  11  289.11    6.97
  -3  -7 -11  282.37    6.76
  -3  -7 -11  299.71    9.93
  -3  -7 -11  296.49    9.37
   3   7  12   49.41    3.56
   3   7  12   55.11    4.50
   3   7  12   50.37    2.36
  -3  -7 -12   55.79    3.54
  -3  -7 -12   43.96    6.69
  -3  -7 -12   55.31    5.27
   3   7  13   15.10    1.69
   3   7  13   21.23    3.66
   3   7  13   17.12    1.60
  -3  -7 -13   17.57    4.34
  -3  -7 -13   16.86    2.67
  -3  -7 -13   18.12    3.65
   3   7  14  146.57    7.37
  -3  -7 -14  138.16    5.73
  -3  -7 -14  149.88    7.13
  -3  -7 -14  141.39    8.30
   3   7  15  114.15    6.78
  -3  -7 -15   99.93    7.65
  -3  -7 -15  102.22    7.74
  -3  -7 -15  102.69    6.65
   3   7  16    3.87    5.62
  -3  -7 -16    6.71    2.86
  -3  -7 -16    5.68    3.69
  -3  -7 -16    5.46    4.67
   3   8  -7   56.40    5.68
   3   8  -7   44.83    7.51
  -3  -8   7   53.70    5.01
  -3  -8   7   46.00    4.94
   3   8  -6   94.70    6.24
   3   8  -6   80.15    5.53
  -3  -8   6   75.60    7.76
  -3  -8   6   81.83    8.28
   3   8  -5   28.74    5.62
   3   8  -5   20.73    7.06
  -3  -8   5   28.34    5.80
  -3  -8   5   30.64    4.00
   3   8  -4   -0.19    2.70
   3   8  -4   -1.17    2.04
  -3  -8   4   -0.20    2.22
  -3  -8   4    1.76    3.25
   3   8  -3   57.45    4.22
   3   8  -3   66.54    8.03
  -3  -8   3   54.80    5.83
  -3  -8   3   53.83    4.59
   3   8  -2   62.62    4.94
   3   8  -2   52.45    5.97
  -3  -8   2   45.52    3.72
  -3  -8   2   51.00    4.33
   3   8  -1  132.36    7.30
   3   8  -1  130.28    9.06
  -3  -8   1  123.77    5.07
  -3  -8   1  121.20    5.80
  -3  -8   1  115.27    3.27
  -3  -8   1  108.19    2.66
   3   8   0   48.72    5.02
   3   8   0   48.47    4.41
  -3  -8   0   44.40    3.30
  -3  -8   0   42.44    6.05
  -3  -8   0   39.20    2.62
   3   8   1    1.50    2.28
   3   8   1   -0.22    2.72
   3   8   1    1.24    1.66
  -3  -8  -1    0.19    1.52
  -3  -8  -1    2.15    3.15
  -3  -8  -1    0.22    0.92
   3   8   2   79.24    4.07
   3   8   2   90.60    7.18
   3   8   2   78.21    3.71
  -3  -8  -2   74.68    4.42
  -3  -8  -2   78.17    2.90
  -3  -8  -2   78.09    5.46
   3   8   3    9.84    2.66
   3   8   3   10.16    2.04
   3   8   3    7.99    1.70
  -3  -8  -3   10.24    2.56
  -3  -8  -3    8.13    2.10
  -3  -8  -3   10.50    1.71
   3   8   4    1.44    1.40
   3   8   4    1.09    1.99
   3   8   4    0.85    1.54
  -3  -8  -4    1.23    1.48
  -3  -8  -4    0.37    1.72
  -3  -8  -4    0.29    1.31
   3   8   5  205.52    6.73
   3   8   5  207.35    7.80
   3   8   5  194.83    7.42
  -3  -8  -5  192.58    6.26
  -3  -8  -5  189.06    5.78
  -3  -8  -5  194.20    5.71
   3   8   6  108.47    4.32
   3   8   6   96.70    4.60
   3   8   6   98.61    4.10
  -3  -8  -6   99.02    4.32
  -3  -8  -6   96.68    5.86
  -3  -8  -6   96.52    4.14
   3   8   7   13.93    2.43
   3   8   7   14.86    2.59
   3   8   7   11.90    2.20
  -3  -8  -7   14.61    3.72
  -3  -8  -7   14.35    2.56
  -3  -8  -7   20.70    3.63
   3   8   8    0.92    1.49
   3   8   8    0.96    1.75
   3   8   8   -1.92    2.27
  -3  -8  -8    1.48    2.45
  -3  -8  -8    1.20    1.60
  -3  -8  -8    1.23    1.94
   3   8   9   46.08    3.18
   3   8   9   48.40    3.08
   3   8   9   54.49    5.94
  -3  -8  -9   39.56    4.24
  -3  -8  -9   47.44    3.78
  -3  -8  -9   47.00    3.20
   3   8  10   50.80    3.13
   3   8  10   57.73    4.55
   3   8  10   55.22    3.50
  -3  -8 -10   49.26    4.33
  -3  -8 -10   50.33    5.26
  -3  -8 -10   53.35    6.44
   3   8  11   99.24    5.51
   3   8  11  110.44    5.87
   3   8  11  100.22    4.61
  -3  -8 -11   90.99    3.66
  -3  -8 -11  104.13    6.78
  -3  -8 -11  109.43    5.69
   3   8  12    3.33    1.64
   3   8  12    8.84    1.82
   3   8  12    9.28    3.37
  -3  -8 -12   10.30    2.56
  -3  -8 -12   11.64    3.26
  -3  -8 -12    2.30    2.50
   3   8  13    7.38    3.67
  -3  -8 -13    7.11    5.63
  -3  -8 -13    7.54    2.63
  -3  -8 -13    6.45    4.22
   3   8  14   27.55    4.82
  -3  -8 -14   29.22    5.74
  -3  -8 -14   29.24    3.62
  -3  -8 -14   24.88    4.73
   3   8  15   18.43    7.39
  -3  -8 -15   13.70    3.29
  -3  -8 -15   14.20    4.37
  -3  -8 -15   13.64    5.27
   3   9  -5    1.51    4.86
   3   9  -5    0.04    2.36
  -3  -9   5    3.00    4.53
  -3  -9   5    1.20    5.11
   3   9  -4   58.93    5.79
   3   9  -4   51.76    7.32
  -3  -9   4   47.43    7.03
  -3  -9   4   53.01    7.83
   3   9  -3   10.97    6.61
   3   9  -3    9.22    3.21
  -3  -9   3   11.88    5.24
  -3  -9   3   11.32    5.96
   3   9  -2   20.98    4.53
   3   9  -2   18.59    3.36
  -3  -9   2   20.94    5.15
  -3  -9   2   18.64    6.26
   3   9  -1   57.26    5.53
   3   9  -1   52.70    6.22
  -3  -9   1   58.21    7.44
  -3  -9   1   50.44    6.28
   3   9   0   90.69    8.95
   3   9   0   84.41    6.84
  -3  -9   0   85.46    6.96
  -3  -9   0   92.75    8.36
   3   9   1    7.47    3.09
   3   9   1    8.05    2.35
   3   9   1    2.22    1.31
  -3  -9  -1    9.87    4.16
  -3  -9  -1    7.39    3.11
  -3  -9  -1    9.58    1.53
   3   9   2   15.95    1.84
   3   9   2   19.61    3.60
   3   9   2   16.23    2.72
  -3  -9  -2   14.87    2.68
  -3  -9  -2    9.64    2.92
  -3  -9  -2   15.16    3.31
   3   9   3    4.02    4.41
   3   9   3    3.99    2.56
   3   9   3    3.66    3.41
  -3  -9  -3    4.80    2.60
  -3  -9  -3    3.54    1.67
  -3  -9  -3    5.03    2.16
   3   9   4    2.02    3.63
   3   9   4    0.78    1.52
  -3  -9  -4    1.33    1.90
  -3  -9  -4   -0.07    1.69
  -3  -9  -4    0.09    1.40
   3   9   5    3.43    2.41
   3   9   5    0.17    1.94
   3   9   5    3.91    1.93
  -3  -9  -5   -0.10    1.96
  -3  -9  -5   -0.09    2.14
  -3  -9  -5    4.45    1.76
   3   9   6   33.43    4.85
   3   9   6   27.41    3.00
   3   9   6   34.63    3.51
  -3  -9  -6   31.42    3.25
  -3  -9  -6   33.39    3.09
  -3  -9  -6   31.00    3.04
   3   9   7   33.52    3.24
   3   9   7   27.21    3.30
   3   9   7   31.05    2.98
  -3  -9  -7   26.51    3.03
  -3  -9  -7   25.56    3.09
  -3  -9  -7   26.84    3.14
   3   9   8   32.46    5.45
   3   9   8   25.18    3.17
   3   9   8   27.58    3.01
  -3  -9  -8   25.60    2.95
  -3  -9  -8   29.37    3.09
  -3  -9  -8   24.42    3.36
   3   9   9  278.59   10.61
   3   9   9  293.00    9.45
   3   9   9  275.30   10.61
  -3  -9  -9  279.26    9.26
  -3  -9  -9  271.31    8.04
  -3  -9  -9  280.44    8.65
   3   9  10    4.88    2.16
   3   9  10    5.27    2.97
   3   9  10    1.54    3.76
  -3  -9 -10    6.12    2.12
  -3  -9 -10    7.94    2.49
  -3  -9 -10    8.80    4.95
   3   9  11    6.73    2.21
   3   9  11    5.94    3.30
   3   9  11    6.40    4.04
  -3  -9 -11    4.74    1.94
  -3  -9 -11    5.59    2.60
  -3  -9 -11    5.47    3.11
   3   9  12  148.79    7.43
   3   9  12  157.43   11.04
   3   9  12  142.66    6.31
  -3  -9 -12  135.63    6.61
  -3  -9 -12  149.71    8.99
  -3  -9 -12  146.69    7.43
   3   9  13  178.28   12.03
  -3  -9 -13  162.02    6.91
  -3  -9 -13  163.04    8.01
  -3  -9 -13  146.30    6.71
   3  10  -2   47.90    6.07
   3  10  -2   39.58    4.56
  -3 -10   2   39.45    4.33
  -3 -10   2   43.86    5.46
   3  10  -1    3.79    4.51
   3  10  -1    3.06    3.83
  -3 -10   1    3.52    2.83
  -3 -10   1    5.35    3.59
   3  10   0   55.42    9.01
   3  10   0   47.19    4.57
  -3 -10   0   50.96    4.58
  -3 -10   0   54.08    5.44
   3  10   1    3.85    3.57
   3  10   1    2.80    2.56
  -3 -10  -1    2.45    2.56
  -3 -10  -1    2.76    3.20
   3  10   2   11.36    3.08
   3  10   2   12.44    4.12
  -3 -10  -2    9.63    3.62
  -3 -10  -2   11.05    3.07
   3  10   3   13.32    4.11
   3  10   3   10.47    3.53
   3  10   3   13.77    3.09
  -3 -10  -3   12.67    5.97
  -3 -10  -3   12.06    3.60
  -3 -10  -3   19.66    3.18
   3  10   4  152.12    7.58
   3  10   4  153.48    6.44
   3  10   4  147.98    5.55
  -3 -10  -4  139.99    6.28
  -3 -10  -4  150.40    6.86
  -3 -10  -4  139.24    7.20
   3  10   5   80.58    4.24
   3  10   5   90.49    8.74
   3  10   5   82.81    4.79
  -3 -10  -5   77.60    5.18
  -3 -10  -5   83.08    5.05
  -3 -10  -5   81.87    4.34
   3  10   6   32.84    6.44
   3  10   6   26.75    5.10
   3  10   6   28.11    3.55
  -3 -10  -6   27.12    3.55
  -3 -10  -6   30.30    3.71
  -3 -10  -6   26.69    3.29
   3  10   7   42.09    6.71
   3  10   7   41.94    3.86
   3  10   7   41.46    3.75
  -3 -10  -7   41.56    3.96
  -3 -10  -7   37.71    3.90
  -3 -10  -7   38.19    3.78
   3  10   8  115.90    5.95
   3  10   8  106.51    5.41
   3  10   8  115.27    5.99
  -3 -10  -8  108.86    5.41
  -3 -10  -8  108.92    5.72
  -3 -10  -8  104.81    5.72
   3  10   9    0.26    2.23
   3  10   9    2.90    2.58
   3  10   9    0.58    2.30
  -3 -10  -9   -0.64    4.23
  -3 -10  -9   32.10    5.09
  -3 -10  -9   -0.58    5.18
   3  10  10  213.61   12.04
   3  10  10  205.67    7.69
   3  10  10  191.14    7.61
  -3 -10 -10  189.75    9.27
  -3 -10 -10  205.90    7.89
  -3 -10 -10  202.40   11.39
   3  10  11  117.87    6.85
   3  10  11  106.63    7.60
   3  10  11  110.11    5.78
  -3 -10 -11  106.94    6.04
  -3 -10 -11  109.04    6.61
  -3 -10 -11  100.46    6.82
   4  -9  -6   28.51    3.51
   4  -9  -6   26.38    7.70
   4  -9  -6   30.78    4.68
   4  -9  -6   30.47    4.85
  -4   9   6   27.20    4.53
  -4   9   6   24.51    3.46
   4  -9  -5    0.76    2.66
   4  -9  -5   -0.59    2.44
   4  -9  -5   -0.22    2.31
   4  -9  -5   -0.27    1.90
  -4   9   5   -0.91    2.46
  -4   9   5    0.02    2.01
   4  -9  -4    0.02    2.63
   4  -9  -4    2.87    3.27
   4  -9  -4    3.25    3.18
   4  -9  -4    4.81    3.14
  -4   9   4   -1.04    2.61
  -4   9   4    0.03    2.21
   4  -9  -3   67.27    5.19
   4  -9  -3   77.79    6.19
   4  -9  -3   82.14    8.35
   4  -9  -3   69.48    5.70
  -4   9   3   71.04    7.92
  -4   9   3   70.63    5.83
   4  -9  -2   -0.31    2.54
   4  -9  -2    2.00    2.75
   4  -9  -2    0.65    2.54
  -4   9   2   -0.80    2.65
  -4   9   2    0.02    2.48
   4  -9  -1   30.42    4.06
   4  -9  -1   25.20    4.42
   4  -9  -1   26.82    4.40
  -4   9   1   32.95    4.68
   4  -9   0    3.74    5.41
   4  -9   0    4.92    2.96
   4  -9   0    4.69    5.08
  -4   9   0    2.58    3.40
   4  -9   1    9.30    6.38
   4  -9   1    9.11    6.62
   4  -9   1    9.23    3.42
   4  -9   1    8.98    3.26
  -4   9  -1    7.85    3.92
  -4   9  -1   12.01    4.16
   4  -8 -10   12.66    6.56
   4  -8 -10   10.31    4.30
   4  -8 -10   10.66    4.24
  -4   8  10   11.43    3.80
   4  -8  -9   16.34    7.64
   4  -8  -9   27.42    4.51
   4  -8  -9   19.58    4.52
  -4   8   9   18.15    3.90
   4  -8  -8   -0.33    3.09
   4  -8  -8    3.22    2.92
   4  -8  -8   -0.42    2.61
   4  -8  -8    1.89    2.72
  -4   8   8    2.30    2.63
  -4   8   8   -0.25    2.68
   4  -8  -7    0.83    2.63
   4  -8  -7    1.86    4.07
   4  -8  -7   -0.75    2.62
   4  -8  -7    0.95    2.72
  -4   8   7    1.81    2.91
  -4   8   7    1.44    2.66
   4  -8  -6    9.60    2.34
   4  -8  -6    6.13    3.44
   4  -8  -6    5.12    3.32
   4  -8  -6    7.78    5.64
  -4   8   6    7.12    3.25
  -4   8   6    8.95    2.40
   4  -8  -5   -0.07    3.16
   4  -8  -5    1.47    2.54
   4  -8  -5   -0.22    2.51
   4  -8  -5    2.00    2.64
  -4   8   5   -1.53    2.29
  -4   8   5    0.08    1.83
   4  -8  -4   51.43    4.11
   4  -8  -4   58.99    5.15
   4  -8  -4   51.41    5.09
   4  -8  -4   50.55    4.66
  -4   8   4   53.07    4.68
  -4   8   4   51.89    3.98
   4  -8  -3    4.68    3.07
   4  -8  -3    9.56    3.12
   4  -8  -3    5.40    3.00
   4  -8  -3   -0.20    2.67
  -4   8   3    5.35    2.78
  -4   8   3    0.07    4.10
   4  -8  -2   -0.14    2.25
   4  -8  -2   -0.25    3.37
   4  -8  -2   -1.57    2.16
   4  -8  -2    2.67    3.30
  -4   8   2    0.81    2.25
  -4   8   2    0.02    2.16
   4  -8  -1    1.05    2.47
   4  -8  -1    0.58    2.42
   4  -8  -1    0.58    3.61
   4  -8  -1    1.12    2.59
  -4   8   1    0.38    1.71
  -4   8   1   -0.42    1.77
   4  -8   0   21.10    4.12
   4  -8   0   22.62    3.80
   4  -8   0   22.56    3.50
   4  -8   0   23.04    6.42
  -4   8   0   22.99    3.87
  -4   8   0   22.62    4.09
   4  -8   1   22.35    3.93
   4  -8   1   38.87    6.94
   4  -8   1   30.97    3.63
   4  -8   1   24.95    4.59
  -4   8  -1   33.40    6.68
  -4   8  -1   26.52    7.32
   4  -8   2    2.62    4.25
   4  -8   2    0.96    3.32
   4  -8   2    3.88    3.26
   4  -8   2    2.23    2.45
  -4   8  -2    2.85    3.03
  -4   8  -2    3.82    5.63
   4  -8   3  258.63   14.86
   4  -8   3  253.29    9.21
   4  -8   3  275.29   10.48
   4  -8   3  258.94    8.84
  -4   8  -3  265.38   10.37
  -4   8  -3  274.92   15.22
   4  -8   4    7.96    3.14
   4  -8   4    9.13    6.66
   4  -8   4    9.64    3.86
   4  -8   4    8.35    4.38
  -4   8  -4    9.74    3.86
  -4   8  -4   13.83    4.50
   4  -8   5    1.79    3.82
   4  -8   5    1.68    5.05
   4  -8   5    0.19    3.43
   4  -8   5    2.25    2.23
  -4   8  -5    0.42    2.82
  -4   8  -5    1.42    3.27
   4  -7 -12    2.17    5.57
   4  -7 -12    3.61    3.42
   4  -7 -12    2.84    3.24
   4  -7 -12    5.92    3.36
   4  -7 -11   14.42    6.51
   4  -7 -11   15.66    6.30
   4  -7 -11   14.42    3.98
  -4   7  11   14.29    3.90
   4  -7 -10    0.73    3.31
   4  -7 -10    5.69    2.95
   4  -7 -10    2.19    2.98
  -4   7  10    2.68    2.80
   4  -7  -9    0.85    2.77
   4  -7  -9    1.02    4.07
   4  -7  -9    0.32    4.06
  -4   7   9   -0.06    2.03
  -4   7   9    0.21    1.05
   4  -7  -8    2.96    2.74
   4  -7  -8    1.46    2.84
   4  -7  -8    3.43    2.99
   4  -7  -8    1.59    1.53
  -4   7   8    0.21    1.90
  -4   7   8   -0.55    2.06
   4  -7  -7   96.09    4.22
   4  -7  -7  104.13    9.29
   4  -7  -7  115.41    6.10
   4  -7  -7  114.57    6.27
  -4   7   7  101.72    5.65
  -4   7   7   98.60    4.09
   4  -7  -6   74.69    5.58
   4  -7  -6   81.89    5.07
   4  -7  -6   76.48    7.69
   4  -7  -6   71.61    5.31
  -4   7   6   90.10    5.00
  -4   7   6   76.65    5.50
   4  -7  -5   25.68    5.87
   4  -7  -5   24.51    2.80
   4  -7  -5   21.31    3.92
   4  -7  -5   22.46    3.70
  -4   7   5   22.74    3.31
  -4   7   5   22.61    4.12
   4  -7  -4   44.46    5.19
   4  -7  -4   45.87    6.60
   4  -7  -4   43.43    4.08
  -4   7   4   41.31    3.79
  -4   7   4   40.11    3.29
   4  -7  -3    0.44    1.64
   4  -7  -3   -0.57    1.93
   4  -7  -3    0.80    2.89
  -4   7   3    0.70    1.96
  -4   7   3    0.08    2.80
   4  -7  -2    0.14    2.03
   4  -7  -2    1.70    2.24
   4  -7  -2    1.58    2.14
   4  -7  -2    0.18    2.15
  -4   7   2    1.55    2.03
  -4   7   2    0.09    1.97
   4  -7  -1   29.01    5.67
   4  -7  -1   32.61    3.66
   4  -7  -1   26.55    3.50
   4  -7  -1   27.46    3.40
  -4   7   1   26.96    3.36
  -4   7   1   29.92    3.57
   4  -7   0   24.84    3.43
   4  -7   0   23.06    3.64
   4  -7   0   18.91    3.24
   4  -7   0   27.18    3.65
  -4   7   0   20.86    3.32
  -4   7   0   21.81    3.53
   4  -7   1  161.53    6.40
   4  -7   1  167.74    7.14
   4  -7   1  168.19    9.40
   4  -7   1  165.65    7.34
  -4   7  -1  166.71    6.60
  -4   7  -1  161.04   10.24
   4  -7   2    2.13    3.00
   4  -7   2    3.99    2.75
   4  -7   2    2.09    2.34
   4  -7   2    2.78    2.52
  -4   7  -2    1.30    2.34
  -4   7  -2   -1.30    4.22
   4  -7   3   53.33    5.20
   4  -7   3   53.59    4.78
   4  -7   3   59.06    6.46
   4  -7   3   54.80    4.10
  -4   7  -3   55.34    4.68
  -4   7  -3   63.98    8.07
   4  -7   4  129.32    7.08
   4  -7   4  137.74    6.84
   4  -7   4  126.64    5.50
   4  -7   4  134.76    5.81
  -4   7  -4  139.71    7.26
  -4   7  -4  134.58    9.18
   4  -7   5   43.43    8.05
   4  -7   5   48.27    4.73
   4  -7   5   43.17    3.50
   4  -7   5   41.25    3.80
  -4   7  -5   40.87    4.52
  -4   7  -5   50.52    5.19
   4  -7   6    2.02    3.14
   4  -7   6    1.72    2.76
   4  -7   6    2.08    3.16
   4  -7   6   -0.21    3.42
  -4   7  -6    0.09    2.45
  -4   7  -6   -1.42    2.82
   4  -7   7    3.74    3.25
   4  -7   7    7.84    3.84
   4  -7   7    5.58    2.36
   4  -7   7    4.65    3.73
  -4   7  -7    6.72    5.22
  -4   7  -7    4.11    3.62
   4  -7   8   13.27    3.94
   4  -7   8    6.40    6.53
   4  -7   8    8.71    2.68
   4  -7   8    9.74    2.60
  -4   7  -8   11.36    6.71
  -4   7  -8   10.88    3.77
   4  -6 -13    2.58    2.69
   4  -6 -13    0.76    2.67
   4  -6 -13   -1.23    2.68
  -4   6  13    0.52    2.49
   4  -6 -12    8.03    3.37
   4  -6 -12    9.59    5.29
   4  -6 -12    5.66    3.33
  -4   6  12    7.19    3.30
   4  -6 -11   16.43    6.03
   4  -6 -11   17.35    3.59
   4  -6 -11   14.82    3.66
  -4   6  11   13.05    3.45
   4  -6 -10    0.45    4.34
   4  -6 -10   -2.40    3.99
   4  -6 -10   -1.80    2.42
  -4   6  10   -0.03    1.79
   4  -6  -9   22.79    3.76
   4  -6  -9   17.62    1.67
   4  -6  -9   21.44    3.48
   4  -6  -9   21.37    3.50
  -4   6   9   16.49    2.41
  -4   6   9   18.04    3.20
   4  -6  -8  148.65    5.56
   4  -6  -8  156.08    6.44
   4  -6  -8  149.13    6.48
   4  -6  -8  148.97    6.81
  -4   6   8  155.84    6.11
  -4   6   8  135.84    5.20
   4  -6  -7  155.82    6.11
   4  -6  -7  155.88    6.79
   4  -6  -7  182.67    9.13
   4  -6  -7  168.21    9.21
  -4   6   7  149.27    4.50
  -4   6   7  166.97    6.12
   4  -6  -6   -0.46    1.27
   4  -6  -6   -0.07    1.87
   4  -6  -6    1.43    2.06
   4  -6  -6    1.20    1.93
  -4   6   6    2.55    3.14
  -4   6   6    0.64    1.34
   4  -6  -5  106.09    5.67
   4  -6  -5  110.89    7.71
   4  -6  -5  111.53    5.00
   4  -6  -5  100.36    7.41
  -4   6   5  105.60    6.63
  -4   6   5  100.64    3.92
   4  -6  -4    6.82    2.06
   4  -6  -4    6.95    2.75
   4  -6  -4    8.40    2.41
   4  -6  -4    7.57    2.55
  -4   6   4    7.16    3.08
  -4   6   4    6.46    2.30
   4  -6  -3   77.31    5.67
   4  -6  -3   75.01    4.66
   4  -6  -3   79.09    4.26
   4  -6  -3   81.80    4.41
  -4   6   3   81.73    4.06
  -4   6   3   78.96    3.83
   4  -6  -2    2.80    2.20
   4  -6  -2   -0.14    3.13
   4  -6  -2    0.60    3.33
   4  -6  -2    1.80    2.08
  -4   6   2    1.88    1.86
  -4   6   2    0.00    2.97
   4  -6  -1    8.97    2.69
   4  -6  -1    8.39    2.70
   4  -6  -1   12.80    4.06
   4  -6  -1    7.71    4.44
  -4   6   1    9.00    2.52
  -4   6   1    8.28    2.47
   4  -6   0  129.97    5.75
   4  -6   0  139.95    5.69
   4  -6   0  128.71    7.64
   4  -6   0  126.65    5.66
  -4   6   0  131.54    5.80
  -4   6   0  137.63    8.16
   4  -6   1  844.53   20.15
   4  -6   1  852.12   22.48
   4  -6   1  850.98   20.64
   4  -6   1  885.43   21.00
  -4   6  -1  864.53   23.15
  -4   6  -1  852.45   20.84
   4  -6   2  225.10   10.27
   4  -6   2  207.50    9.22
   4  -6   2  206.22    9.58
   4  -6   2  204.47   10.80
  -4   6  -2  208.98    8.04
  -4   6  -2  388.48   12.42
   4  -6   3    3.59    2.79
   4  -6   3    3.01    2.25
   4  -6   3    4.84    2.42
   4  -6   3    4.82    2.12
  -4   6  -3    1.14    3.73
  -4   6  -3    3.32    2.61
   4  -6   4   10.71    3.21
   4  -6   4    8.96    3.91
   4  -6   4    9.52    2.85
   4  -6   4    9.77    2.31
  -4   6  -4    8.66    4.11
  -4   6  -4    6.97    3.13
   4  -6   5   39.58    3.89
   4  -6   5   36.91    3.08
   4  -6   5   33.73    4.30
   4  -6   5   34.81    3.29
  -4   6  -5   36.60    3.76
  -4   6  -5   42.99    4.43
   4  -6   6   57.02    7.44
   4  -6   6   52.21    4.34
   4  -6   6   50.66    5.21
   4  -6   6   48.21    3.57
  -4   6  -6   51.98    4.24
  -4   6  -6   53.44    4.91
   4  -6   7    0.59    2.98
   4  -6   7    0.09    2.72
   4  -6   7    1.79    2.38
   4  -6   7    1.80    1.77
  -4   6  -7    1.69    3.73
  -4   6  -7    0.81    2.75
   4  -6   8    0.18    2.04
   4  -6   8    5.02    2.83
   4  -6   8    2.89    2.01
   4  -6   8    3.49    3.07
  -4   6  -8    4.36    2.84
  -4   6  -8    6.51    5.22
   4  -6   9    3.13    2.04
   4  -6   9    0.03    2.86
   4  -6   9    3.87    3.17
   4  -6   9    1.57    3.05
  -4   6  -9    0.12    3.52
  -4   6  -9    0.28    2.43
   4  -6  10    3.85    1.93
   4  -6  10   -0.29    3.01
   4  -6  10    1.36    3.06
   4  -6  10    0.73    2.07
  -4   6 -10   -0.01    2.48
  -4   6 -10   -0.73    2.61
   4  -5 -14    3.46    5.06
   4  -5 -14    3.39    4.53
   4  -5 -14    1.73    3.13
  -4   5  14   -0.06    1.91
   4  -5 -13   35.49    6.46
   4  -5 -13   38.31    6.92
   4  -5 -13   30.32    4.45
  -4   5  13   28.27    3.86
   4  -5 -12    0.01    4.35
   4  -5 -12    3.72    2.82
   4  -5 -12    4.76    2.82
  -4   5  12    0.06    1.84
   4  -5 -11   21.43    5.57
   4  -5 -11   18.93    3.49
   4  -5 -11   19.18    3.47
  -4   5  11   15.28    3.23
   4  -5 -10   67.87    7.27
   4  -5 -10   70.72    4.63
   4  -5 -10   72.66    4.76
  -4   5  10   70.14    4.58
   4  -5  -9   15.72    4.88
   4  -5  -9   12.35    1.97
   4  -5  -9   13.39    2.84
  -4   5   9    3.74    2.79
  -4   5   9   14.77    2.66
  -4   5   9   12.23    1.16
   4  -5  -8    0.50    1.02
   4  -5  -8    4.48    2.02
   4  -5  -8    1.35    2.01
   4  -5  -8    2.40    3.51
  -4   5   8    0.84    1.20
  -4   5   8   -1.12    1.54
   4  -5  -7  117.75    3.53
   4  -5  -7  126.32    5.02
   4  -5  -7  116.87    5.35
   4  -5  -7  114.53    5.05
  -4   5   7  113.33    3.36
  -4   5   7  114.26    6.48
   4  -5  -6   10.35    1.70
   4  -5  -6   14.13    2.45
   4  -5  -6    9.27    2.84
   4  -5  -6   15.83    2.61
  -4   5   6    9.85    2.45
  -4   5   6   12.05    3.61
   4  -5  -5    1.51    2.27
   4  -5  -5    3.65    2.11
   4  -5  -5    1.02    1.86
   4  -5  -5    2.51    1.95
  -4   5   5    1.51    1.77
  -4   5   5    3.88    2.15
   4  -5  -4   32.91    3.51
   4  -5  -4   37.08    3.05
   4  -5  -4   43.03    2.65
   4  -5  -4   40.53    3.32
  -4   5   4   38.89    3.73
  -4   5   4   40.71    2.83
   4  -5  -3  232.20    7.29
   4  -5  -3  241.16    6.59
   4  -5  -3  243.69    6.86
   4  -5  -3  229.76    7.04
  -4   5   3  221.62    8.31
  -4   5   3  221.39    6.14
   4  -5  -2  736.46   18.45
   4  -5  -2  740.88   16.24
   4  -5  -2  718.56   16.68
   4  -5  -2  718.60   18.46
  -4   5   2  697.52   15.44
  -4   5   2  712.54   15.73
   4  -5  -1  590.14   16.01
   4  -5  -1  608.32   13.78
   4  -5  -1  591.50   14.04
   4  -5  -1  587.93   13.56
  -4   5   1  575.70   13.02
  -4   5   1  574.93   13.31
   4  -5   0   44.67    5.52
   4  -5   0   48.05    3.35
   4  -5   0   49.11    3.47
   4  -5   0   47.76    5.43
  -4   5   0   50.45    5.37
  -4   5   0   54.61    4.98
   4  -5   1    7.56    2.34
   4  -5   1    8.56    2.56
   4  -5   1    7.49    2.37
   4  -5   1    9.80    3.58
  -4   5  -1    8.17    2.53
  -4   5  -1    9.32    2.08
   4  -5   2    0.91    2.69
   4  -5   2    1.77    2.07
   4  -5   2    2.87    1.75
   4  -5   2    0.30    1.83
  -4   5  -2   -0.47    1.92
  -4   5  -2    2.15    1.58
   4  -5   3   18.31    3.14
   4  -5   3   21.98    2.59
   4  -5   3   20.84    2.51
   4  -5   3   13.06    3.88
  -4   5  -3   15.51    3.01
  -4   5  -3   16.94    2.35
   4  -5   4   68.22    3.65
   4  -5   4   67.13    4.42
   4  -5   4   68.11    3.84
   4  -5   4   61.86    3.59
  -4   5  -4   63.03    3.72
  -4   5  -4   70.72    4.38
   4  -5   5  150.94    5.64
   4  -5   5  138.63    5.06
   4  -5   5  141.79    6.14
   4  -5   5  146.61    4.97
  -4   5  -5  138.48    5.37
  -4   5  -5  143.65    6.16
   4  -5   6   31.71    3.31
   4  -5   6   32.10    3.80
   4  -5   6   31.47    4.19
   4  -5   6   28.12    2.80
  -4   5  -6   33.94    3.67
  -4   5  -6   27.71    3.12
   4  -5   7   12.04    2.53
   4  -5   7   11.85    4.80
   4  -5   7    8.20    2.14
   4  -5   7    0.62    2.08
  -4   5  -7   10.39    4.36
  -4   5  -7   11.35    4.99
   4  -5   8    7.56    3.10
   4  -5   8    9.60    4.59
   4  -5   8    7.83    2.17
  -4   5  -8    8.29    2.73
  -4   5  -8    6.07    2.12
  -4   5  -8    7.69    2.96
   4  -5   9    9.54    4.90
   4  -5   9    8.92    3.61
   4  -5   9   11.37    5.21
  -4   5  -9    8.17    2.90
  -4   5  -9    8.07    3.19
  -4   5  -9    7.56    2.16
   4  -5  10    4.25    2.02
   4  -5  10    5.02    4.54
   4  -5  10    1.02    2.87
  -4   5 -10    2.46    2.87
  -4   5 -10    5.35    2.04
  -4   5 -10    6.84    4.83
   4  -5  11    7.15    2.31
   4  -5  11    6.81    5.39
   4  -5  11    3.30    5.27
  -4   5 -11    6.76    5.13
  -4   5 -11    5.73    2.20
  -4   5 -11    8.51    3.30
   4  -5  12   39.19    7.34
   4  -5  12   33.72    4.58
   4  -5  12   36.15    5.11
  -4   5 -12   30.11    4.83
  -4   5 -12   29.71    3.13
  -4   5 -12   36.07    4.52
   4  -4 -15    7.65    3.59
   4  -4 -15    8.13    3.11
   4  -4 -15    7.13    3.70
  -4   4  15   -0.12    1.88
   4  -4 -14    0.26    2.69
   4  -4 -14    1.77    2.28
   4  -4 -14    0.59    2.70
  -4   4  14   -0.04    1.67
   4  -4 -13    3.80    2.60
   4  -4 -13    5.13    2.94
   4  -4 -13    3.70    2.95
  -4   4  13   -0.06    1.67
   4  -4 -12   79.44    4.92
   4  -4 -12   63.95    4.47
   4  -4 -12   68.63    4.89
  -4   4  12   67.18    4.28
   4  -4 -11   22.85    3.22
   4  -4 -11   27.79    5.25
   4  -4 -11   21.21    3.37
  -4   4  11   25.47    3.15
   4  -4 -10   62.53    6.18
   4  -4 -10   64.78    4.12
   4  -4 -10   68.43    4.18
  -4   4  10   59.28    3.87
   4  -4  -9  122.58    3.40
   4  -4  -9  119.93    3.23
   4  -4  -9  130.33    7.08
   4  -4  -9  125.18    7.30
   4  -4  -9  134.43    5.26
  -4   4   9  128.18    5.10
   4  -4  -8   89.04    4.15
   4  -4  -8   87.94    2.47
   4  -4  -8   91.65    6.30
  -4   4   8   92.75    3.98
  -4   4   8   85.39    3.07
   4  -4  -7    0.48    1.19
   4  -4  -7    0.25    1.30
   4  -4  -7   -0.63    1.25
   4  -4  -7   -0.95    2.37
  -4   4   7   -0.05    1.32
  -4   4   7   -0.27    0.74
   4  -4  -6   24.59    4.02
   4  -4  -6   22.39    1.72
   4  -4  -6   19.72    2.87
   4  -4  -6   20.62    2.43
  -4   4   6   19.76    3.63
   4  -4  -5  230.07    5.51
   4  -4  -5  220.70    6.80
   4  -4  -5  229.66    6.44
   4  -4  -5  218.74    6.58
  -4   4   5  228.40    6.30
  -4   4   5  225.16    5.39
   4  -4  -4  611.99   12.63
   4  -4  -4  601.53   13.85
   4  -4  -4  611.24   13.18
   4  -4  -4  598.89   13.41
  -4   4   4  580.68   12.02
  -4   4   4  586.03   12.52
   4  -4  -3   68.16    4.53
   4  -4  -3   63.74    4.81
   4  -4  -3   52.59    5.40
   4  -4  -3   58.56    3.85
  -4   4   3   63.77    3.04
  -4   4   3   56.30    2.94
   4  -4  -2   17.10    3.48
   4  -4  -2   12.36    2.04
   4  -4  -2    2.94    2.51
   4  -4  -2    2.01    3.73
  -4   4   2    3.92    2.91
  -4   4   2    4.74    1.71
   4  -4  -1  420.39   11.57
   4  -4  -1  400.61    9.68
   4  -4  -1  416.91   10.96
   4  -4  -1  410.40    9.46
  -4   4   1  394.59    8.79
  -4   4   1  393.28    9.09
   4  -4   0  199.92    7.74
   4  -4   0  206.09    5.47
   4  -4   0  197.40    5.69
   4  -4   0  204.56    5.95
  -4   4   0  192.94    6.47
  -4   4   0  192.68    7.34
   4  -4   1   21.26    2.73
   4  -4   1   22.68    2.51
   4  -4   1   21.68    3.64
   4  -4   1   23.76    2.25
  -4   4  -1   21.14    2.09
  -4   4  -1   24.88    2.58
   4  -4   2   62.11    3.63
   4  -4   2   59.51    4.54
   4  -4   2   65.51    4.67
   4  -4   2   67.22    5.00
  -4   4  -2   66.15    3.59
  -4   4  -2   61.43    4.29
   4  -4   3  446.57   10.42
   4  -4   3  442.93   10.85
   4  -4   3  458.85   10.25
   4  -4   3  449.00   10.14
  -4   4  -3  427.48    9.70
  -4   4  -3  445.56   10.78
   4  -4   4  160.98    7.89
   4  -4   4  159.13    6.69
   4  -4   4  157.86    4.92
  -4   4  -4  168.15    4.97
  -4   4  -4  157.88    4.92
  -4   4  -4  161.30    5.71
   4  -4   5  158.66    6.00
   4  -4   5  167.12    5.37
   4  -4   5  167.22    6.74
  -4   4  -5  162.33    5.10
  -4   4  -5  166.38    5.11
  -4   4  -5  165.32    5.87
   4  -4   6  104.51    5.97
   4  -4   6   94.45    3.84
   4  -4   6   87.75    6.94
  -4   4  -6   91.61    4.64
  -4   4  -6   90.12    4.05
  -4   4  -6   96.61    3.92
   4  -4   7   20.32    2.71
   4  -4   7   21.59    2.45
   4  -4   7   22.10    3.23
  -4   4  -7   15.08    2.53
  -4   4  -7   25.02    3.64
  -4   4  -7   17.64    3.04
   4  -4   8   42.66    5.86
   4  -4   8   40.27    3.42
   4  -4   8   38.20    4.37
  -4   4  -8   36.12    5.13
  -4   4  -8   41.31    2.89
  -4   4  -8   40.07    3.80
   4  -4   9   32.40    2.89
   4  -4   9   37.70    3.59
   4  -4   9   32.16    3.75
  -4   4  -9   36.23    3.63
  -4   4  -9   33.88    2.94
  -4   4  -9   31.93    5.75
   4  -4  10   74.86    3.95
   4  -4  10   87.55    4.96
   4  -4  10   75.25    7.15
  -4   4 -10   83.90    7.20
  -4   4 -10   80.45    5.71
  -4   4 -10   81.72    4.96
   4  -4  11   -1.49    1.90
   4  -4  11    0.47    1.57
   4  -4  11    0.52    1.53
  -4   4 -11    0.67    2.20
  -4   4 -11    1.51    2.22
  -4   4 -11   -0.74    2.63
   4  -4  12   93.75    5.71
   4  -4  12   85.61    5.36
   4  -4  12   91.35    6.47
  -4   4 -12   87.86    5.62
  -4   4 -12   84.68    6.17
  -4   4 -12   93.51    5.52
   4  -4  13    3.31    2.91
   4  -4  13   -0.72    4.29
   4  -4  13    2.42    2.07
  -4   4 -13    0.87    2.65
  -4   4 -13    4.01    2.99
  -4   4 -13   -0.44    2.46
   4  -3 -15   10.67    3.72
   4  -3 -15   11.58    2.84
   4  -3 -15    9.37    3.69
  -4   3  15   -0.09    1.65
   4  -3 -14   -0.24    2.27
   4  -3 -14   -0.78    2.94
   4  -3 -14    1.60    2.29
  -4   3  14    0.03    1.46
   4  -3 -13    0.14    3.45
   4  -3 -13   -0.42    2.68
   4  -3 -13    1.47    3.39
  -4   3  13   -0.05    1.46
   4  -3 -12   10.90    5.04
   4  -3 -12   17.32    4.85
   4  -3 -12   14.71    2.65
  -4   3  12   14.89    2.51
   4  -3 -11   24.97    2.80
   4  -3 -11   22.20    3.09
   4  -3 -11   20.03    3.15
  -4   3  11   22.77    2.70
   4  -3 -10   31.79    2.90
   4  -3 -10   25.12    0.64
   4  -3 -10   24.35    0.91
   4  -3 -10   26.90    2.99
   4  -3 -10   30.19    3.08
  -4   3  10   26.07    2.74
   4  -3  -9   84.98    4.23
   4  -3  -9   84.04    2.44
   4  -3  -9  101.60    6.23
   4  -3  -9   88.28    2.56
   4  -3  -9   87.17    4.33
  -4   3   9   82.18    4.05
   4  -3  -8   37.68    2.02
   4  -3  -8   37.77    2.85
   4  -3  -8   33.65    1.31
   4  -3  -8   36.18    2.82
   4  -3  -8   32.19    4.44
  -4   3   8    4.79    1.93
   4  -3  -7  106.10    3.64
   4  -3  -7   99.30    4.33
   4  -3  -7   79.55    4.56
   4  -3  -7   99.77    4.22
  -4   3   7   63.33    2.05
   4  -3  -6  783.15   14.94
   4  -3  -6  754.59   17.09
   4  -3  -6  809.42   17.22
   4  -3  -6  787.57   19.16
  -4   3   6  763.53   16.40
  -4   3   6  742.02   15.30
   4  -3  -5 1235.61   24.84
   4  -3  -5 1213.22   25.37
   4  -3  -5 1241.90   24.87
   4  -3  -5 1196.27   24.72
  -4   3   5 1173.72   23.48
  -4   3   5 1162.48   23.43
   4  -3  -4  942.05   18.15
   4  -3  -4  940.95   18.78
   4  -3  -4  934.31   19.03
   4  -3  -4  918.20   21.31
  -4   3   4  891.33   17.75
  -4   3   4  920.67   17.56
   4  -3  -3 1051.05   20.29
   4  -3  -3 1061.50   21.90
   4  -3  -3 1026.53   20.88
   4  -3  -3 1050.15   22.53
  -4   3   3 1009.79   20.84
  -4   3   3 1022.06   19.74
   4  -3  -2  285.86    6.51
   4  -3  -2  287.17    7.10
   4  -3  -2  288.44    6.30
   4  -3  -2  286.36    8.25
  -4   3   2  281.74    6.37
  -4   3   2  276.37    6.05
   4  -3  -1   12.13    1.79
   4  -3  -1    7.12    1.44
   4  -3  -1    7.53    2.87
   4  -3  -1   11.82    1.95
  -4   3   1    9.86    1.40
  -4   3   1    6.17    1.72
   4  -3   0    7.04    1.71
   4  -3   0    6.47    1.77
   4  -3   0    7.11    1.34
   4  -3   0    5.13    1.68
  -4   3   0    4.30    1.22
  -4   3   0    4.62    1.54
   4  -3   1  327.88    7.72
   4  -3   1  344.62    7.16
   4  -3   1  336.18    7.63
   4  -3   1  333.84    9.74
  -4   3  -1  331.80    7.67
  -4   3  -1  326.30    6.83
   4  -3   2  743.78   15.65
   4  -3   2  772.21   15.17
   4  -3   2  760.23   15.40
  -4   3  -2  744.41   15.43
  -4   3  -2  727.17   14.10
  -4   3  -2  765.59   15.41
   4  -3   3   85.73    3.74
   4  -3   3   88.26    3.05
   4  -3   3   84.24    3.27
  -4   3  -3   79.81    4.00
  -4   3  -3   84.17    3.28
  -4   3  -3   89.58    3.73
   4  -3   4   -0.44    2.35
   4  -3   4    0.89    1.07
   4  -3   4   -0.72    1.17
  -4   3  -4    0.97    1.65
  -4   3  -4    1.28    1.18
  -4   3  -4   -0.10    1.37
   4  -3   5   63.13    4.09
   4  -3   5   60.34    3.52
   4  -3   5   62.77    2.99
  -4   3  -5   56.04    2.71
  -4   3  -5   59.66    2.78
  -4   3  -5   60.78    5.12
   4  -3   6   41.37    4.85
   4  -3   6   38.83    2.56
   4  -3   6   44.53    3.90
  -4   3  -6   38.77    3.04
  -4   3  -6   42.09    2.53
  -4   3  -6   38.50    2.51
   4  -3   7   22.22    2.36
   4  -3   7   20.74    2.28
   4  -3   7   19.63    2.76
  -4   3  -7   24.14    2.27
  -4   3  -7   19.40    2.21
  -4   3  -7   22.78    2.75
   4  -3   8  285.14    8.16
   4  -3   8  285.38    9.46
   4  -3   8  272.62    7.23
  -4   3  -8  275.60    7.39
  -4   3  -8  280.75    7.32
  -4   3  -8  285.24    8.08
   4  -3   9    3.10    2.02
   4  -3   9    0.62    3.49
   4  -3   9    1.38    1.80
  -4   3  -9   -0.26    2.79
  -4   3  -9    0.60    1.93
  -4   3  -9    1.57    2.53
   4  -3  10  367.55   11.87
   4  -3  10  385.22   10.33
   4  -3  10  360.10   10.48
  -4   3 -10  376.03   11.73
  -4   3 -10  369.17   10.24
  -4   3 -10  365.48   10.12
   4  -3  11  372.35   10.46
   4  -3  11  350.28   10.32
   4  -3  11  356.13    9.67
  -4   3 -11  362.89   10.48
  -4   3 -11  370.66    9.83
  -4   3 -11  367.48   10.57
   4  -3  12  166.36    9.29
   4  -3  12  157.66    5.88
   4  -3  12  156.19    8.80
  -4   3 -12  160.71    8.89
  -4   3 -12  159.11    5.77
  -4   3 -12  165.68    9.40
   4  -3  13   19.03    5.81
   4  -3  13   15.04    5.08
   4  -3  13   20.81    2.93
  -4   3 -13   19.23    5.94
  -4   3 -13   19.05    4.49
  -4   3 -13   25.31    3.37
   4  -3  14   22.74    4.03
   4  -3  14   19.13    3.36
   4  -3  14   22.78    4.82
  -4   3 -14   24.04    4.60
  -4   3 -14   18.05    3.98
  -4   3 -14   21.01    5.29
   4  -2 -15   11.32    3.69
   4  -2 -15   11.23    2.51
   4  -2 -15    9.76    3.59
  -4   2  15    0.05    1.41
   4  -2 -14    2.38    3.92
   4  -2 -14    0.15    1.71
   4  -2 -14    1.28    2.35
  -4   2  14    0.00    1.10
   4  -2 -13   25.75    3.59
   4  -2 -13   22.05    4.23
   4  -2 -13   22.67    3.49
  -4   2  13   15.38    2.38
   4  -2 -12   21.47    3.09
   4  -2 -12   15.63    2.31
   4  -2 -12   19.63    3.04
  -4   2  12   14.54    2.19
   4  -2 -11  122.78    5.23
   4  -2 -11  120.63    5.07
   4  -2 -11  115.18    4.48
  -4   2  11  114.56    4.28
   4  -2 -10    5.97    3.57
   4  -2 -10    7.13    0.42
   4  -2 -10    4.61    2.95
   4  -2 -10    5.91    0.40
   4  -2 -10    4.93    2.13
  -4   2  10    7.37    1.83
   4  -2  -9   48.85    2.98
   4  -2  -9   48.48    1.33
   4  -2  -9   50.65    1.31
   4  -2  -9   52.41    4.81
   4  -2  -9   48.09    4.96
  -4   2   9   48.96    2.87
   4  -2  -8  110.85    3.53
   4  -2  -8  118.44    3.47
   4  -2  -8  142.90    5.07
   4  -2  -8  102.72    4.13
   4  -2  -8  118.81    4.62
   4  -2  -8  100.93    4.49
   4  -2  -7 2649.76   51.15
   4  -2  -7 2565.23   56.16
   4  -2  -7 2614.29   50.19
   4  -2  -7 2525.05   55.10
   4  -2  -7 2610.70   56.57
   4  -2  -7 2527.48   52.26
   4  -2  -6 1019.45   18.29
   4  -2  -6  987.70   18.06
   4  -2  -6  980.76   20.74
   4  -2  -6  982.92   19.83
   4  -2  -6  985.35   19.88
   4  -2  -6  981.46   22.43
   4  -2  -5  297.63    5.93
   4  -2  -5  303.79    7.95
   4  -2  -5  266.18    6.79
   4  -2  -5  273.67    8.70
  -4   2   5  280.14    6.19
  -4   2   5  290.65    5.72
   4  -2  -4    1.18    1.22
   4  -2  -4   -0.57    0.87
  -4   2   4   -2.82    1.66
  -4   2   4   -0.07    0.91
   4  -2  -3   51.87    3.01
   4  -2  -3   40.81    3.68
   4  -2  -3   46.60    1.89
   4  -2  -3   44.44    2.25
  -4   2   3   47.16    1.87
  -4   2   3   46.48    2.82
   4  -2  -2   25.18    1.69
   4  -2  -2   23.67    1.42
   4  -2  -2   24.71    1.77
   4  -2  -2   23.15    1.92
  -4   2   2   21.34    1.32
  -4   2   2   22.95    2.48
   4  -2  -1  492.96   11.72
   4  -2  -1  506.84   10.62
   4  -2  -1  494.01    9.95
   4  -2  -1  499.48   10.03
  -4   2   1  486.69   11.05
  -4   2   1  507.83   10.54
   4  -2   0 2349.49   46.49
   4  -2   0 2421.92   46.46
   4  -2   0 2558.67   50.21
  -4   2   0 2244.89   42.75
  -4   2   0 2308.98   45.24
  -4   2   0 2304.57   45.13
   4  -2   1 4349.71   90.78
   4  -2   1 4456.39   90.32
   4  -2   1 4522.85   95.90
  -4   2  -1 4340.87   90.14
  -4   2  -1 4036.13   83.35
  -4   2  -1 4307.96   88.55
   4  -2   2 1738.53   34.07
   4  -2   2 1722.60   33.38
   4  -2   2 1786.10   32.91
  -4   2  -2 1692.14   31.12
  -4   2  -2 1721.57   33.42
  -4   2  -2 1691.17   32.61
   4  -2   3   18.44    2.19
   4  -2   3   20.62    2.34
   4  -2   3   21.99    2.02
  -4   2  -3   14.45    1.34
  -4   2  -3   19.40    1.83
  -4   2  -3   13.14    2.05
   4  -2   4   54.04    2.93
   4  -2   4   47.31    2.14
   4  -2   4   53.18    2.60
  -4   2  -4   49.46    2.20
  -4   2  -4   70.15    2.79
  -4   2  -4   59.91    3.04
   4  -2   5   58.72    3.13
   4  -2   5   65.97    3.67
   4  -2   5   59.46    2.79
  -4   2  -5   63.19    3.52
  -4   2  -5   61.52    2.78
  -4   2  -5   65.15    3.19
   4  -2   6  289.65    9.14
   4  -2   6  290.86    6.46
   4  -2   6  277.84    6.65
  -4   2  -6  294.10    7.28
  -4   2  -6  270.91    6.15
  -4   2  -6  287.54    8.10
   4  -2   7   90.99    4.68
   4  -2   7   93.43    5.06
   4  -2   7   87.31    3.89
  -4   2  -7   87.30    3.25
  -4   2  -7   92.45    3.48
  -4   2  -7   90.83    3.82
   4  -2   8    0.48    1.37
   4  -2   8   -0.26    1.15
   4  -2   8   -0.32    1.22
  -4   2  -8    0.12    1.11
  -4   2  -8   -0.44    1.29
  -4   2  -8    0.21    1.72
   4  -2   9  103.08    4.04
   4  -2   9   97.15    3.98
   4  -2   9   92.03    4.12
  -4   2  -9   97.49    3.87
  -4   2  -9  102.23    5.44
  -4   2  -9  105.26    5.97
   4  -2  10  433.98   10.88
   4  -2  10  450.52   11.08
   4  -2  10  439.63   13.31
  -4   2 -10  429.68   12.69
  -4   2 -10  458.69   11.30
  -4   2 -10  435.61   10.66
   4  -2  11  105.86    4.66
   4  -2  11  100.54    4.65
   4  -2  11   98.69    6.34
  -4   2 -11  107.88    4.68
  -4   2 -11  105.32    4.37
  -4   2 -11  100.05    4.64
   4  -2  12   61.44    6.16
   4  -2  12   59.31    3.87
   4  -2  12   63.08    5.54
  -4   2 -12   54.72    3.92
  -4   2 -12   57.78    3.56
  -4   2 -12   60.55    5.64
   4  -2  13    3.13    3.82
   4  -2  13    1.34    2.06
   4  -2  13    2.83    2.05
  -4   2 -13    2.07    2.24
  -4   2 -13   -0.21    1.89
  -4   2 -13    3.57    1.98
   4  -2  14   19.68    3.01
   4  -2  14   26.34    3.12
   4  -2  14   20.59    3.71
  -4   2 -14   19.71    3.59
  -4   2 -14   22.19    2.98
  -4   2 -14   23.27    4.47
   4  -2  15    0.66    1.75
   4  -2  15    0.23    1.87
   4  -2  15   -0.18    2.22
  -4   2 -15   -1.11    2.36
  -4   2 -15    0.68    3.01
  -4   2 -15   -0.81    1.76
   4  -1 -15   79.29    5.88
   4  -1 -14   14.33    3.74
   4  -1 -14   14.02    5.57
   4  -1 -14   10.66    3.46
   4  -1 -14   19.33    2.10
   4  -1 -13    2.06    3.35
   4  -1 -13    0.18    1.30
   4  -1 -13   -0.04    2.00
  -4   1  13   -0.78    1.32
   4  -1 -12    2.76    2.28
   4  -1 -12    1.79    1.52
   4  -1 -12    2.84    2.19
  -4   1  12   -0.44    1.19
   4  -1 -11   95.54    4.59
   4  -1 -11   91.51    3.42
   4  -1 -11   96.54    4.49
  -4   1  11    1.60    1.36
   4  -1 -10  285.37    4.76
   4  -1 -10  293.94   10.30
   4  -1 -10  284.62    4.73
   4  -1 -10  283.18    6.86
   4  -1 -10  296.84    7.95
   4  -1  -9  181.92    5.93
   4  -1  -9  179.48    5.00
   4  -1  -9  188.40    4.07
   4  -1  -9  182.76    7.82
   4  -1  -9  186.34    4.94
   4  -1  -9  187.25    4.16
   4  -1  -8 1431.85   30.59
   4  -1  -8 1428.21   31.56
   4  -1  -8 1446.33   25.99
   4  -1  -8 1451.39   30.11
   4  -1  -8 1436.76   29.29
   4  -1  -8 1437.47   27.02
   4  -1  -7  507.65    9.85
   4  -1  -7  511.50   11.08
   4  -1  -7  504.27   10.65
   4  -1  -7  503.16   10.19
   4  -1  -7  522.98    9.31
   4  -1  -7  505.22   11.13
   4  -1  -6  106.29    2.51
   4  -1  -6  106.65    3.31
   4  -1  -6  112.76    3.50
   4  -1  -6  109.22    3.41
   4  -1  -6  107.90    3.10
   4  -1  -6  104.21    3.43
   4  -1  -5   51.54    2.59
   4  -1  -5   47.64    2.13
   4  -1  -5   47.72    2.37
   4  -1  -5   46.72    3.37
   4  -1  -5   46.56    2.99
   4  -1  -5   46.65    2.11
   4  -1  -4   51.82    2.84
   4  -1  -4   55.26    1.79
   4  -1  -4   53.59    1.97
   4  -1  -4   58.29    2.14
   4  -1  -4   57.14    3.38
   4  -1  -4   57.03    2.73
   4  -1  -3    2.30    1.09
   4  -1  -3    1.24    1.26
   4  -1  -3    1.69    0.99
   4  -1  -3    2.28    0.93
  -4   1   3    2.57    0.79
  -4   1   3    1.66    0.95
   4  -1  -2   25.23    1.72
   4  -1  -2   21.54    1.74
   4  -1  -2   18.89    1.62
   4  -1  -2   19.14    1.58
  -4   1   2   22.35    1.15
  -4   1   2   24.33    2.35
   4  -1  -1 1296.56   22.59
   4  -1  -1 1298.78   25.49
   4  -1  -1 1309.44   24.33
  -4   1   1 1208.75   21.94
  -4   1   1 1259.17   23.01
  -4   1   1 1278.40   24.82
   4  -1   0 1442.85   27.13
   4  -1   0 1470.89   26.22
   4  -1   0 1430.71   28.04
  -4   1   0 1348.25   23.18
  -4   1   0 1434.01   27.82
  -4   1   0 1439.70   28.04
   4  -1   1 5604.34  113.85
   4  -1   1 5465.73  114.44
   4  -1   1 5411.54  116.03
  -4   1  -1 5448.49  115.93
  -4   1  -1 5407.46  109.10
  -4   1  -1 5351.97  111.66
   4  -1   2  675.55   13.02
   4  -1   2  686.62   13.05
   4  -1   2  696.31   11.54
  -4   1  -2  676.48   12.96
  -4   1  -2  664.22   10.99
  -4   1  -2  660.25   12.45
   4  -1   3    0.89    0.63
   4  -1   3    1.10    1.10
   4  -1   3    1.39    1.22
  -4   1  -3    0.26    1.92
  -4   1  -3    1.88    0.61
  -4   1  -3   -1.16    1.16
   4  -1   4  242.32    7.24
   4  -1   4  251.14    5.51
   4  -1   4  239.86    5.61
  -4   1  -4  232.17    4.43
  -4   1  -4  232.47    5.35
  -4   1  -4  238.81    5.70
   4  -1   5  181.55    5.42
   4  -1   5  215.14    5.61
  -4   1  -5  203.51    5.51
  -4   1  -5  179.02    4.25
   4  -1   6  613.64   12.61
   4  -1   6  635.19   11.80
   4  -1   6  613.29   14.15
  -4   1  -6  609.05   12.39
  -4   1  -6  613.02   12.32
  -4   1  -6  633.31   12.82
   4  -1   7   17.89    1.60
   4  -1   7    9.92    1.97
   4  -1   7   12.69    2.04
  -4   1  -7   13.12    2.01
  -4   1  -7   15.18    2.45
  -4   1  -7   16.93    1.93
   4  -1   8   52.17    3.04
   4  -1   8   56.47    3.79
   4  -1   8   53.15    3.02
  -4   1  -8   47.75    3.67
  -4   1  -8   53.91    4.22
  -4   1  -8   54.37    2.98
   4  -1   9    4.89    1.85
   4  -1   9    4.19    2.52
   4  -1   9    4.80    1.75
  -4   1  -9    4.21    1.52
  -4   1  -9    4.43    1.68
  -4   1  -9    4.37    1.74
   4  -1  10   15.04    1.98
   4  -1  10    7.38    2.05
   4  -1  10    4.09    2.17
  -4   1 -10    5.78    2.00
  -4   1 -10    5.85    2.91
  -4   1 -10    8.01    1.95
   4  -1  11   96.52    4.23
   4  -1  11   93.96    5.65
   4  -1  11   91.38    4.34
  -4   1 -11   98.16    5.56
  -4   1 -11   88.96    5.81
  -4   1 -11   95.46    4.20
   4  -1  12  106.37    4.75
   4  -1  12  107.38    6.17
   4  -1  12  114.21    4.76
  -4   1 -12   98.28    4.55
  -4   1 -12  108.20    4.62
  -4   1 -12  109.12    4.19
   4  -1  13    0.24    1.52
   4  -1  13    2.17    2.80
   4  -1  13   -0.43    2.96
  -4   1 -13    1.89    2.69
  -4   1 -13    2.05    2.01
  -4   1 -13    1.83    1.91
   4  -1  14    3.08    1.89
   4  -1  14    4.62    3.45
   4  -1  14   -0.16    2.37
  -4   1 -14    4.43    1.82
  -4   1 -14    3.35    2.36
  -4   1 -14    0.07    2.08
   4  -1  15   -1.01    1.49
   4  -1  15   -0.07    2.86
   4  -1  15    1.23    1.97
  -4   1 -15    1.03    2.28
  -4   1 -15   -0.15    3.17
  -4   1 -15    1.24    1.59
   4  -1  16   49.43    3.57
   4  -1  16   57.35    6.52
   4  -1  16   59.54    7.22
  -4   1 -16   49.56    7.23
  -4   1 -16   48.86    4.86
  -4   1 -16   53.52    4.08
   4   0 -15    0.83    4.43
   4   0 -15    0.83    2.58
   4   0 -14    0.03    2.27
   4   0 -14    0.57    2.16
   4   0 -13   20.91    3.55
   4   0 -13   22.74    3.45
   4   0 -12    7.42    2.69
   4   0 -12    6.60    1.46
   4   0 -12    6.63    4.11
   4   0 -12    6.25    2.21
   4   0 -11   24.75    3.35
   4   0 -11   28.31    2.92
   4   0 -11   38.43    4.89
   4   0 -11   30.22    2.75
   4   0 -11   26.47    1.13
   4   0 -11   27.27    1.66
   4   0 -10  224.87    7.26
   4   0 -10  217.01    6.73
   4   0 -10  214.10    4.27
   4   0 -10  217.22    5.15
   4   0 -10  223.49    7.07
   4   0 -10  217.92    5.19
   4   0  -9 2805.92   60.71
   4   0  -9 2768.05   54.63
   4   0  -9 2746.38   55.37
   4   0  -9 2806.37   59.85
   4   0  -9 2772.45   55.36
   4   0  -9 2726.80   52.25
   4   0  -8   22.49    3.86
   4   0  -8   20.70    1.68
   4   0  -8   23.66    2.01
   4   0  -8   24.34    1.34
   4   0  -8   21.43    3.71
   4   0  -8   27.83    2.40
   4   0  -7  225.71    5.74
   4   0  -7  234.75    5.39
   4   0  -7  238.19    4.88
   4   0  -7  238.27    7.04
   4   0  -7  227.85    4.56
   4   0  -7  232.31    5.02
   4   0  -6   87.21    2.89
   4   0  -6   86.51    2.78
   4   0  -6   83.96    2.47
   4   0  -6   88.15    3.11
   4   0  -6   85.70    2.31
   4   0  -6   88.98    2.97
   4   0  -5  113.75    4.09
   4   0  -5  117.89    3.87
   4   0  -5  116.87    3.49
   4   0  -5  124.02    3.73
   4   0  -5  112.87    3.88
   4   0  -5  113.57    2.84
   4   0  -4   13.73    1.90
   4   0  -4   15.73    1.79
   4   0  -4   16.53    1.98
   4   0  -4   15.81    1.76
   4   0  -4   16.36    1.16
   4   0  -4   15.08    1.25
   4   0  -3  622.88   11.35
   4   0  -3  657.79   12.66
   4   0  -3  635.98   11.78
   4   0  -3  629.46   11.40
   4   0  -3  636.21   12.84
   4   0  -3  625.83   11.84
   4   0  -2 3437.12   66.98
   4   0  -2 3375.71   63.17
   4   0  -2 3353.61   65.51
   4   0  -2 3377.87   66.29
   4   0  -2 3391.14   65.67
   4   0  -2 3403.13   64.56
   4   0  -1   23.29    1.55
   4   0  -1   25.15    1.32
   4   0  -1   24.21    1.40
   4   0  -1   20.96    2.59
   4   0  -1   22.06    1.54
  -4   0   1   34.18    1.72
   4   0   0  948.05   17.95
   4   0   0  970.00   15.38
   4   0   0  935.82   17.06
  -4   0   0  909.26   16.10
  -4   0   0  900.79   14.28
  -4   0   0  947.08   17.10
   4   0   1  197.60    4.54
   4   0   1  188.66    3.29
   4   0   1  217.25    5.34
  -4   0  -1  174.61    2.97
  -4   0  -1  217.14    4.64
  -4   0  -1  176.22    4.38
   4   0   2  122.64    2.32
   4   0   2  114.70    3.32
   4   0   2  131.85    4.82
  -4   0  -2  103.85    3.00
  -4   0  -2  106.05    2.00
  -4   0  -2  122.70    3.44
   4   0   3  869.13   14.34
   4   0   3  828.53   17.75
   4   0   3  911.71   18.76
  -4   0  -3  849.19   13.40
  -4   0  -3  910.90   18.23
  -4   0  -3  886.93   16.87
   4   0   4 1634.61   27.46
   4   0   4 1577.46   29.56
   4   0   4 1572.02   29.50
  -4   0  -4 1605.97   29.99
  -4   0  -4 1579.84   27.07
  -4   0  -4 1555.53   30.30
   4   0   5   60.38    1.63
   4   0   5   62.14    2.63
   4   0   5   58.57    2.59
  -4   0  -5   62.08    1.64
  -4   0  -5   69.35    3.75
  -4   0  -5   65.76    3.67
   4   0   6    9.35    1.61
   4   0   6   10.71    1.04
   4   0   6   12.62    1.70
  -4   0  -6   11.35    1.64
  -4   0  -6    8.95    0.99
  -4   0  -6   11.95    1.61
   4   0   7    9.06    1.71
   4   0   7    9.09    1.24
   4   0   7    7.83    1.93
  -4   0  -7    6.76    1.18
  -4   0  -7    6.37    2.72
  -4   0  -7    7.06    1.63
   4   0   8 2009.39   38.77
   4   0   8 1939.99   39.48
   4   0   8 1913.99   40.16
  -4   0  -8 1878.07   36.19
  -4   0  -8 1961.83   38.90
  -4   0  -8 1920.38   38.84
   4   0   9   37.89    3.74
   4   0   9   39.77    2.83
   4   0   9   39.87    2.20
  -4   0  -9   35.38    2.10
  -4   0  -9   35.36    2.64
  -4   0  -9   36.15    2.35
   4   0  10   64.70    4.20
   4   0  10   68.78    3.52
   4   0  10   64.47    4.17
  -4   0 -10   61.61    4.01
  -4   0 -10   61.08    3.20
  -4   0 -10   66.24    2.90
   4   0  11   16.58    2.06
   4   0  11   19.24    2.56
   4   0  11   16.67    2.22
  -4   0 -11   11.41    3.23
  -4   0 -11   17.81    2.31
  -4   0 -11   13.82    2.97
   4   0  12    2.68    1.52
   4   0  12    1.93    2.77
   4   0  12    0.64    2.00
  -4   0 -12    1.67    1.41
  -4   0 -12    1.60    1.80
  -4   0 -12    2.23    2.72
   4   0  13   87.22    3.64
   4   0  13   87.92    4.22
   4   0  13   87.84    4.47
  -4   0 -13   86.12    4.19
  -4   0 -13   81.48    5.82
  -4   0 -13   91.37    4.82
   4   0  14  148.83    6.50
   4   0  14  140.75    5.91
   4   0  14  143.11    5.74
  -4   0 -14  137.26    7.75
  -4   0 -14  141.22    4.59
  -4   0 -14  146.59    5.64
   4   0  15   82.87    5.51
   4   0  15   93.90    5.05
   4   0  15   86.68    4.90
  -4   0 -15   91.14    6.70
  -4   0 -15   84.50    4.94
  -4   0 -15   87.82    5.10
   4   0  16   21.14    2.47
   4   0  16   21.97    3.49
   4   0  16   25.69    3.66
  -4   0 -16   26.67    3.75
  -4   0 -16   22.88    3.29
   4   0  17   -0.03    1.65
   4   0  17    0.06    1.86
  -4   0 -17    2.00    2.69
  -4   0 -17    1.27    2.25
   4   1 -14    2.52    4.90
   4   1 -14    4.65    2.93
   4   1 -13   47.36    4.48
   4   1 -13   39.81    4.14
   4   1 -12  294.38    9.30
   4   1 -12  303.61    9.23
   4   1 -11  651.31   15.94
   4   1 -11  608.18   11.45
   4   1 -11  649.10   13.33
   4   1 -11  616.14   11.33
   4   1 -11  657.31   15.67
   4   1 -11  610.32   11.35
   4   1 -10  126.42    5.06
   4   1 -10  117.29    2.87
   4   1 -10  118.04    2.77
   4   1 -10  123.13    3.23
   4   1 -10  122.99    6.96
   4   1 -10  123.10    3.95
   4   1  -9  191.10    7.79
   4   1  -9  188.31    4.26
   4   1  -9  178.98    3.80
   4   1  -9  183.50    4.42
   4   1  -9  198.02    5.78
   4   1  -9  181.43    4.11
   4   1  -8   57.83    3.13
   4   1  -8   59.25    2.13
   4   1  -8   59.48    2.43
   4   1  -8   56.29    2.34
   4   1  -8   54.55    2.89
   4   1  -8   61.15    3.02
   4   1  -7  311.92    5.67
   4   1  -7  318.41    7.27
   4   1  -7  318.75    6.34
   4   1  -7  320.48    6.33
   4   1  -7  320.11    7.15
   4   1  -7  317.50    6.38
   4   1  -6  357.51    8.92
   4   1  -6  374.73    8.07
   4   1  -6  371.73    6.37
   4   1  -6  369.84    7.58
   4   1  -6  371.59    7.21
   4   1  -6  366.76    7.12
   4   1  -5  652.24   13.04
   4   1  -5  642.80   12.23
   4   1  -5  661.50   11.98
   4   1  -5  660.65   12.29
   4   1  -5  656.03   11.07
   4   1  -5  658.66   12.26
   4   1  -4  474.43    8.81
   4   1  -4  459.98    9.07
   4   1  -4  461.31    8.31
   4   1  -4  473.60    9.41
   4   1  -4  470.40   10.45
   4   1  -4  462.22    9.30
   4   1  -3 1078.14   19.41
   4   1  -3 1064.07   18.96
   4   1  -3 1075.20   20.58
   4   1  -3 1069.77   18.41
   4   1  -3 1075.80   19.48
   4   1  -3 1068.73   19.26
   4   1  -2   93.98    2.51
   4   1  -2   96.06    2.22
   4   1  -2   95.73    2.72
   4   1  -2   93.50    2.39
   4   1  -2   90.15    2.77
  -4  -1   2   99.02    2.34
   4   1  -1   10.92    0.66
   4   1  -1   12.57    1.39
   4   1  -1   15.39    1.08
   4   1  -1   11.91    0.94
  -4  -1   1   14.85    1.63
   4   1   0 3185.83   61.81
   4   1   0 3224.62   55.77
   4   1   0 3186.66   63.00
   4   1   0 3274.91   56.84
   4   1   0 3099.13   61.58
  -4  -1   0 3024.87   57.02
   4   1   1  140.81    4.16
   4   1   1  142.57    4.53
   4   1   1  151.24    3.73
  -4  -1  -1  144.02    3.28
   4   1   2  137.42    3.44
   4   1   2  131.72    4.43
   4   1   2  127.99    3.46
  -4  -1  -2  142.43    3.38
   4   1   3   34.21    2.16
   4   1   3   34.63    2.05
  -4  -1  -3   18.57    0.36
  -4  -1  -3   24.40    0.39
   4   1   4  111.32    2.17
   4   1   4  136.78    3.90
  -4  -1  -4  128.55    2.21
  -4  -1  -4  157.44    4.16
   4   1   5  684.39   13.30
   4   1   5  723.39   11.29
   4   1   5  696.94   13.22
  -4  -1  -5  686.17   11.26
  -4  -1  -5  683.02   13.19
  -4  -1  -5  729.49   14.81
   4   1   6  765.91   15.73
   4   1   6  786.88   13.33
   4   1   6  742.42   14.67
  -4  -1  -6  773.97   15.05
  -4  -1  -6  745.27   12.71
  -4  -1  -6  782.75   15.15
   4   1   7  205.25    4.05
   4   1   7  201.62    5.22
   4   1   7  199.06    6.03
  -4  -1  -7  197.12    3.92
  -4  -1  -7  201.21    5.10
  -4  -1  -7  207.28    4.86
   4   1   8   -0.69    1.64
   4   1   8   -0.44    1.33
   4   1   8    0.14    1.24
  -4  -1  -8    0.92    1.13
  -4  -1  -8   -0.42    1.14
  -4  -1  -8   -0.15    0.94
   4   1   9   85.63    3.32
   4   1   9  102.05    4.17
   4   1   9   80.56    4.03
  -4  -1  -9   71.97    2.88
  -4  -1  -9   98.59    3.81
  -4  -1  -9   85.51    3.21
   4   1  10   11.18    1.69
   4   1  10    8.34    2.25
   4   1  10    9.50    1.62
  -4  -1 -10    9.00    1.59
  -4  -1 -10    8.97    2.13
  -4  -1 -10    9.01    1.63
   4   1  11  126.77    5.13
   4   1  11  139.38    6.80
   4   1  11  134.13    4.08
  -4  -1 -11  122.19    3.97
  -4  -1 -11  129.91    4.67
  -4  -1 -11  135.03    3.94
   4   1  12   26.30    2.05
   4   1  12   28.39    3.03
   4   1  12   26.31    2.49
  -4  -1 -12   24.21    3.52
  -4  -1 -12   25.22    2.80
  -4  -1 -12   23.85    3.06
   4   1  13   24.80    2.17
   4   1  13   31.13    3.14
   4   1  13   27.50    2.75
  -4  -1 -13   28.81    4.13
  -4  -1 -13   26.68    2.98
  -4  -1 -13   27.34    2.04
   4   1  14    0.71    1.87
   4   1  14   -0.08    1.89
   4   1  14    0.05    1.62
  -4  -1 -14   -0.83    1.74
  -4  -1 -14    0.82    1.85
  -4  -1 -14    1.28    1.17
   4   1  15   54.88    2.90
   4   1  15   57.31    4.23
   4   1  15   53.63    2.62
  -4  -1 -15   49.80    3.79
  -4  -1 -15   57.61    6.11
  -4  -1 -15   53.40    3.71
   4   1  16    0.14    3.09
  -4  -1 -16    1.29    2.33
  -4  -1 -16    3.98    2.44
  -4  -1 -16    1.89    3.62
   4   1  17    0.02    2.89
  -4  -1 -17    2.66    2.68
  -4  -1 -17    1.24    2.60
  -4  -1 -17    5.94    2.56
   4   2 -14  104.85    6.47
   4   2 -14  104.21    9.12
   4   2 -13   28.15    4.16
   4   2 -13   33.63    4.10
   4   2 -12  146.34    8.99
   4   2 -12  143.26    6.11
  -4  -2  12    0.02    1.85
   4   2 -11  137.51    4.09
   4   2 -11  138.52    5.72
  -4  -2  11  140.86    5.82
  -4  -2  11  127.38    3.71
   4   2 -10    1.46    1.74
   4   2 -10    0.17    1.08
  -4  -2  10    0.09    0.84
  -4  -2  10    0.01    1.54
   4   2  -9   75.18    1.57
   4   2  -9   83.72    4.03
   4   2  -9   79.74    3.88
   4   2  -9   72.99    1.49
  -4  -2   9   74.64    2.62
  -4  -2   9   80.15    5.57
   4   2  -8   75.04    2.89
   4   2  -8   73.27    3.54
   4   2  -8   73.22    1.60
   4   2  -8   75.48    1.36
  -4  -2   8   73.02    3.72
  -4  -2   8   77.58    3.47
   4   2  -7    4.23    2.50
   4   2  -7    3.94    1.24
   4   2  -7    3.63    0.39
   4   2  -7    4.43    0.64
  -4  -2   7    4.86    1.22
  -4  -2   7    5.03    1.58
   4   2  -6   65.09    3.84
   4   2  -6   65.70    1.64
   4   2  -6   64.07    1.52
   4   2  -6   64.95    2.50
  -4  -2   6   62.16    2.33
  -4  -2   6   63.49    3.74
   4   2  -5   96.01    2.93
   4   2  -5   95.13    3.95
   4   2  -5   94.87    2.04
   4   2  -5   96.49    2.13
  -4  -2   5   91.63    2.78
  -4  -2   5   90.93    2.81
   4   2  -4    0.18    0.35
   4   2  -4    0.14    0.68
   4   2  -4   -0.72    0.78
   4   2  -4    0.12    0.51
  -4  -2   4   -0.12    0.71
  -4  -2   4   -0.26    0.80
   4   2  -3   15.59    1.77
   4   2  -3   11.41    1.19
   4   2  -3   19.13    2.52
   4   2  -3   10.73    1.19
  -4  -2   3    6.33    2.32
  -4  -2   3    9.20    1.03
   4   2  -2 1363.47   25.30
   4   2  -2 1386.00   23.97
   4   2  -2 1403.47   24.71
  -4  -2   2 1338.25   24.93
  -4  -2   2 1329.35   23.33
  -4  -2   2 1329.04   22.79
   4   2  -1  255.10    4.97
   4   2  -1  251.78    4.39
   4   2  -1  262.36    5.46
  -4  -2   1  249.30    3.95
  -4  -2   1  250.21    6.22
  -4  -2   1  241.68    4.69
   4   2   0   83.13    2.59
   4   2   0   83.66    2.56
   4   2   0   85.73    1.37
  -4  -2   0   79.35    2.46
  -4  -2   0   78.71    2.44
  -4  -2   0   81.62    1.29
   4   2   1  178.07    3.60
   4   2   1  182.06    4.09
   4   2   1  175.49    2.03
   4   2   1  179.93    2.08
   4   2   1  181.66    4.24
  -4  -2  -1  174.38    4.20
   4   2   2   24.40    1.53
   4   2   2   26.80    1.77
   4   2   2   24.81    1.81
  -4  -2  -2   25.53    1.45
   4   2   3   60.46    2.38
   4   2   3   49.63    2.24
   4   2   3   49.46    2.32
  -4  -2  -3   66.02    3.24
   4   2   4   96.16    4.51
   4   2   4  115.53    3.69
  -4  -2  -4   48.46    2.48
  -4  -2  -4   45.63    0.98
   4   2   5  721.30   13.51
   4   2   5  733.59   13.70
   4   2   5  741.83   15.33
  -4  -2  -5  732.03   11.54
  -4  -2  -5  735.65   13.84
  -4  -2  -5  737.17   11.48
   4   2   6   61.30    2.34
   4   2   6   59.63    2.61
   4   2   6   62.13    3.16
  -4  -2  -6   60.01    1.40
  -4  -2  -6   58.53    3.64
  -4  -2  -6   58.85    1.72
   4   2   7   24.68    1.68
   4   2   7   31.51    2.20
   4   2   7   28.82    1.82
  -4  -2  -7   27.30    1.16
  -4  -2  -7   25.45    2.07
  -4  -2  -7   25.92    1.58
   4   2   8  188.10    4.37
   4   2   8  193.62    5.29
   4   2   8  182.25    4.46
  -4  -2  -8  182.63    3.80
  -4  -2  -8  183.93    4.99
  -4  -2  -8  187.19    4.43
   4   2   9   29.66    1.73
   4   2   9   28.94    4.02
   4   2   9   26.53    1.86
  -4  -2  -9   27.31    1.60
  -4  -2  -9   29.69    2.42
  -4  -2  -9   26.83    1.51
   4   2  10    5.12    2.19
   4   2  10    4.76    1.25
   4   2  10    5.32    2.06
  -4  -2 -10    4.83    2.13
  -4  -2 -10    4.49    1.97
  -4  -2 -10    6.41    1.26
   4   2  11   31.10    2.03
   4   2  11   30.28    1.91
   4   2  11   31.16    3.15
  -4  -2 -11   33.60    2.23
  -4  -2 -11   35.09    3.04
  -4  -2 -11   29.51    2.09
   4   2  12  212.82    6.41
   4   2  12  225.45    9.34
   4   2  12  211.11    6.07
  -4  -2 -12  216.08    5.91
  -4  -2 -12  225.97    6.86
  -4  -2 -12  214.18    5.67
   4   2  13  384.79    8.38
   4   2  13  389.95    8.29
   4   2  13  403.71   11.16
  -4  -2 -13  384.04   11.60
  -4  -2 -13  397.31   13.20
  -4  -2 -13  396.14    9.54
   4   2  14    7.17    2.77
   4   2  14    6.63    2.10
   4   2  14    5.74    1.46
  -4  -2 -14    3.11    3.20
  -4  -2 -14    8.81    2.21
  -4  -2 -14    7.55    2.64
   4   2  15    1.15    1.60
   4   2  15   -0.25    0.89
   4   2  15    0.51    3.00
  -4  -2 -15    1.63    1.76
  -4  -2 -15   -0.49    2.00
  -4  -2 -15   -0.02    1.61
   4   2  16   43.98    4.27
  -4  -2 -16   41.61    3.55
  -4  -2 -16   38.74    4.10
  -4  -2 -16   37.34    3.36
   4   2  17   46.64    4.62
  -4  -2 -17   43.53    4.05
  -4  -2 -17   47.10    4.20
  -4  -2 -17   43.44    5.89
   4   3 -13  122.43    6.72
  -4  -3  13  131.05    6.82
   4   3 -12    0.36    1.28
   4   3 -12   -1.34    3.32
  -4  -3  12    0.11    1.70
  -4  -3  12    0.09    3.14
   4   3 -11   59.22    4.36
   4   3 -11   60.03    4.62
  -4  -3  11   52.98    2.72
  -4  -3  11   61.33    4.14
   4   3 -10   13.79    2.12
   4   3 -10   18.98    2.86
  -4  -3  10   13.21    1.80
  -4  -3  10    0.02    4.20
   4   3  -9  107.23    5.28
   4   3  -9  104.62    4.57
  -4  -3   9   96.35    3.43
  -4  -3   9  101.12    4.39
   4   3  -8  260.26    6.51
   4   3  -8  255.24    7.10
  -4  -3   8  252.80    6.93
  -4  -3   8  247.02    7.51
   4   3  -7   93.19    3.48
   4   3  -7   88.42    3.66
  -4  -3   7   85.38    3.12
  -4  -3   7   85.09    3.53
   4   3  -6   60.50    3.98
   4   3  -6   58.04    4.07
  -4  -3   6   59.30    2.62
  -4  -3   6   58.77    2.73
   4   3  -5    2.11    1.26
   4   3  -5    1.16    2.25
  -4  -3   5    0.47    1.18
  -4  -3   5    1.04    1.76
   4   3  -4  118.38    3.61
   4   3  -4  116.39    3.19
  -4  -3   4  110.38    3.47
  -4  -3   4  115.25    3.18
   4   3  -3  295.27    6.50
   4   3  -3  293.44    4.47
   4   3  -3  293.12    5.75
   4   3  -3  296.67    4.52
  -4  -3   3  288.01    6.47
  -4  -3   3  285.85    6.26
   4   3  -2  912.75   16.67
   4   3  -2  896.59   17.21
   4   3  -2  924.90   15.06
  -4  -3   2  877.39   15.97
  -4  -3   2  874.01   17.85
  -4  -3   2  865.86   13.93
   4   3  -1   12.07    1.28
   4   3  -1   10.65    1.52
   4   3  -1   12.43    1.13
  -4  -3   1   12.51    1.25
  -4  -3   1   10.86    1.48
  -4  -3   1   10.08    0.99
   4   3   0  326.14    6.75
   4   3   0  326.12    5.58
   4   3   0  323.44    6.11
  -4  -3   0  311.24    4.93
  -4  -3   0  315.01    5.33
  -4  -3   0  321.49    7.70
   4   3   1  434.39    8.59
   4   3   1  445.05    6.93
   4   3   1  430.02    8.43
  -4  -3  -1  438.97    6.88
  -4  -3  -1  437.44    7.63
  -4  -3  -1  429.88    8.75
   4   3   2  577.65   10.98
   4   3   2  596.11    8.83
   4   3   2  589.54   10.57
  -4  -3  -2  575.87    8.35
  -4  -3  -2  568.31   10.82
  -4  -3  -2  576.35   10.91
   4   3   3 1080.78   21.51
   4   3   3 1135.45   17.13
   4   3   3 1089.20   19.82
  -4  -3  -3 1068.90   20.29
  -4  -3  -3 1081.29   16.66
  -4  -3  -3 1053.24   19.54
   4   3   4   30.53    1.78
   4   3   4   31.67    1.80
   4   3   4   31.74    1.91
  -4  -3  -4   27.40    2.57
  -4  -3  -4   29.25    0.97
  -4  -3  -4   32.56    0.98
   4   3   5  601.16   12.68
   4   3   5  609.00   11.89
   4   3   5  607.70   11.60
  -4  -3  -5  599.58   11.61
  -4  -3  -5  578.26    9.02
  -4  -3  -5  607.94    9.85
   4   3   6  300.69    6.38
   4   3   6  290.23    6.14
   4   3   6  321.49    8.40
  -4  -3  -6  295.27    6.44
  -4  -3  -6  298.65    5.37
  -4  -3  -6  299.57    5.49
   4   3   7   29.27    2.88
   4   3   7   25.87    2.45
   4   3   7   27.49    1.87
  -4  -3  -7   29.79    3.52
  -4  -3  -7   31.16    1.77
  -4  -3  -7   29.96    1.86
   4   3   8   69.72    2.57
   4   3   8   71.08    3.46
   4   3   8   80.23    3.41
  -4  -3  -8   73.09    2.85
  -4  -3  -8   74.73    3.26
  -4  -3  -8   69.61    2.02
   4   3   9 1380.82   26.51
   4   3   9 1347.09   27.34
   4   3   9 1375.53   28.63
  -4  -3  -9 1330.86   24.99
  -4  -3  -9 1340.26   27.86
  -4  -3  -9 1354.19   25.16
   4   3  10  291.15    7.66
   4   3  10  320.19    8.53
   4   3  10  282.41    6.36
  -4  -3 -10  280.31    6.29
  -4  -3 -10  320.90   10.04
  -4  -3 -10  286.70    7.48
   4   3  11  455.46   10.23
   4   3  11  477.62   11.71
   4   3  11  460.56   10.52
  -4  -3 -11  447.19    9.55
  -4  -3 -11  460.60    9.63
  -4  -3 -11  450.71   13.21
   4   3  12   -0.88    0.83
   4   3  12    0.30    0.79
   4   3  12    1.64    1.53
  -4  -3 -12   -0.47    1.27
  -4  -3 -12    0.58    1.72
  -4  -3 -12    1.15    1.17
   4   3  13   14.02    1.51
   4   3  13   11.05    1.36
   4   3  13   12.11    4.55
  -4  -3 -13   13.05    2.67
  -4  -3 -13   11.95    3.19
  -4  -3 -13    9.17    1.90
   4   3  14  107.99    4.29
   4   3  14  110.31    4.12
   4   3  14  122.87    5.64
  -4  -3 -14  110.59    4.50
  -4  -3 -14  114.37    5.31
  -4  -3 -14  114.10    4.26
   4   3  15  102.52    4.21
   4   3  15  110.67    8.25
   4   3  15  101.27    3.96
  -4  -3 -15  105.48    6.72
  -4  -3 -15  117.26    8.02
  -4  -3 -15  109.21    4.59
   4   3  16   67.90    5.05
  -4  -3 -16   62.69    4.18
  -4  -3 -16   68.04    4.03
  -4  -3 -16   65.15    4.93
   4   3  17    7.57    3.30
  -4  -3 -17    8.42    4.74
  -4  -3 -17    8.98    5.25
  -4  -3 -17    9.70    2.76
   4   4 -12    4.43    2.98
   4   4 -12   -1.31    2.61
  -4  -4  12    0.06    1.27
  -4  -4  12    0.05    3.21
   4   4 -11   90.35    4.40
   4   4 -11   98.92    5.52
  -4  -4  11   89.65    5.52
  -4  -4  11   96.14    5.34
   4   4 -10  186.85    6.40
   4   4 -10  186.07    6.93
  -4  -4  10  158.21    5.37
  -4  -4  10  176.46    6.56
   4   4  -9   13.14    2.63
   4   4  -9    8.43    3.56
  -4  -4   9   10.96    3.00
  -4  -4   9    0.04    3.82
   4   4  -8    0.78    2.74
   4   4  -8    2.00    1.81
  -4  -4   8    0.42    1.10
  -4  -4   8   -0.56    1.32
   4   4  -7    1.67    1.66
   4   4  -7    2.85    2.73
  -4  -4   7    0.32    1.20
  -4  -4   7   -0.04    1.32
   4   4  -6    0.37    1.48
   4   4  -6    2.36    1.60
  -4  -4   6    1.75    1.43
  -4  -4   6    0.55    2.37
   4   4  -5  636.48   13.82
   4   4  -5  628.11   13.18
  -4  -4   5  605.46   12.65
  -4  -4   5  590.05   12.78
   4   4  -4  536.41   11.79
   4   4  -4  532.46   10.96
  -4  -4   4  517.19   10.58
  -4  -4   4  511.62   11.03
   4   4  -3    5.74    1.80
   4   4  -3    6.69    1.30
  -4  -4   3    7.85    1.28
  -4  -4   3    5.95    1.66
   4   4  -2   65.40    2.99
   4   4  -2   64.52    1.36
   4   4  -2   62.85    2.14
  -4  -4   2   64.17    2.16
  -4  -4   2   70.47    2.91
   4   4  -1  982.98   16.50
   4   4  -1  968.85   17.28
   4   4  -1  978.22   20.91
  -4  -4   1  930.17   17.41
  -4  -4   1  942.92   18.54
  -4  -4   1  927.46   15.33
   4   4   0  420.92    9.15
   4   4   0  410.07    7.95
   4   4   0  413.42    6.97
  -4  -4   0  397.80    7.00
  -4  -4   0  396.32    8.44
  -4  -4   0  399.75    6.71
   4   4   1  229.80    5.52
   4   4   1  227.64    4.55
   4   4   1  227.97    5.13
  -4  -4  -1  219.02    3.90
  -4  -4  -1  216.88    5.28
  -4  -4  -1  221.56    4.16
   4   4   2   11.85    1.67
   4   4   2   10.08    1.21
   4   4   2   11.05    0.74
  -4  -4  -2   11.49    0.78
  -4  -4  -2    9.86    1.63
  -4  -4  -2   12.54    1.75
   4   4   3   59.50    3.84
   4   4   3   60.42    2.28
   4   4   3   56.37    1.75
  -4  -4  -3   58.96    1.43
  -4  -4  -3   65.07    3.07
  -4  -4  -3   68.99    3.92
   4   4   4    0.25    1.07
   4   4   4    1.72    0.48
   4   4   4    1.24    1.18
  -4  -4  -4    1.84    0.99
  -4  -4  -4   -0.41    1.82
  -4  -4  -4    1.36    0.81
   4   4   5  209.93    6.19
   4   4   5  214.59    5.18
   4   4   5  215.75    3.71
  -4  -4  -5  214.56    6.17
  -4  -4  -5  216.51    6.18
  -4  -4  -5  208.58    3.69
   4   4   6  754.82   14.62
   4   4   6  784.53   15.60
  -4  -4  -6  778.39   15.33
  -4  -4  -6  762.36   12.97
   4   4   7  393.72    8.38
   4   4   7  390.61    8.12
   4   4   7  404.38    9.06
  -4  -4  -7  391.60    8.90
  -4  -4  -7  395.12    7.86
  -4  -4  -7  394.37    7.91
   4   4   8   26.08    2.54
   4   4   8   14.78    1.73
   4   4   8   18.77    1.75
  -4  -4  -8   17.43    2.26
  -4  -4  -8   16.68    1.32
  -4  -4  -8   13.98    1.30
   4   4   9  277.30    7.33
   4   4   9  285.73    7.67
   4   4   9  271.98    7.42
  -4  -4  -9  270.91    7.29
  -4  -4  -9  274.14    6.65
  -4  -4  -9  269.37    5.72
   4   4  10  153.65    5.82
   4   4  10  152.55    5.33
   4   4  10  143.44    4.03
  -4  -4 -10  153.38    5.51
  -4  -4 -10  152.82    5.26
  -4  -4 -10  149.07    4.09
   4   4  11    7.55    1.31
   4   4  11    9.21    2.60
   4   4  11    8.26    2.22
  -4  -4 -11    5.85    1.49
  -4  -4 -11    9.91    2.36
  -4  -4 -11    6.95    1.50
   4   4  12  137.94    4.86
   4   4  12  142.63    5.70
   4   4  12  137.25    3.62
  -4  -4 -12  135.15    4.24
  -4  -4 -12  144.74    7.76
  -4  -4 -12  138.32    5.37
   4   4  13   40.18    2.92
   4   4  13   42.05    4.02
   4   4  13   41.69    3.02
  -4  -4 -13   41.70    4.16
  -4  -4 -13   38.22    3.71
  -4  -4 -13   42.00    2.67
   4   4  14   16.03    2.37
   4   4  14   15.59    3.49
   4   4  14   14.63    1.47
  -4  -4 -14   16.75    2.45
  -4  -4 -14   17.99    3.26
  -4  -4 -14   12.78    2.28
   4   4  15   68.66    7.47
  -4  -4 -15   60.01    7.04
  -4  -4 -15   63.85    3.88
  -4  -4 -15   60.81    3.62
   4   4  16  138.34    6.98
  -4  -4 -16  142.01    6.68
  -4  -4 -16  140.33    8.15
  -4  -4 -16  128.69    5.43
   4   4  17   15.23    4.19
  -4  -4 -17   13.10    3.17
  -4  -4 -17   12.53    3.01
  -4  -4 -17   14.45    3.84
   4   5 -11    1.42    2.17
   4   5 -11    0.36    2.54
  -4  -5  11    1.87    2.87
  -4  -5  11   -0.03    2.39
   4   5 -10   79.11    6.76
   4   5 -10   73.58    5.04
  -4  -5  10   71.56    4.83
  -4  -5  10   71.18    4.01
   4   5  -9    2.35    2.27
   4   5  -9    1.21    3.46
  -4  -5   9    1.51    1.75
  -4  -5   9    0.03    3.39
   4   5  -8   64.37    5.79
   4   5  -8   58.06    3.94
  -4  -5   8   58.31    5.18
  -4  -5   8   60.92    3.86
   4   5  -7  125.44    7.00
   4   5  -7  119.89    6.70
  -4  -5   7  120.15    4.69
  -4  -5   7  113.72    4.58
   4   5  -6   12.86    4.11
   4   5  -6   13.26    2.30
  -4  -5   6   15.57    2.22
  -4  -5   6   12.00    2.33
   4   5  -5    2.54    2.76
   4   5  -5    3.26    2.01
  -4  -5   5    4.77    2.76
  -4  -5   5    3.94    1.91
   4   5  -4   22.49    2.20
   4   5  -4   29.64    2.86
  -4  -5   4   25.76    3.35
  -4  -5   4   22.93    2.59
   4   5  -3  229.31    6.60
   4   5  -3  217.24    5.46
  -4  -5   3  211.33    6.69
  -4  -5   3  215.20    6.09
   4   5  -2   28.05    2.69
   4   5  -2   23.73    0.53
   4   5  -2   27.50    2.86
  -4  -5   2   25.01    1.86
  -4  -5   2   23.12    0.48
  -4  -5   2   22.80    2.49
   4   5  -1    6.38    3.53
   4   5  -1    6.99    1.32
   4   5  -1    7.01    0.61
  -4  -5   1    6.70    0.57
  -4  -5   1    7.07    1.33
  -4  -5   1   14.11    2.08
   4   5   0  576.14   10.39
   4   5   0  558.26   12.20
   4   5   0  554.74   10.42
  -4  -5   0  552.04   13.82
  -4  -5   0  558.16   11.37
  -4  -5   0  542.14    9.12
   4   5   1    0.38    0.71
   4   5   1    1.34    1.40
   4   5   1    0.23    0.75
  -4  -5  -1    0.28    0.65
  -4  -5  -1    0.48    1.23
  -4  -5  -1    0.86    1.28
   4   5   2  168.75    3.94
   4   5   2  166.35    5.16
   4   5   2  160.87    4.25
  -4  -5  -2  159.22    3.59
  -4  -5  -2  153.86    4.20
  -4  -5  -2  182.38    6.46
   4   5   3    0.48    1.11
   4   5   3    0.05    0.83
   4   5   3   -0.00    0.56
  -4  -5  -3   -0.20    0.90
  -4  -5  -3    0.92    0.70
  -4  -5  -3    1.29    1.25
   4   5   4   16.35    1.97
   4   5   4   16.38    1.70
   4   5   4   15.05    1.62
  -4  -5  -4   19.75    2.46
  -4  -5  -4   12.22    1.83
  -4  -5  -4   15.97    1.71
   4   5   5  119.27    3.81
   4   5   5  120.88    5.13
   4   5   5  124.03    2.74
  -4  -5  -5  116.65    3.58
  -4  -5  -5  123.10    2.82
  -4  -5  -5  129.07    5.13
   4   5   6    5.36    1.52
   4   5   6    7.05    2.69
   4   5   6    2.98    0.88
  -4  -5  -6    3.37    1.58
  -4  -5  -6   13.67    2.42
  -4  -5  -6    3.23    0.96
   4   5   7  152.40    4.35
   4   5   7  158.48    6.69
   4   5   7  156.27    3.50
  -4  -5  -7  155.30    4.68
  -4  -5  -7  153.87    3.54
  -4  -5  -7  161.64    5.60
   4   5   8  351.91    9.13
   4   5   8  349.43    8.72
   4   5   8  342.14    7.64
  -4  -5  -8  351.88    8.54
  -4  -5  -8  347.35    6.94
  -4  -5  -8  343.33    6.99
   4   5   9    4.92    2.25
   4   5   9    5.88    1.44
   4   5   9    5.85    2.26
  -4  -5  -9    5.89    2.09
  -4  -5  -9    6.12    1.24
  -4  -5  -9    4.30    2.02
   4   5  10   25.82    2.82
   4   5  10   24.69    3.08
   4   5  10   25.51    2.95
  -4  -5 -10   22.79    2.95
  -4  -5 -10   27.18    2.82
  -4  -5 -10   25.04    2.92
   4   5  11  122.72    3.49
   4   5  11  128.38    5.36
   4   5  11  125.22    3.59
  -4  -5 -11  126.82    5.22
  -4  -5 -11  121.97    5.00
  -4  -5 -11  117.64    3.84
   4   5  12  231.88    5.35
   4   5  12  240.59   10.33
   4   5  12  239.61    5.61
  -4  -5 -12  240.17   10.33
  -4  -5 -12  242.43    6.26
  -4  -5 -12  228.45    6.07
   4   5  13   19.15    3.47
   4   5  13   15.45    2.41
   4   5  13   14.94    1.58
  -4  -5 -13   12.51    3.53
  -4  -5 -13   15.06    3.20
  -4  -5 -13   15.10    3.41
   4   5  14    2.37    2.74
   4   5  14    2.03    1.09
   4   5  14    3.03    1.18
  -4  -5 -14    2.88    2.81
  -4  -5 -14    1.19    2.55
  -4  -5 -14    1.41    1.70
   4   5  15  175.93    7.86
  -4  -5 -15  156.83    5.84
  -4  -5 -15  163.35   10.27
  -4  -5 -15  168.03    5.88
   4   5  16   68.56    5.83
  -4  -5 -16   54.51    4.07
  -4  -5 -16   63.94    5.20
  -4  -5 -16   59.44    4.02
   4   5  17  309.97   15.32
  -4  -5 -17  289.83   10.77
  -4  -5 -17  286.50    9.49
  -4  -5 -17  294.40   11.80
   4   6 -10    0.50    3.80
   4   6 -10    0.89    2.58
  -4  -6  10   -0.03    4.08
  -4  -6  10    1.41    2.10
   4   6  -9    2.63    4.14
   4   6  -9    1.59    2.53
  -4  -6   9    5.33    2.43
  -4  -6   9    2.04    2.67
   4   6  -8    0.48    3.70
   4   6  -8    1.08    2.16
  -4  -6   8    2.60    2.21
  -4  -6   8    1.51    2.13
   4   6  -7    9.09    2.79
   4   6  -7    5.47    4.06
  -4  -6   7    6.94    2.36
  -4  -6   7    4.97    2.42
   4   6  -6   18.21    3.18
   4   6  -6   19.13    2.71
  -4  -6   6   23.14    4.26
  -4  -6   6   18.62    4.53
   4   6  -5   19.27    3.20
   4   6  -5   21.37    3.97
  -4  -6   5   16.03    3.80
  -4  -6   5   16.08    2.77
   4   6  -4  103.30    4.89
   4   6  -4  106.36    4.24
  -4  -6   4  101.26    4.67
  -4  -6   4   99.17    5.72
   4   6  -3  349.82   11.79
   4   6  -3  322.07    7.99
  -4  -6   3  317.99    9.41
  -4  -6   3  316.59    8.76
   4   6  -2  321.17    8.90
   4   6  -2  312.51    7.51
  -4  -6   2  307.78    8.87
  -4  -6   2  307.74   10.63
   4   6  -1   55.96    2.65
   4   6  -1   57.15    1.35
   4   6  -1   60.83    3.83
  -4  -6   1   55.85    2.63
  -4  -6   1   65.68    5.44
  -4  -6   1   57.12    1.68
   4   6   0   21.12    2.82
   4   6   0   20.12    1.65
   4   6   0   20.58    1.82
  -4  -6   0   21.38    1.59
  -4  -6   0   21.45    2.84
  -4  -6   0   21.65    2.64
   4   6   1  534.44   12.36
   4   6   1  524.18   11.62
   4   6   1  538.85   10.68
  -4  -6  -1  508.01    9.24
  -4  -6  -1  516.21   10.31
  -4  -6  -1  528.38   11.96
   4   6   2  135.66    4.84
   4   6   2  136.69    4.55
   4   6   2  142.34    3.47
  -4  -6  -2  131.83    6.32
  -4  -6  -2  133.44    3.29
  -4  -6  -2  132.87    4.59
   4   6   3   41.87    2.07
   4   6   3   39.97    2.96
   4   6   3   42.71    2.71
  -4  -6  -3   35.40    1.93
  -4  -6  -3   37.86    2.71
  -4  -6  -3   42.14    2.76
   4   6   4  319.68    7.97
   4   6   4  325.46    7.56
   4   6   4  329.61    8.64
  -4  -6  -4  329.03    9.51
  -4  -6  -4  317.39    6.50
   4   6   5  818.73   19.13
   4   6   5  809.26   16.53
   4   6   5  799.34   16.22
  -4  -6  -5  805.62   16.90
  -4  -6  -5  788.39   14.96
  -4  -6  -5  768.19   15.92
   4   6   6  129.47    4.36
   4   6   6  142.06    4.47
   4   6   6  139.67    4.47
  -4  -6  -6  137.43    4.34
  -4  -6  -6  130.96    3.46
  -4  -6  -6  128.92    4.22
   4   6   7  305.43    7.38
   4   6   7  310.45    7.82
   4   6   7  306.00    6.42
  -4  -6  -7  299.93    6.40
  -4  -6  -7  303.81    7.26
  -4  -6  -7  298.38    7.58
   4   6   8   51.06    5.00
   4   6   8   51.50    2.76
   4   6   8   57.47    2.27
  -4  -6  -8   55.62    2.67
  -4  -6  -8   53.56    3.32
  -4  -6  -8   53.17    3.22
   4   6   9  296.81    8.33
   4   6   9  274.04    6.74
   4   6   9  268.45    6.27
  -4  -6  -9  268.90    6.22
  -4  -6  -9  282.52    6.99
  -4  -6  -9  293.88    8.03
   4   6  10  305.02    8.68
   4   6  10  286.79    6.81
   4   6  10  287.25    8.24
  -4  -6 -10  297.27    6.92
  -4  -6 -10  289.08    8.32
  -4  -6 -10  297.06    8.49
   4   6  11  108.90    4.74
   4   6  11  117.16    5.35
   4   6  11  101.17    3.46
  -4  -6 -11  104.93    3.65
  -4  -6 -11   99.67    3.73
  -4  -6 -11  113.77    7.21
   4   6  12  211.80    7.45
   4   6  12  198.70    6.31
   4   6  12  191.22    4.96
  -4  -6 -12  202.21    7.17
  -4  -6 -12  197.79    7.27
  -4  -6 -12  192.47    5.70
   4   6  13   83.03    5.15
   4   6  13   74.12    2.82
   4   6  13   70.15    3.97
  -4  -6 -13   80.12    5.08
  -4  -6 -13   74.72    3.61
  -4  -6 -13   75.23    3.65
   4   6  14  199.79   11.23
   4   6  14  173.94    4.56
   4   6  14  179.73    5.81
  -4  -6 -14  183.81    6.06
  -4  -6 -14  173.49    6.00
  -4  -6 -14  188.10    7.70
   4   6  15  408.16   13.31
  -4  -6 -15  361.06   10.27
  -4  -6 -15  384.73   12.23
  -4  -6 -15  398.36   10.85
   4   6  16    0.86    3.03
  -4  -6 -16   -0.10    2.80
  -4  -6 -16   -1.49    2.41
  -4  -6 -16    1.62    2.78
   4   6  17    7.87    6.24
  -4  -6 -17    3.04    4.18
  -4  -6 -17    4.88    4.21
  -4  -6 -17    6.31    5.60
   4   7  -8    0.24    4.15
   4   7  -8   -1.05    2.46
  -4  -7   8   -0.21    3.63
  -4  -7   8   -0.75    2.26
   4   7  -7   74.96    5.51
   4   7  -7   70.58    4.95
  -4  -7   7   68.43    4.56
  -4  -7   7   68.81    6.94
   4   7  -6   94.59    5.70
   4   7  -6   89.05    7.30
  -4  -7   6   85.94    4.71
  -4  -7   6   83.93    5.01
   4   7  -5  148.30    6.84
   4   7  -5  147.06    5.79
  -4  -7   5  148.57    5.77
  -4  -7   5  142.70    6.19
   4   7  -4   -0.73    2.03
   4   7  -4    0.14    1.52
  -4  -7   4   -0.52    1.70
  -4  -7   4   -1.76    2.12
   4   7  -3   25.22    3.76
   4   7  -3   29.65    4.18
  -4  -7   3   29.66    2.73
  -4  -7   3   22.71    3.34
   4   7  -2   12.03    4.74
   4   7  -2    8.45    3.28
  -4  -7   2    9.93    2.06
  -4  -7   2    9.51    2.71
   4   7  -1  129.53    2.38
   4   7  -1  140.76    5.91
   4   7  -1  133.45    6.04
  -4  -7   1  132.94    4.41
  -4  -7   1  129.83    2.77
  -4  -7   1  141.61    5.55
   4   7   0   51.30    3.88
   4   7   0   49.84    2.73
   4   7   0   49.73    2.31
  -4  -7   0   48.40    2.23
  -4  -7   0   47.54    4.09
  -4  -7   0   59.00    3.95
   4   7   1   94.47    2.67
   4   7   1  102.01    4.76
   4   7   1   90.65    3.42
  -4  -7  -1   90.02    2.54
  -4  -7  -1   89.01    3.41
  -4  -7  -1   94.65    6.61
   4   7   2  410.72   13.10
   4   7   2  406.42    9.33
   4   7   2  386.28    9.92
  -4  -7  -2  388.44    8.56
  -4  -7  -2  390.80   10.03
  -4  -7  -2  383.25    7.81
   4   7   3   83.40    4.21
   4   7   3   77.87    2.87
   4   7   3   80.42    2.99
  -4  -7  -3   83.12    3.93
  -4  -7  -3   75.39    2.94
  -4  -7  -3   77.18    3.88
   4   7   4   22.66    2.86
   4   7   4   23.19    1.89
   4   7   4   24.62    2.08
  -4  -7  -4   24.38    2.97
  -4  -7  -4   24.43    2.67
  -4  -7  -4   25.24    2.01
   4   7   5   69.47    5.41
   4   7   5   56.48    3.69
   4   7   5   61.51    4.49
  -4  -7  -5   53.00    2.54
  -4  -7  -5   63.32    5.05
  -4  -7  -5   58.55    4.35
   4   7   6    1.54    1.19
   4   7   6    0.64    1.67
   4   7   6    2.12    1.62
  -4  -7  -6    3.00    1.78
  -4  -7  -6    1.40    2.07
  -4  -7  -6    0.20    2.63
   4   7   7  383.08    9.43
   4   7   7  376.59    8.29
   4   7   7  383.69    9.59
  -4  -7  -7  374.06    8.45
  -4  -7  -7  374.12    9.21
  -4  -7  -7  379.35   11.39
   4   7   8   55.58    3.08
   4   7   8   46.82    2.52
   4   7   8   49.34    5.36
  -4  -7  -8   47.07    2.56
  -4  -7  -8   47.04    5.13
  -4  -7  -8   47.53    2.94
   4   7   9    1.97    3.39
   4   7   9    2.88    1.56
   4   7   9    0.95    1.33
  -4  -7  -9    2.19    1.52
  -4  -7  -9    1.80    2.25
  -4  -7  -9    2.02    3.32
   4   7  10    4.02    3.80
   4   7  10    3.88    1.61
   4   7  10    2.60    1.53
  -4  -7 -10    4.14    1.64
  -4  -7 -10    3.17    2.58
  -4  -7 -10    5.11    2.41
   4   7  11   75.03    7.02
   4   7  11   64.70    4.48
   4   7  11   69.42    4.40
  -4  -7 -11   67.32    4.77
  -4  -7 -11   69.01    4.87
  -4  -7 -11   67.66    4.51
   4   7  12   49.37    6.74
   4   7  12   38.86    2.59
   4   7  12   40.65    2.50
  -4  -7 -12   44.73    4.52
  -4  -7 -12   43.97    4.26
  -4  -7 -12   39.91    4.52
   4   7  13   71.20    4.46
   4   7  13   67.24    4.47
   4   7  13   71.59    5.53
  -4  -7 -13   69.53    8.10
  -4  -7 -13   69.16    3.95
  -4  -7 -13   61.10    5.77
   4   7  14  152.71    7.73
  -4  -7 -14  148.19    5.69
  -4  -7 -14  154.60    8.12
  -4  -7 -14  158.17    7.55
   4   7  15   33.06    4.89
  -4  -7 -15   28.55    3.18
  -4  -7 -15   28.30    5.19
  -4  -7 -15   29.58    4.64
   4   7  16    1.67    3.22
  -4  -7 -16    0.00    3.21
  -4  -7 -16   -0.01    3.40
  -4  -7 -16    4.11    4.68
   4   8  -6    3.28    2.77
   4   8  -6    4.82    3.54
  -4  -8   6    4.22    2.79
  -4  -8   6    5.64    3.05
   4   8  -5   -0.26    3.35
   4   8  -5    2.51    4.45
  -4  -8   5    1.07    2.33
  -4  -8   5   -0.04    2.03
   4   8  -4   35.20    4.57
   4   8  -4   30.25    3.42
  -4  -8   4   28.52    3.40
  -4  -8   4   31.54    4.04
   4   8  -3   79.35    5.86
   4   8  -3   82.18    4.52
  -4  -8   3   79.84    4.44
  -4  -8   3   80.08    5.29
   4   8  -2   12.67    3.63
   4   8  -2   12.52    4.00
  -4  -8   2   15.02    2.69
  -4  -8   2   17.76    3.39
   4   8  -1    2.08    2.63
   4   8  -1    0.36    2.79
  -4  -8   1    1.85    1.77
  -4  -8   1    1.94    2.46
   4   8   0    0.44    2.39
   4   8   0    1.06    2.49
  -4  -8   0    0.15    0.98
  -4  -8   0    0.24    2.13
  -4  -8   0   -1.49    1.88
   4   8   1   15.55    5.41
   4   8   1   13.39    1.37
   4   8   1   13.12    2.24
  -4  -8  -1   11.88    1.31
  -4  -8  -1   10.17    3.45
  -4  -8  -1   13.51    2.93
   4   8   2    9.58    2.93
   4   8   2    5.97    1.87
   4   8   2    8.08    1.47
  -4  -8  -2    6.63    1.90
  -4  -8  -2    8.95    2.67
  -4  -8  -2    7.54    1.40
   4   8   3    0.16    1.22
   4   8   3    3.85    2.12
   4   8   3    0.48    2.22
  -4  -8  -3    0.16    1.85
  -4  -8  -3    0.62    1.31
  -4  -8  -3    0.46    1.10
   4   8   4    4.96    4.00
   4   8   4    5.94    1.65
   4   8   4    5.07    1.70
  -4  -8  -4    4.00    2.51
  -4  -8  -4    5.96    3.67
   4   8   5    2.54    1.67
   4   8   5    1.45    1.49
   4   8   5    3.71    2.14
  -4  -8  -5    4.06    1.63
  -4  -8  -5    4.28    2.12
  -4  -8  -5    0.51    2.66
   4   8   6  133.80    5.34
   4   8   6  131.08    4.84
   4   8   6  117.21    5.56
  -4  -8  -6  121.13    4.25
  -4  -8  -6  129.04    7.09
  -4  -8  -6  126.15    4.62
   4   8   7   79.87    4.25
   4   8   7   90.48    4.22
   4   8   7   81.39    3.44
  -4  -8  -7   83.29    4.15
  -4  -8  -7   81.50    5.02
  -4  -8  -7   78.72    3.97
   4   8   8    2.80    1.91
   4   8   8    2.60    2.49
   4   8   8    0.19    3.30
  -4  -8  -8    3.76    1.87
  -4  -8  -8    2.48    2.65
  -4  -8  -8    2.50    2.08
   4   8   9   -0.82    1.55
   4   8   9    0.23    1.81
   4   8   9   -0.07    2.12
  -4  -8  -9    0.05    1.90
  -4  -8  -9    0.06    1.40
  -4  -8  -9   -1.40    1.53
   4   8  10  120.26    4.77
   4   8  10  131.85    5.97
   4   8  10  121.63    4.58
  -4  -8 -10  115.92    4.62
  -4  -8 -10  127.07    4.70
  -4  -8 -10  125.46    5.99
   4   8  11   49.95    4.58
   4   8  11   48.97    3.29
   4   8  11   46.95    4.72
  -4  -8 -11   47.37    3.06
  -4  -8 -11   52.46    4.99
  -4  -8 -11   45.05    6.89
   4   8  12  601.99   13.96
   4   8  12  639.27   17.25
   4   8  12  587.94   15.51
  -4  -8 -12  602.09   17.30
  -4  -8 -12  581.89   16.95
  -4  -8 -12  586.57   16.34
   4   8  13   14.26    3.60
   4   8  13   22.44    3.99
   4   8  13   16.81    2.23
  -4  -8 -13   16.56    2.75
  -4  -8 -13   12.22    4.31
  -4  -8 -13   17.91    3.90
   4   8  14   57.41    5.53
  -4  -8 -14   54.27    3.82
  -4  -8 -14   51.57    5.92
  -4  -8 -14   58.37    5.41
   4   8  15   33.37    5.04
  -4  -8 -15   27.46    3.39
  -4  -8 -15   30.64    5.33
  -4  -8 -15   22.08    4.80
   4   9  -4    3.72    4.00
   4   9  -4    6.33    4.57
  -4  -9   4    9.21    3.02
  -4  -9   4    8.76    3.68
   4   9  -3   24.17    8.34
   4   9  -3   35.73    3.84
  -4  -9   3   29.29    3.66
  -4  -9   3   30.36    4.47
   4   9  -2   32.65    5.02
   4   9  -2   31.38    3.49
  -4  -9   2   35.57    3.61
  -4  -9   2   33.12    4.46
   4   9  -1   18.35    6.88
   4   9  -1   17.29    4.62
  -4  -9   1   21.91    2.92
  -4  -9   1   18.60    3.96
   4   9   0   32.00    4.59
   4   9   0   24.62    4.88
  -4  -9   0   26.53    3.10
  -4  -9   0   32.16    4.09
   4   9   1    8.24    3.59
   4   9   1    9.64    3.83
  -4  -9  -1    8.28    2.36
  -4  -9  -1    8.71    3.21
   4   9   2  212.03   11.95
   4   9   2  211.93    8.68
   4   9   2  206.79    6.66
  -4  -9  -2  210.22    8.70
  -4  -9  -2  204.10   10.98
  -4  -9  -2  198.57    5.25
   4   9   3    5.51    3.15
   4   9   3    4.79    1.65
   4   9   3    3.90    2.12
  -4  -9  -3    6.10    3.55
  -4  -9  -3    4.87    2.86
  -4  -9  -3    7.20    1.68
   4   9   4  198.65    7.73
   4   9   4  182.47    6.09
   4   9   4  192.36    5.78
  -4  -9  -4  176.91    7.82
  -4  -9  -4  181.31    7.27
  -4  -9  -4  171.91    6.94
   4   9   5   59.56    3.42
   4   9   5   62.90    4.61
   4   9   5   51.52    3.33
  -4  -9  -5   56.21    4.17
  -4  -9  -5   56.00    3.46
  -4  -9  -5   52.36    3.24
   4   9   6   35.73    3.99
   4   9   6   40.01    3.23
   4   9   6   37.16    4.62
  -4  -9  -6   35.93    3.60
  -4  -9  -6   36.92    3.03
  -4  -9  -6   38.19    3.15
   4   9   7  129.34    5.43
   4   9   7  119.10    6.61
   4   9   7  132.51    5.90
  -4  -9  -7  122.91    5.49
  -4  -9  -7  123.03    4.86
  -4  -9  -7  124.14    5.13
   4   9   8  228.69    7.68
   4   9   8  232.34    7.73
   4   9   8  213.33    6.77
  -4  -9  -8  223.42    9.66
  -4  -9  -8  221.38    7.05
  -4  -9  -8  216.15    7.44
   4   9   9  209.67    7.30
   4   9   9  215.62    7.74
   4   9   9  194.38    6.50
  -4  -9  -9  199.13    6.78
  -4  -9  -9  200.94    6.62
  -4  -9  -9  195.59    7.38
   4   9  10  123.22    5.36
   4   9  10  130.65    6.16
   4   9  10  111.90    4.73
  -4  -9 -10  118.61    4.94
  -4  -9 -10  113.06    4.98
  -4  -9 -10  119.58    5.93
   4   9  11   34.71    3.43
   4   9  11   45.39    6.86
   4   9  11   35.34    4.97
  -4  -9 -11   35.11    3.13
  -4  -9 -11   34.71    3.33
  -4  -9 -11   46.51    6.78
   4   9  12  120.48    6.94
   4   9  12  128.30   10.27
  -4  -9 -12  113.90    7.66
  -4  -9 -12  128.51    9.68
   4   9  13    8.20    2.31
   4   9  13    9.34    6.36
   4   9  13    8.48    2.21
  -4  -9 -13    4.83    4.19
  -4  -9 -13    5.58    4.09
  -4  -9 -13    6.00    3.54
   4  10   0   44.22    6.37
   4  10   0   47.43    8.99
  -4 -10   0   38.24    5.20
  -4 -10   0   47.01    3.97
   4  10   1    1.25    2.99
   4  10   1    0.30    1.98
  -4 -10  -1   -1.60    3.84
  -4 -10  -1    0.19    1.86
   4  10   2  131.24    7.61
   4  10   2  120.17    5.72
  -4 -10  -2  119.68    5.72
  -4 -10  -2  118.40    6.96
   4  10   3    0.89    4.83
   4  10   3    1.21    2.09
  -4 -10  -3    2.80    2.26
  -4 -10  -3    2.01    2.95
   4  10   4   37.44    2.97
   4  10   4   37.01    3.63
   4  10   4   47.36    7.63
  -4 -10  -4   45.19    3.72
  -4 -10  -4   47.20    4.60
  -4 -10  -4   38.42    3.01
   4  10   5   36.96    4.46
   4  10   5   29.76    3.05
   4  10   5   29.11    3.27
  -4 -10  -5   25.14    6.18
  -4 -10  -5   30.69    3.34
  -4 -10  -5   26.55    4.56
   4  10   6   51.88    4.95
   4  10   6   58.88    3.96
  -4 -10  -6   51.07    4.59
  -4 -10  -6   52.42    3.96
  -4 -10  -6   50.24    3.72
   4  10   7   30.20    4.18
   4  10   7   32.02    5.63
  -4 -10  -7   28.46    6.00
  -4 -10  -7   28.07    3.42
  -4 -10  -7   27.58    3.43
   4  10   8   -0.79    2.06
   4  10   8    0.13    2.21
   4  10   8   -0.29    2.98
  -4 -10  -8   -0.40    2.01
  -4 -10  -8   -0.18    1.74
  -4 -10  -8    1.22    1.95
   4  10   9   99.68    8.52
   4  10   9   93.37    5.49
   4  10   9   88.06    7.03
  -4 -10  -9   91.31    5.30
  -4 -10  -9   91.00    7.55
  -4 -10  -9   86.42    5.51
   4  10  10   52.94    6.58
   4  10  10   52.41    4.98
   4  10  10   46.40    3.77
  -4 -10 -10   51.54    6.66
  -4 -10 -10   46.71    3.97
  -4 -10 -10   46.49    4.88
   5  -8  -7   40.13    5.45
   5  -8  -7   52.45    5.36
   5  -8  -7   48.42    5.54
   5  -8  -7   43.84    5.76
  -5   8   7   47.29    7.68
  -5   8   7   40.67    3.71
   5  -8  -6    2.82    1.54
   5  -8  -6   -5.15    2.32
   5  -8  -6   -1.17    3.47
   5  -8  -6   -0.66    2.24
  -5   8   6   -0.01    1.76
  -5   8   6    1.49    4.08
   5  -8  -5  117.18    8.20
   5  -8  -5  137.88   10.94
   5  -8  -5  120.48    7.34
   5  -8  -5  109.96   10.53
  -5   8   5  107.26    6.34
  -5   8   5  105.62    5.46
   5  -8  -4   50.45    4.62
   5  -8  -4   56.12    5.59
   5  -8  -4   49.30    5.85
   5  -8  -4   52.66    8.45
  -5   8   4   50.08    4.88
  -5   8   4   48.78    4.27
   5  -8  -3   10.14    3.59
   5  -8  -3   11.74    3.74
   5  -8  -3   11.59    3.56
   5  -8  -3   -0.24    3.26
  -5   8   3   10.16    3.21
  -5   8   3   -0.13    2.91
   5  -8  -2    0.40    3.47
   5  -8  -2   12.99    3.62
   5  -8  -2    9.08    3.72
   5  -8  -2   12.30    3.51
  -5   8   2    8.37    3.04
  -5   8   2   -0.05    3.05
   5  -8  -1   36.92    7.10
   5  -8  -1   29.12    4.62
   5  -8  -1   28.74    6.63
   5  -8  -1   34.62    4.61
  -5   8   1   37.74    4.23
  -5   8   1   -0.04    6.60
   5  -8   0    0.38    4.11
   5  -8   0    1.01    2.47
   5  -8   0    0.38    2.34
   5  -8   0   -0.68    2.24
  -5   8   0    1.01    2.47
  -5   8   0   -1.08    4.17
   5  -8   1   63.35    8.30
   5  -8   1   63.48    9.10
   5  -8   1   58.87    5.64
   5  -8   1   64.29    5.31
  -5   8  -1  137.52    9.48
  -5   8  -1   60.65    6.03
   5  -8   2  133.93    7.29
   5  -8   2  134.70   12.18
   5  -8   2  155.58    7.80
   5  -8   2  148.52    7.37
  -5   8  -2  158.81    7.95
  -5   8  -2  143.57    8.44
   5  -8   3    4.06    3.36
   5  -8   3   10.07    3.73
   5  -8   3    6.44    3.03
   5  -8   3    7.80    4.27
  -5   8  -3    3.73    3.12
  -5   8  -3    2.15    3.72
   5  -7 -10   29.53    8.46
   5  -7 -10   46.24    5.15
   5  -7 -10   42.07    5.31
  -5   7  10   35.71    4.71
   5  -7  -9  119.20   10.91
   5  -7  -9  133.20    7.21
   5  -7  -9  130.29    7.41
  -5   7   9  124.77    6.67
   5  -7  -8   24.67    2.68
   5  -7  -8   27.93    4.49
   5  -7  -8   28.94    4.58
   5  -7  -8   24.01    4.72
  -5   7   8   20.73    3.94
  -5   7   8   20.18    3.79
   5  -7  -7  194.84    6.57
   5  -7  -7  210.25   11.82
   5  -7  -7  213.41   12.38
   5  -7  -7  203.37    9.13
  -5   7   7  207.35    8.17
  -5   7   7  188.60    8.29
   5  -7  -6   13.31    4.41
   5  -7  -6   22.12    3.84
   5  -7  -6   20.02    7.06
   5  -7  -6   14.27    3.95
  -5   7   6   12.21    3.49
  -5   7   6   17.05    4.10
   5  -7  -5   29.99    3.28
   5  -7  -5   32.24    4.13
   5  -7  -5   29.92    4.70
   5  -7  -5   34.16    6.75
  -5   7   5   36.80    3.83
  -5   7   5   29.02    3.19
   5  -7  -4   24.29    3.17
   5  -7  -4   22.76    3.66
   5  -7  -4   17.74    4.10
   5  -7  -4   22.89    4.02
  -5   7   4   20.01    3.31
  -5   7   4   22.56    2.99
   5  -7  -3    2.54    4.06
   5  -7  -3    6.52    4.88
   5  -7  -3    4.57    2.77
   5  -7  -3    1.90    4.60
  -5   7   3    3.52    2.42
  -5   7   3    0.34    3.57
   5  -7  -2    3.17    2.73
   5  -7  -2    4.95    3.08
   5  -7  -2    6.07    2.72
   5  -7  -2    2.77    2.88
  -5   7   2    4.36    2.36
  -5   7   2    0.48    2.43
   5  -7  -1  119.66    6.50
   5  -7  -1  120.67    6.29
   5  -7  -1  125.20    6.25
   5  -7  -1  132.41    6.29
  -5   7   1  118.74    5.92
  -5   7   1  123.45    6.05
   5  -7   0    9.20    3.47
   5  -7   0   11.88    3.44
   5  -7   0   10.44    3.25
   5  -7   0   15.61    3.33
  -5   7   0    8.23    2.95
  -5   7   0   11.77    5.17
   5  -7   1    6.27    3.31
   5  -7   1    5.97    2.91
   5  -7   1    5.92    2.96
   5  -7   1    5.59    3.12
  -5   7  -1    0.23    2.34
  -5   7  -1    5.08    4.35
   5  -7   2  103.18    6.32
   5  -7   2   96.10    5.61
   5  -7   2   97.17    7.96
   5  -7   2   93.91    5.72
  -5   7  -2   89.08    6.10
  -5   7  -2   82.04    5.09
   5  -7   3   10.80    3.53
   5  -7   3    8.25    3.15
   5  -7   3    8.24    4.50
   5  -7   3   -0.02    3.00
  -5   7  -3    0.22    4.75
  -5   7  -3    5.84    3.42
   5  -7   4   -0.19    3.95
   5  -7   4    0.88    3.34
   5  -7   4    1.52    2.82
   5  -7   4   -0.80    1.96
  -5   7  -4    0.12    3.76
  -5   7  -4   -1.11    2.81
   5  -7   5    4.88    2.59
   5  -7   5    3.87    3.61
   5  -7   5    5.42    4.78
   5  -7   5   -0.76    4.36
  -5   7  -5   -0.90    2.69
  -5   7  -5    8.22    3.38
   5  -7   6    2.25    3.31
   5  -7   6   -0.23    4.36
   5  -7   6    1.07    3.79
   5  -7   6    1.56    2.24
  -5   7  -6    2.09    2.75
  -5   7  -6    3.61    5.56
   5  -7   7    0.12    4.76
   5  -7   7    0.50    2.63
   5  -7   7    4.94    2.54
   5  -7   7    5.97    5.68
  -5   7  -7    2.69    2.96
  -5   7  -7    3.60    5.89
   5  -6 -12   22.43    4.31
   5  -6 -12   25.01    4.39
   5  -6 -12   20.46    6.68
   5  -6 -11   -0.11    2.75
   5  -6 -11    0.70    2.45
   5  -6 -11    1.70    2.57
   5  -6 -11   -1.18    3.97
   5  -6 -10   36.96    4.91
   5  -6 -10   44.06    4.47
   5  -6 -10   42.53    4.78
   5  -6 -10   36.49    4.53
   5  -6  -9    8.18    3.25
   5  -6  -9   11.49    5.40
   5  -6  -9    6.47    3.55
  -5   6   9    3.60    4.59
   5  -6  -8  147.63    6.33
   5  -6  -8  169.23    9.85
   5  -6  -8  160.45    7.25
   5  -6  -8  153.36   10.35
  -5   6   8  162.70    9.14
  -5   6   8  133.32    4.43
   5  -6  -7   34.99    4.16
   5  -6  -7   41.40    3.96
   5  -6  -7   34.85    4.23
   5  -6  -7   38.13    6.96
  -5   6   7   35.37    3.80
  -5   6   7   31.14    5.67
   5  -6  -6  118.49    4.57
   5  -6  -6  124.62    5.80
   5  -6  -6  120.00    6.51
   5  -6  -6  122.97    6.03
  -5   6   6  112.06    7.47
  -5   6   6  115.90    5.99
   5  -6  -5    0.93    2.71
   5  -6  -5    0.16    2.39
   5  -6  -5    0.81    1.96
   5  -6  -5    1.27    2.21
  -5   6   5    2.61    3.37
  -5   6   5    1.26    2.67
   5  -6  -4    0.35    1.74
   5  -6  -4    1.26    2.35
   5  -6  -4    0.12    1.93
   5  -6  -4    1.00    2.21
  -5   6   4    0.77    1.55
  -5   6   4    0.09    1.76
   5  -6  -3  137.39    9.13
   5  -6  -3  139.66    5.51
   5  -6  -3  138.55    5.75
   5  -6  -3  138.10    6.20
  -5   6   3  127.41    5.36
  -5   6   3  126.82    5.14
   5  -6  -2   10.90    3.15
   5  -6  -2    6.77    4.35
   5  -6  -2    8.77    2.75
   5  -6  -2    7.46    2.98
  -5   6   2    7.91    2.32
  -5   6   2   -0.42    3.87
   5  -6  -1  375.73   13.43
   5  -6  -1  368.03   11.12
   5  -6  -1  370.93   10.55
   5  -6  -1  366.36   10.82
  -5   6   1  357.93    9.92
  -5   6   1  350.58   10.21
   5  -6   0    1.94    2.27
   5  -6   0    1.35    3.83
   5  -6   0    1.87    4.01
   5  -6   0    2.18    3.96
  -5   6   0    0.74    1.90
  -5   6   0    1.15    2.14
   5  -6   1    7.64    5.35
   5  -6   1   14.52    4.67
   5  -6   1   14.58    4.79
   5  -6   1   13.05    3.15
  -5   6  -1   -0.65    2.44
  -5   6  -1   18.41    2.93
   5  -6   2   99.81    5.90
   5  -6   2   99.95    5.21
   5  -6   2   99.80    5.02
   5  -6   2   97.42    5.04
  -5   6  -2   96.32    4.71
  -5   6  -2   98.12    8.26
   5  -6   3   16.51    3.25
   5  -6   3   22.94    3.95
   5  -6   3   21.64    3.13
   5  -6   3   18.04    3.19
  -5   6  -3    0.26    2.42
  -5   6  -3   14.85    4.71
   5  -6   4   31.34    4.55
   5  -6   4   35.69    3.71
   5  -6   4   37.74    3.76
   5  -6   4   32.74    5.40
  -5   6  -4   33.51    3.46
  -5   6  -4   38.73    6.63
   5  -6   5   17.10    3.78
   5  -6   5   17.82    3.08
   5  -6   5    7.95    4.46
   5  -6   5    1.09    2.98
  -5   6  -5    9.47    2.85
   5  -6   6   -0.78    2.61
   5  -6   6   -0.10    2.06
   5  -6   6   -1.15    2.92
   5  -6   6    0.20    3.16
  -5   6  -6   -0.05    2.85
  -5   6  -6    0.20    3.60
   5  -6   7   -0.42    3.57
   5  -6   7    1.70    2.93
   5  -6   7    0.09    2.39
   5  -6   7    2.71    2.14
  -5   6  -7    0.72    2.25
  -5   6  -7    0.64    2.76
   5  -6   8   18.89    3.11
   5  -6   8    0.28    3.75
   5  -6   8   22.87    3.10
   5  -6   8   14.37    6.75
  -5   6  -8   11.25    3.52
  -5   6  -8   17.62    4.20
   5  -6   9   -0.18    2.43
   5  -6   9    0.18    2.88
   5  -6   9    5.04    3.29
   5  -6   9    3.54    2.27
  -5   6  -9    2.40    2.91
  -5   6  -9    3.69    3.44
   5  -5 -13   14.51    3.75
   5  -5 -13   14.02    6.30
   5  -5 -13   15.77    3.93
   5  -5 -12   59.74    5.16
   5  -5 -12   71.09    5.26
   5  -5 -12   66.16    5.17
   5  -5 -12   68.69    8.12
   5  -5 -11  220.26    8.87
   5  -5 -11  248.95    8.89
   5  -5 -11  233.88    8.83
   5  -5 -11  231.97   12.03
   5  -5 -10   54.55    4.99
   5  -5 -10   69.82    7.46
   5  -5 -10   61.57    4.93
   5  -5 -10   61.91    7.11
   5  -5  -9  134.31    6.18
   5  -5  -9  128.81    6.17
   5  -5  -9  120.54    5.75
   5  -5  -9  124.56    6.18
  -5   5   9    3.82    1.26
   5  -5  -8    4.26    2.24
   5  -5  -8    2.73    2.38
   5  -5  -8    3.23    4.02
   5  -5  -8    2.15    2.67
  -5   5   8    2.94    3.64
  -5   5   8    3.52    2.03
   5  -5  -7    1.70    2.16
   5  -5  -7    1.00    3.24
   5  -5  -7    1.20    2.38
   5  -5  -7    0.79    2.16
  -5   5   7    0.21    2.30
  -5   5   7    0.02    0.91
   5  -5  -6    1.57    1.51
   5  -5  -6    0.95    2.38
   5  -5  -6    3.19    3.23
   5  -5  -6    2.98    3.60
  -5   5   6    1.13    1.69
  -5   5   6    0.21    2.00
   5  -5  -5  108.22    5.85
   5  -5  -5   96.67    5.42
   5  -5  -5  110.72    6.85
   5  -5  -5  110.62    5.19
  -5   5   5   99.31    4.46
  -5   5   5   99.81    5.19
   5  -5  -4  190.29    9.91
   5  -5  -4  186.49    6.05
   5  -5  -4  200.47    8.55
   5  -5  -4  186.52    9.16
  -5   5   4  182.54    5.96
  -5   5   4  186.90    5.73
   5  -5  -3   22.44    5.78
   5  -5  -3   26.23    4.81
   5  -5  -3   26.11    2.99
   5  -5  -3   25.92    3.50
  -5   5   3   29.97    4.47
  -5   5   3   24.50    2.84
   5  -5  -2  292.75    8.23
   5  -5  -2  299.09    8.10
   5  -5  -2  301.05    8.70
   5  -5  -2  283.02    9.00
  -5   5   2  267.41    7.20
  -5   5   2  275.95    9.63
   5  -5  -1    1.87    2.17
   5  -5  -1    2.83    1.86
   5  -5  -1    2.07    2.40
   5  -5  -1    2.64    3.45
  -5   5   1    3.50    1.78
  -5   5   1    1.24    2.01
   5  -5   0  153.64    5.94
   5  -5   0  144.26    5.82
   5  -5   0  160.50    7.21
   5  -5   0  156.91    7.91
  -5   5   0  145.86    7.74
  -5   5   0  139.89    4.88
   5  -5   1   -0.36    1.89
   5  -5   1    1.59    1.66
   5  -5   1    1.63    3.20
   5  -5   1    0.60    2.08
  -5   5  -1    1.58    2.84
  -5   5  -1    3.30    2.23
   5  -5   2  105.31    5.25
   5  -5   2  106.52    4.49
   5  -5   2  102.01    4.78
   5  -5   2  100.20    5.02
  -5   5  -2  102.40    5.09
  -5   5  -2  108.46    5.93
   5  -5   3    1.42    2.48
   5  -5   3    2.07    2.07
   5  -5   3    2.56    3.05
   5  -5   3    0.95    2.08
  -5   5  -3    2.62    1.75
  -5   5  -3   -0.78    2.37
   5  -5   4   66.79    7.40
   5  -5   4   66.45    4.12
   5  -5   4   66.67    3.86
   5  -5   4   65.88    5.82
  -5   5  -4   70.94    4.74
  -5   5  -4   58.92    3.56
   5  -5   5   32.91    3.35
   5  -5   5   34.96    4.22
   5  -5   5   35.58    3.37
   5  -5   5   36.35    5.27
  -5   5  -5   33.50    4.97
  -5   5  -5   38.89    4.08
   5  -5   6   -0.18    1.95
   5  -5   6    1.19    2.54
   5  -5   6    0.01    1.92
   5  -5   6    3.18    1.89
  -5   5  -6    2.98    3.29
  -5   5  -6    1.86    2.63
   5  -5   7   -0.31    2.15
   5  -5   7    5.62    4.66
   5  -5   7    0.02    3.60
   5  -5   7    6.46    2.20
  -5   5  -7    5.48    2.44
  -5   5  -7    5.66    3.06
   5  -5   8    0.09    5.08
   5  -5   8   18.67    2.89
   5  -5   8   17.06    3.88
  -5   5  -8   13.11    3.05
  -5   5  -8   15.75    2.79
  -5   5  -8   19.83    3.80
   5  -5   9    0.02    4.00
   5  -5   9    4.78    4.73
   5  -5   9    1.47    2.14
  -5   5  -9    2.55    2.21
  -5   5  -9   -0.02    1.98
  -5   5  -9    0.27    4.42
   5  -5  10   11.85    5.51
   5  -5  10   10.31    4.48
   5  -5  10   13.17    3.91
  -5   5 -10    9.86    3.05
  -5   5 -10   -0.06    2.65
  -5   5 -10   15.69    3.60
   5  -5  11    0.89    3.62
   5  -5  11    2.23    4.53
   5  -5  11    1.89    4.73
  -5   5 -11    2.28    2.93
  -5   5 -11    4.85    2.34
  -5   5 -11    1.48    3.21
   5  -4 -13  113.44    6.15
   5  -4 -13  135.62    6.78
   5  -4 -13  121.59    9.77
   5  -4 -12   14.86    3.08
   5  -4 -12   -0.04    2.74
   5  -4 -12   -0.03    2.84
   5  -4 -12    7.96    5.01
   5  -4 -11   -0.05    3.00
   5  -4 -11   12.06    4.77
   5  -4 -11    0.12    2.87
   5  -4 -11   18.26    3.04
   5  -4 -10  119.05    5.64
   5  -4 -10  124.98    5.64
   5  -4 -10  125.36    5.58
   5  -4 -10  121.00    5.57
   5  -4  -9    8.56    3.77
   5  -4  -9    4.07    1.57
   5  -4  -9    0.11    2.37
   5  -4  -9    8.10    2.30
   5  -4  -9    4.85    1.77
   5  -4  -9    0.03    2.45
   5  -4  -8    0.86    0.93
   5  -4  -8   -0.28    0.83
   5  -4  -8    0.09    1.57
   5  -4  -8   -0.02    2.71
   5  -4  -8    0.76    1.80
   5  -4  -8    0.26    1.68
   5  -4  -7    0.36    1.11
   5  -4  -7    1.35    1.68
   5  -4  -7   -0.62    1.99
   5  -4  -7    2.46    1.84
  -5   4   7    0.50    2.59
  -5   4   7    0.85    1.00
   5  -4  -6    7.33    2.70
   5  -4  -6    6.34    2.75
   5  -4  -6    9.90    2.28
   5  -4  -6    8.71    2.53
  -5   4   6    4.99    2.38
  -5   4   6   10.93    3.31
   5  -4  -5   86.05    4.84
   5  -4  -5   90.08    4.21
   5  -4  -5   91.94    4.67
   5  -4  -5   94.24    3.65
  -5   4   5   83.87    3.94
  -5   4   5   86.54    3.37
   5  -4  -4  835.94   17.87
   5  -4  -4  826.42   18.97
   5  -4  -4  846.75   18.42
   5  -4  -4  833.07   21.13
  -5   4   4  776.97   16.79
  -5   4   4  793.54   16.63
   5  -4  -3   15.88    2.39
   5  -4  -3   19.67    2.26
   5  -4  -3   18.50    2.85
   5  -4  -3   16.77    3.06
  -5   4   3   18.09    2.20
  -5   4   3   15.81    3.30
   5  -4  -2   13.73    3.53
   5  -4  -2   11.92    3.11
   5  -4  -2   10.44    2.58
   5  -4  -2   10.49    2.37
  -5   4   2   11.01    1.84
  -5   4   2    9.67    3.28
   5  -4  -1   95.81    4.51
   5  -4  -1   89.62    5.89
   5  -4  -1   95.09    3.60
   5  -4  -1   98.59    4.24
  -5   4   1   90.43    4.68
  -5   4   1   91.20    3.94
   5  -4   0   64.70    3.72
   5  -4   0   63.81    3.04
   5  -4   0   69.28    5.55
   5  -4   0   64.25    3.81
  -5   4   0   62.58    2.90
  -5   4   0   66.75    5.09
   5  -4   1    9.99    2.41
   5  -4   1    7.20    2.44
   5  -4   1    7.06    3.72
   5  -4   1   10.04    1.92
  -5   4  -1    8.66    1.72
  -5   4  -1    7.03    2.34
   5  -4   2  112.36    6.64
   5  -4   2  113.08    3.98
   5  -4   2  114.07    6.37
   5  -4   2  111.70    4.86
  -5   4  -2  103.69    3.70
  -5   4  -2  111.61    4.70
   5  -4   3   29.57    2.99
   5  -4   3   25.02    2.50
   5  -4   3   31.22    4.45
   5  -4   3   28.06    3.21
  -5   4  -3   21.87    2.21
  -5   4  -3   19.46    4.75
   5  -4   4   13.08    2.14
   5  -4   4   11.69    2.85
   5  -4   4   15.40    2.38
  -5   4  -4   13.24    1.97
  -5   4  -4   14.18    4.53
  -5   4  -4   10.87    2.31
   5  -4   5    0.49    1.97
   5  -4   5    0.42    1.46
   5  -4   5    0.22    1.64
  -5   4  -5    1.81    2.66
  -5   4  -5    0.91    2.98
  -5   4  -5    4.27    3.59
   5  -4   6   64.31    6.80
   5  -4   6   69.13    5.30
   5  -4   6   69.67    3.88
  -5   4  -6   69.22    5.09
  -5   4  -6   67.97    3.81
  -5   4  -6   73.02    6.81
   5  -4   7   -1.18    2.13
   5  -4   7   -0.12    1.65
   5  -4   7   -0.15    1.67
  -5   4  -7   -1.28    1.58
  -5   4  -7   -1.12    1.73
  -5   4  -7    1.30    2.16
   5  -4   8   10.22    4.82
   5  -4   8   -0.38    2.37
   5  -4   8   11.51    2.36
  -5   4  -8    8.87    2.32
  -5   4  -8   -0.05    3.67
  -5   4  -8    7.63    2.87
   5  -4   9    5.48    2.74
   5  -4   9    0.02    2.25
   5  -4   9    4.93    3.47
  -5   4  -9    4.21    3.53
  -5   4  -9   -0.02    2.15
  -5   4  -9    6.67    2.74
   5  -4  10   39.79    5.53
   5  -4  10   39.06    4.03
   5  -4  10   41.11    7.04
  -5   4 -10   40.10    3.88
  -5   4 -10   41.84    3.60
  -5   4 -10   37.74    4.38
   5  -4  11   30.49    3.62
   5  -4  11   35.24    4.01
   5  -4  11   33.58    4.54
  -5   4 -11   32.27    6.06
  -5   4 -11   31.51    3.49
  -5   4 -11   33.43    4.32
   5  -4  12    1.37    2.29
   5  -4  12    0.81    2.46
   5  -4  12   -0.50    2.03
  -5   4 -12   -1.26    2.27
  -5   4 -12    0.43    2.18
  -5   4 -12    0.13    1.81
   5  -3 -14    1.70    4.18
   5  -3 -14    0.36    2.11
   5  -3 -14    1.71    4.19
   5  -3 -13   12.81    3.19
   5  -3 -13    8.75    2.68
   5  -3 -13   13.42    5.11
   5  -3 -13   -0.04    2.62
   5  -3 -12  117.86    6.02
   5  -3 -12  121.96    7.74
   5  -3 -12  129.01    6.17
   5  -3 -12  120.69    5.29
   5  -3 -11    0.04    3.98
   5  -3 -11   13.30    2.76
   5  -3 -11    0.03    2.31
   5  -3 -11   13.43    2.76
   5  -3 -10    7.03    2.36
   5  -3 -10    8.77    2.47
   5  -3 -10   -0.33    2.23
   5  -3 -10   10.22    2.48
   5  -3  -9   63.46    2.90
   5  -3  -9   60.51    2.62
   5  -3  -9   66.39    3.80
   5  -3  -9   71.93    3.67
   5  -3  -9   66.15    3.83
   5  -3  -9   61.47    3.89
   5  -3  -8   23.93    2.41
   5  -3  -8   23.78    1.46
   5  -3  -8   24.87    2.72
   5  -3  -8   30.35    4.18
   5  -3  -8   26.62    2.88
   5  -3  -8   23.22    2.74
   5  -3  -7  201.87    5.99
   5  -3  -7  198.20    5.71
   5  -3  -7  211.34    6.15
   5  -3  -7  198.14    8.72
   5  -3  -7  210.39    6.49
   5  -3  -7  200.21    6.17
   5  -3  -6 1168.73   22.96
   5  -3  -6 1157.22   27.82
   5  -3  -6 1180.66   24.93
   5  -3  -6 1157.62   27.28
  -5   3   6 1098.29   23.30
  -5   3   6 1105.28   21.53
   5  -3  -5    0.85    2.17
   5  -3  -5    3.32    1.97
   5  -3  -5    2.50    1.58
   5  -3  -5    0.10    1.88
  -5   3   5    1.68    1.50
  -5   3   5    2.23    1.27
   5  -3  -4   50.61    2.49
   5  -3  -4   50.22    2.58
   5  -3  -4   48.13    3.01
   5  -3  -4   50.86    3.32
  -5   3   4   46.39    2.43
  -5   3   4   46.40    2.38
   5  -3  -3    1.25    1.33
   5  -3  -3    1.80    1.97
   5  -3  -3   -0.11    1.68
   5  -3  -3    1.48    1.54
  -5   3   3    1.03    1.27
  -5   3   3    5.61    1.44
   5  -3  -2   92.48    3.61
   5  -3  -2   95.84    4.13
   5  -3  -2   97.46    3.20
   5  -3  -2   93.33    3.92
  -5   3   2   89.17    2.96
  -5   3   2   96.48    3.43
   5  -3  -1   66.23    3.31
   5  -3  -1   70.22    2.82
   5  -3  -1   72.23    3.46
   5  -3  -1   68.55    3.53
  -5   3   1   66.99    3.68
  -5   3   1   61.26    4.67
   5  -3   0  465.35   10.73
   5  -3   0  477.93   12.79
   5  -3   0  480.80    9.84
   5  -3   0  474.41   10.79
  -5   3   0  452.13    9.23
  -5   3   0  465.16   10.45
   5  -3   1    8.52    1.53
   5  -3   1    7.35    2.26
   5  -3   1    8.48    2.22
   5  -3   1    8.09    2.10
  -5   3  -1    8.13    1.40
  -5   3  -1    5.80    2.10
   5  -3   2   15.82    2.64
   5  -3   2   21.17    2.77
   5  -3   2   24.60    2.48
  -5   3  -2   16.31    1.62
  -5   3  -2   17.98    2.23
  -5   3  -2   14.48    2.50
   5  -3   3  126.61    4.97
   5  -3   3  128.52    5.10
   5  -3   3  127.98    4.57
  -5   3  -3  123.25    3.61
  -5   3  -3  125.70    4.45
  -5   3  -3  131.88    4.86
   5  -3   4  178.50    6.10
   5  -3   4  182.32    4.93
   5  -3   4  186.14    5.68
  -5   3  -4  180.21    8.08
  -5   3  -4  168.07    4.60
  -5   3  -4  186.38    7.42
   5  -3   5   18.83    2.97
   5  -3   5   12.45    2.70
   5  -3   5   13.17    2.39
  -5   3  -5   11.52    1.79
  -5   3  -5   14.97    2.24
  -5   3  -5   12.17    4.14
   5  -3   6  117.15    5.08
   5  -3   6  120.59    4.05
   5  -3   6  119.07    6.43
  -5   3  -6  109.51    3.86
  -5   3  -6  113.37    4.45
  -5   3  -6  118.88    7.08
   5  -3   7  165.85    6.87
   5  -3   7  148.86    7.42
   5  -3   7  147.95    5.99
  -5   3  -7  140.75    4.80
  -5   3  -7  145.39    5.22
  -5   3  -7  147.06    8.09
   5  -3   8    4.31    2.55
   5  -3   8    5.73    3.11
   5  -3   8    3.50    2.18
  -5   3  -8    4.20    1.87
  -5   3  -8    4.77    3.39
  -5   3  -8    4.97    3.96
   5  -3   9   56.75    6.48
   5  -3   9   53.20    3.53
   5  -3   9   52.74    3.69
  -5   3  -9   55.04    3.54
  -5   3  -9   56.32    3.72
  -5   3  -9   61.54    4.29
   5  -3  10  196.72    7.00
   5  -3  10  200.63    6.88
   5  -3  10  188.86    7.78
  -5   3 -10  190.74    6.83
  -5   3 -10  204.86    7.12
  -5   3 -10  206.32    7.71
   5  -3  11  103.22    5.23
   5  -3  11  104.43    5.05
   5  -3  11   91.85    5.72
  -5   3 -11  103.15    5.14
  -5   3 -11  108.96    5.34
  -5   3 -11  107.98    8.35
   5  -3  12   59.00    6.58
   5  -3  12   56.10    7.35
   5  -3  12   53.71    4.21
  -5   3 -12   54.04    4.54
  -5   3 -12   47.11    4.20
  -5   3 -12   46.90    4.16
   5  -3  13   50.09    6.93
   5  -3  13   51.44    4.69
   5  -3  13   43.53    4.29
  -5   3 -13   46.52    4.44
  -5   3 -13   52.66    4.25
  -5   3 -13   47.15    4.60
   5  -3  14   17.70    3.82
   5  -3  14   15.42    3.60
   5  -3  14   16.36    5.19
  -5   3 -14   14.47    3.16
  -5   3 -14   18.50    5.34
  -5   3 -14   -0.00    3.13
   5  -2 -14  193.26    8.24
   5  -2 -14  185.39    6.65
   5  -2 -14  198.93    8.41
   5  -2 -13   -1.56    2.07
   5  -2 -13   -0.69    1.55
   5  -2 -13    0.51    2.08
   5  -2 -13    1.96    2.42
   5  -2 -12    3.27    4.35
   5  -2 -12    3.24    3.39
   5  -2 -12    5.45    2.67
   5  -2 -12    9.34    3.20
   5  -2 -11   99.58    5.02
   5  -2 -11   98.72    4.25
   5  -2 -11  107.54    5.09
   5  -2 -11  102.81    5.92
   5  -2 -10   85.20    4.37
   5  -2 -10   80.66    3.88
   5  -2 -10   91.41    6.24
   5  -2 -10   85.49    5.17
   5  -2  -9   89.76    2.45
   5  -2  -9   91.88    3.20
   5  -2  -9   97.75    4.22
   5  -2  -9   94.03    3.83
   5  -2  -9   96.20    5.79
   5  -2  -9   89.06    4.42
   5  -2  -8  462.86    8.72
   5  -2  -8  476.02   11.20
   5  -2  -8  473.36   10.99
   5  -2  -8  456.17   10.93
   5  -2  -8  459.39    8.75
   5  -2  -8  465.00   11.10
   5  -2  -7   15.37    2.21
   5  -2  -7   11.99    1.48
   5  -2  -7   22.26    3.85
   5  -2  -7   14.34    2.32
   5  -2  -7   11.31    3.55
   5  -2  -7   12.89    2.34
   5  -2  -6  419.83    9.52
   5  -2  -6  400.37    9.52
   5  -2  -6  407.95    9.17
   5  -2  -6  409.44    9.37
   5  -2  -6  393.69    9.00
   5  -2  -6  407.89    9.15
   5  -2  -5  212.27    6.29
   5  -2  -5  211.32    6.15
   5  -2  -5  202.17    5.24
   5  -2  -5  221.55    7.59
   5  -2  -5  202.66    5.31
   5  -2  -5  198.69    4.75
   5  -2  -4  404.72    8.50
   5  -2  -4  398.23    8.24
   5  -2  -4  385.78   10.76
   5  -2  -4  394.05    8.84
  -5   2   4  386.69    9.05
  -5   2   4  384.57    9.23
   5  -2  -3   49.62    2.47
   5  -2  -3   48.41    3.08
   5  -2  -3   46.31    2.84
   5  -2  -3   51.05    2.65
  -5   2   3   44.61    1.93
  -5   2   3   45.65    2.29
   5  -2  -2   14.37    2.29
   5  -2  -2   12.38    1.98
   5  -2  -2   24.85    2.33
  -5   2   2   17.56    1.51
  -5   2   2   29.64    2.19
   5  -2  -1   98.83    4.87
   5  -2  -1   89.84    5.08
   5  -2  -1   96.50    3.53
   5  -2  -1   94.11    4.84
  -5   2   1   87.79    3.21
  -5   2   1   87.88    3.23
   5  -2   0    2.19    1.72
   5  -2   0    5.31    1.05
   5  -2   0    7.40    2.61
  -5   2   0    3.23    2.60
  -5   2   0    4.26    0.98
  -5   2   0    6.02    1.58
   5  -2   1  136.47    4.45
   5  -2   1  143.83    3.43
   5  -2   1  146.91    6.06
  -5   2  -1  133.55    3.14
  -5   2  -1  132.95    4.15
  -5   2  -1  134.21    4.34
   5  -2   2  120.65    6.15
   5  -2   2  127.71    4.16
   5  -2   2  128.41    4.31
  -5   2  -2  119.25    2.99
  -5   2  -2  121.07    4.04
  -5   2  -2  118.34    5.98
   5  -2   3   50.72    3.19
   5  -2   3   42.81    2.00
   5  -2   3   50.11    2.94
  -5   2  -3   43.03    1.96
  -5   2  -3   55.64    4.29
  -5   2  -3   50.58    3.16
   5  -2   4   47.92    4.99
   5  -2   4   47.30    2.05
   5  -2   4   50.91    2.95
  -5   2  -4   46.02    3.16
  -5   2  -4   45.40    1.99
  -5   2  -4   58.67    4.28
   5  -2   5   19.45    2.61
   5  -2   5   19.33    2.52
   5  -2   5   19.86    2.39
  -5   2  -5   16.43    1.60
  -5   2  -5   21.84    2.26
  -5   2  -5   18.39    2.54
   5  -2   6   14.52    2.55
   5  -2   6   14.57    1.66
   5  -2   6   14.05    2.27
  -5   2  -6   15.12    1.59
  -5   2  -6   13.82    3.43
  -5   2  -6   13.82    2.46
   5  -2   7   16.03    2.70
   5  -2   7   15.27    2.93
   5  -2   7   19.72    2.45
  -5   2  -7   17.26    2.83
  -5   2  -7   15.52    2.32
  -5   2  -7   16.55    2.63
   5  -2   8   79.49    4.20
   5  -2   8   80.54    3.35
   5  -2   8   77.77    5.76
  -5   2  -8   77.27    4.65
  -5   2  -8   78.29    5.60
  -5   2  -8   75.16    4.20
   5  -2   9   74.89    3.57
   5  -2   9   76.21    4.32
   5  -2   9   75.38    6.08
  -5   2  -9   78.94    4.05
  -5   2  -9   71.23    3.49
  -5   2  -9   79.76    4.36
   5  -2  10    0.89    3.11
   5  -2  10    0.65    1.60
   5  -2  10    0.89    3.26
  -5   2 -10   -0.02    1.48
  -5   2 -10   -0.05    1.29
  -5   2 -10    0.24    1.58
   5  -2  11   16.15    2.80
   5  -2  11   18.54    3.16
   5  -2  11   18.54    4.92
  -5   2 -11   17.04    3.11
  -5   2 -11   20.58    2.86
  -5   2 -11   20.20    5.06
   5  -2  12  139.82    7.86
   5  -2  12  128.24    5.96
   5  -2  12  130.36    5.77
  -5   2 -12  123.14    5.58
  -5   2 -12  129.13    7.58
  -5   2 -12  130.83    5.63
   5  -2  13   49.29    6.27
   5  -2  13   49.95    4.24
   5  -2  13   54.73    4.14
  -5   2 -13   54.41    4.12
  -5   2 -13   52.36    4.04
  -5   2 -13   49.57    3.98
   5  -2  14    7.69    2.75
   5  -2  14    9.52    2.82
   5  -2  14   -0.93    2.79
  -5   2 -14    0.42    2.58
  -5   2 -14    7.30    4.08
  -5   2 -14    9.16    2.78
   5  -2  15    2.30    2.20
   5  -2  15   -0.10    2.29
   5  -2  15    0.13    2.47
  -5   2 -15   -0.04    2.17
  -5   2 -15   -0.24    1.89
  -5   2 -15    0.77    1.91
   5  -1 -14    0.94    4.42
   5  -1 -14    1.54    4.16
   5  -1 -13    4.90    2.99
   5  -1 -13    4.91    1.98
   5  -1 -13    9.41    4.45
   5  -1 -13    5.53    1.81
   5  -1 -12   24.36    3.53
   5  -1 -12   27.88    2.49
   5  -1 -12   35.20    5.45
   5  -1 -12   28.24    2.38
   5  -1 -11    0.04    2.97
   5  -1 -11   -0.48    1.29
   5  -1 -11    1.37    2.87
   5  -1 -11    0.84    1.19
   5  -1 -10    8.09    1.00
   5  -1 -10   10.51    2.51
   5  -1 -10    7.90    1.00
   5  -1 -10    9.00    3.84
   5  -1 -10    9.64    1.79
   5  -1 -10    8.76    2.97
   5  -1  -9  357.79    7.87
   5  -1  -9  347.14    8.37
   5  -1  -9  359.02    9.37
   5  -1  -9  347.38    6.66
   5  -1  -9  367.15    9.31
   5  -1  -9  363.87    9.81
   5  -1  -8  941.69   22.46
   5  -1  -8  927.08   17.06
   5  -1  -8  949.72   20.20
   5  -1  -8  949.42   19.38
   5  -1  -8  924.03   20.97
   5  -1  -8  954.67   17.68
   5  -1  -7   61.34    4.41
   5  -1  -7   64.95    3.06
   5  -1  -7   61.88    3.01
   5  -1  -7   61.42    2.93
   5  -1  -7   64.66    2.75
   5  -1  -7   63.45    3.18
   5  -1  -6  144.01    4.31
   5  -1  -6  148.80    4.15
   5  -1  -6  156.20    5.53
   5  -1  -6  148.24    4.62
   5  -1  -6  155.40    3.81
   5  -1  -6  149.18    5.57
   5  -1  -5  173.45    6.26
   5  -1  -5  177.17    4.13
   5  -1  -5  179.18    5.50
   5  -1  -5  173.43    4.50
   5  -1  -5  173.38    5.59
   5  -1  -5  178.90    4.33
   5  -1  -4  243.91    6.18
   5  -1  -4  238.86    5.48
   5  -1  -4  234.29    5.80
   5  -1  -4  240.07    6.05
   5  -1  -4  235.83    5.61
   5  -1  -4  229.92    6.01
   5  -1  -3    9.76    1.46
   5  -1  -3    8.21    1.07
   5  -1  -3    7.73    1.30
   5  -1  -3    8.81    1.12
   5  -1  -3   10.85    1.63
   5  -1  -3    9.59    1.49
   5  -1  -2    2.00    1.23
   5  -1  -2    0.36    1.13
   5  -1  -2    1.00    0.72
   5  -1  -2    1.36    1.17
  -5   1   2    0.94    1.11
  -5   1   2    1.68    1.14
   5  -1  -1    0.70    0.71
   5  -1  -1    3.71    2.00
   5  -1  -1    2.31    2.08
  -5   1   1    0.96    1.04
  -5   1   1    1.53    1.17
  -5   1   1    0.35    1.16
   5  -1   0   36.63    1.38
   5  -1   0   56.76    3.87
   5  -1   0   37.26    2.46
  -5   1   0   40.50    1.38
  -5   1   0   42.54    2.33
  -5   1   0   32.16    2.32
   5  -1   1  260.17    4.79
   5  -1   1  256.13    6.21
   5  -1   1  248.46    6.30
  -5   1  -1  280.22    6.61
  -5   1  -1  271.77    6.70
   5  -1   2 1147.03   22.77
   5  -1   2 1174.76   20.20
   5  -1   2 1143.98   22.30
  -5   1  -2 1113.40   19.81
  -5   1  -2 1135.01   23.67
  -5   1  -2 1154.02   24.35
   5  -1   3  236.57    7.86
   5  -1   3  243.22    4.44
   5  -1   3  241.23    5.97
  -5   1  -3  236.19    4.90
  -5   1  -3  229.95    5.66
  -5   1  -3  235.82    5.98
   5  -1   4   80.06    3.73
   5  -1   4   79.30    3.63
  -5   1  -4   58.85    2.84
  -5   1  -4   84.79    3.42
  -5   1  -4   54.77    3.28
   5  -1   5  601.79   13.08
   5  -1   5  630.59   12.41
   5  -1   5  617.02   13.30
  -5   1  -5  610.86   12.02
  -5   1  -5  607.49   12.88
  -5   1  -5  622.86   15.19
   5  -1   6   78.93    2.47
   5  -1   6   75.17    3.53
   5  -1   6   77.59    5.48
  -5   1  -6   77.12    3.28
  -5   1  -6   78.67    5.02
  -5   1  -6   78.45    3.63
   5  -1   7  232.95    6.67
   5  -1   7  219.92    5.27
   5  -1   7  228.92    6.53
  -5   1  -7  214.55    5.20
  -5   1  -7  230.32    6.69
  -5   1  -7  231.49    6.68
   5  -1   8  726.34   16.14
   5  -1   8  700.29   15.72
   5  -1   8  693.24   15.73
  -5   1  -8  695.20   14.10
  -5   1  -8  708.92   17.85
  -5   1  -8  716.49   15.92
   5  -1   9  305.37    8.73
   5  -1   9  291.23    8.09
   5  -1   9  291.27    8.33
  -5   1  -9  283.72    6.94
  -5   1  -9  290.81    8.00
  -5   1  -9  303.04    8.01
   5  -1  10  160.98    8.01
   5  -1  10  163.62    6.49
   5  -1  10  154.48    7.50
  -5   1 -10  155.46    4.89
  -5   1 -10  161.32    5.72
  -5   1 -10  169.56    7.55
   5  -1  11  144.89    4.97
   5  -1  11  138.20    7.39
   5  -1  11  138.95    7.86
  -5   1 -11  134.32    4.73
  -5   1 -11  142.15    5.46
  -5   1 -11  138.96    5.23
   5  -1  12    3.72    3.24
   5  -1  12    7.44    3.56
   5  -1  12    0.13    1.86
  -5   1 -12   -0.24    2.22
  -5   1 -12    3.34    1.90
  -5   1 -12    5.35    2.05
   5  -1  13   27.11    4.62
   5  -1  13   19.96    3.30
   5  -1  13   22.61    2.94
  -5   1 -13   18.91    2.78
  -5   1 -13   19.35    3.08
  -5   1 -13    6.61    4.29
   5  -1  14   38.17    5.63
   5  -1  14   41.32    4.09
   5  -1  14   48.45    5.74
  -5   1 -14   47.19    3.99
  -5   1 -14   40.21    3.75
  -5   1 -14   40.43    3.41
   5  -1  15    9.84    2.97
   5  -1  15   13.20    3.97
   5  -1  15   -1.14    2.81
  -5   1 -15   10.40    2.81
  -5   1 -15   -0.18    2.84
  -5   1 -15   12.45    3.78
   5   0 -14   22.71    4.06
   5   0 -13   51.53    7.05
   5   0 -13   53.56    4.43
   5   0 -12  189.06    7.24
   5   0 -12  201.04    7.32
   5   0 -11  269.16   10.90
   5   0 -11  253.09    6.16
   5   0 -11  264.64    7.53
   5   0 -11  283.98    8.26
   5   0 -10  159.65    5.92
   5   0 -10  159.58    3.71
   5   0 -10  157.92    4.31
   5   0 -10  162.92    5.56
   5   0 -10  174.17    5.81
   5   0 -10  160.21    4.66
   5   0  -9   10.48    3.75
   5   0  -9   10.18    2.49
   5   0  -9   13.07    2.02
   5   0  -9   11.90    1.51
   5   0  -9   13.21    2.23
   5   0  -9   10.99    2.08
   5   0  -8   18.16    2.53
   5   0  -8   18.57    2.23
   5   0  -8   19.22    2.12
   5   0  -8   17.79    1.59
   5   0  -8   16.14    2.12
   5   0  -8   17.70    1.52
   5   0  -7    0.02    1.18
   5   0  -7    0.41    1.33
   5   0  -7    0.27    1.43
   5   0  -7    0.29    1.78
   5   0  -7   -0.49    1.51
   5   0  -7    0.84    0.89
   5   0  -6  388.07    9.49
   5   0  -6  384.59    8.90
   5   0  -6  386.26    8.66
   5   0  -6  383.64    8.97
   5   0  -6  384.24    7.74
   5   0  -6  387.07    8.06
   5   0  -5    0.21    0.81
   5   0  -5   -0.13    1.36
   5   0  -5    0.54    0.77
   5   0  -5   -0.24    0.75
   5   0  -5   -0.34    1.20
   5   0  -5    0.28    1.33
   5   0  -4    1.25    0.88
   5   0  -4    1.86    1.34
   5   0  -4    0.87    0.99
   5   0  -4    0.59    1.76
   5   0  -3  105.02    3.01
   5   0  -3  103.35    2.50
   5   0  -3   98.90    3.10
   5   0  -3  104.27    3.11
   5   0  -3  101.22    3.28
   5   0  -3  102.73    2.54
   5   0  -2  658.06   12.56
   5   0  -2  651.93   12.41
   5   0  -2  635.82   12.01
   5   0  -2  662.51   11.07
   5   0  -2  659.69   12.79
   5   0  -2  648.95   10.97
   5   0  -1   65.25    3.46
   5   0  -1   61.97    2.35
   5   0  -1   62.74    1.47
   5   0  -1   68.80    3.84
   5   0  -1   65.54    1.94
  -5   0   1   61.57    2.23
   5   0   0  402.13    8.12
   5   0   0  408.11    6.65
   5   0   0  384.52    6.00
   5   0   0  396.74    8.38
  -5   0   0  384.09    8.88
   5   0   1    2.32    1.17
   5   0   1    2.35    0.63
   5   0   1    0.50    2.16
  -5   0  -1    9.49    1.30
  -5   0  -1    2.95    1.52
   5   0   2   42.85    1.30
   5   0   2   38.42    3.64
   5   0   2   44.57    2.70
  -5   0  -2   53.12    2.45
  -5   0  -2   41.98    1.21
  -5   0  -2   47.04    2.66
   5   0   3 2285.79   39.84
   5   0   3 2192.37   45.26
   5   0   3 2181.22   43.33
  -5   0  -3 2132.81   42.24
  -5   0  -3 2188.56   38.04
  -5   0  -3 2184.26   45.03
   5   0   4    6.59    0.63
   5   0   4    8.47    2.77
   5   0   4    7.23    2.91
  -5   0  -4    6.22    0.60
  -5   0  -4    5.62    1.63
  -5   0  -4    5.65    1.75
   5   0   5   71.32    4.93
   5   0   5   49.26    3.11
  -5   0  -5   54.38    2.25
  -5   0  -5   80.11    3.46
  -5   0  -5   65.46    4.80
   5   0   6 1828.50   37.15
   5   0   6 1865.23   33.72
   5   0   6 1828.67   39.53
  -5   0  -6 1770.55   38.00
  -5   0  -6 1847.08   37.08
  -5   0  -6 1797.02   32.54
   5   0   7  569.18   12.77
   5   0   7  576.51   10.75
   5   0   7  578.38   15.18
  -5   0  -7  570.79   12.71
  -5   0  -7  582.95   12.78
  -5   0  -7  560.78   11.51
   5   0   8  133.58    3.51
   5   0   8  136.15    4.63
   5   0   8  132.89    6.77
  -5   0  -8  129.68    3.39
  -5   0  -8  130.84    4.72
  -5   0  -8  137.90    4.59
   5   0   9    6.27    3.55
   5   0   9    5.22    1.89
   5   0   9    5.26    1.35
  -5   0  -9    6.17    2.11
  -5   0  -9    6.47    2.06
  -5   0  -9    6.09    1.92
   5   0  10    5.61    3.02
   5   0  10    3.75    3.60
   5   0  10    4.92    2.38
  -5   0 -10    4.35    1.46
  -5   0 -10    3.75    2.10
  -5   0 -10    7.01    1.82
   5   0  11   -0.34    2.51
   5   0  11    1.62    1.82
   5   0  11    0.33    1.29
  -5   0 -11   -0.29    2.11
  -5   0 -11   -1.31    2.39
  -5   0 -11   -0.70    1.74
   5   0  12   85.94    4.09
   5   0  12   97.10    4.98
   5   0  12   94.87    3.95
  -5   0 -12   91.59    3.88
  -5   0 -12   91.99    4.62
  -5   0 -12   88.27    4.01
   5   0  13   -0.21    1.27
   5   0  13    0.47    1.64
   5   0  13   -0.11    1.27
  -5   0 -13    0.30    1.66
  -5   0 -13    1.02    1.98
  -5   0 -13    1.21    1.62
   5   0  14    5.64    2.09
   5   0  14    4.28    2.62
   5   0  14    0.63    2.15
  -5   0 -14    4.63    2.28
  -5   0 -14    7.10    2.57
  -5   0 -14    6.38    3.26
   5   0  15   32.58    3.22
   5   0  15   33.54    4.00
   5   0  15   36.78    5.37
  -5   0 -15   35.05    3.41
  -5   0 -15   34.31    5.91
  -5   0 -15   28.13    2.86
   5   0  16    6.69    2.11
   5   0  16   -0.10    2.87
   5   0  16   -0.04    2.60
  -5   0 -16    3.62    2.74
  -5   0 -16    0.03    2.91
  -5   0 -16   10.39    2.07
   5   1 -13   24.81    3.94
   5   1 -13   22.19    3.66
   5   1 -12   35.97    4.00
   5   1 -12   41.76    5.65
   5   1 -11   27.14    5.14
   5   1 -11   25.54    3.04
   5   1 -10   35.92    3.24
   5   1 -10   37.11    2.90
   5   1 -10   34.75    1.67
   5   1 -10   34.66    1.57
   5   1 -10   35.71    2.82
   5   1 -10   34.05    3.02
   5   1  -9    2.00    1.73
   5   1  -9    1.32    1.73
   5   1  -9    1.04    0.85
   5   1  -9    1.79    1.33
   5   1  -9    1.98    1.58
   5   1  -9    2.11    1.08
   5   1  -8  411.38   11.36
   5   1  -8  403.40    8.53
   5   1  -8  413.63    9.60
   5   1  -8  410.82    8.55
   5   1  -8  414.03    9.39
   5   1  -8  403.85    8.25
   5   1  -7    4.99    1.52
   5   1  -7    3.45    1.19
   5   1  -7    3.79    0.90
   5   1  -7    3.63    1.38
   5   1  -7    3.44    1.93
   5   1  -7    3.89    0.94
   5   1  -6   98.53    3.19
   5   1  -6  100.96    3.12
   5   1  -6  103.12    3.32
   5   1  -6  103.68    3.51
   5   1  -6  104.17    3.13
   5   1  -6   99.16    4.12
   5   1  -5  342.83    8.12
   5   1  -5  339.02    6.54
   5   1  -5  349.93    8.39
   5   1  -5  342.84    6.41
   5   1  -5  341.97    7.84
   5   1  -5  351.24    8.44
   5   1  -4  384.41    7.29
   5   1  -4  388.86    8.07
   5   1  -4  385.89    7.22
   5   1  -4  381.35    8.19
   5   1  -4  394.70    7.34
   5   1  -4  379.02    9.20
   5   1  -3  173.75    3.49
   5   1  -3  173.59    4.25
   5   1  -3  173.77    3.73
   5   1  -3  170.21    3.79
   5   1  -3  171.95    3.38
   5   1  -3  173.88    5.54
   5   1  -2  550.38    9.08
   5   1  -2  549.35   11.97
   5   1  -2  548.89   10.06
   5   1  -2  556.83    9.06
   5   1  -2  545.97   10.86
  -5  -1   2  528.85    9.70
   5   1  -1  124.03    2.58
   5   1  -1  121.71    4.76
   5   1  -1  136.92    4.36
   5   1  -1  129.16    2.18
   5   1  -1  123.46    3.81
  -5  -1   1  125.68    3.20
   5   1   0   59.68    1.17
   5   1   0   59.96    3.04
   5   1   0   59.75    3.48
   5   1   0   62.49    1.18
   5   1   0   60.27    2.57
  -5  -1   0   56.74    2.01
   5   1   1  395.43    8.92
   5   1   1  400.11    9.50
   5   1   1  395.34    9.62
  -5  -1  -1  377.71    8.48
   5   1   2   73.86    3.77
   5   1   2   72.77    3.03
   5   1   2   74.33    2.91
  -5  -1  -2   73.99    2.69
   5   1   3   15.83    2.66
   5   1   3   13.25    1.77
   5   1   3   14.00    1.97
  -5  -1  -3   18.51    1.76
   5   1   4 1073.44   22.34
   5   1   4 1055.07   20.29
   5   1   4 1069.55   22.52
  -5  -1  -4 1039.05   20.15
  -5  -1  -4 1053.36   15.33
   5   1   5  120.70    4.86
   5   1   5  129.62    2.24
   5   1   5  134.63    6.39
  -5  -1  -5  162.26    5.10
  -5  -1  -5  129.37    2.70
  -5  -1  -5  139.86    4.95
   5   1   6  275.18    6.95
   5   1   6  281.17    5.21
   5   1   6  271.31    8.33
  -5  -1  -6  268.02    4.50
  -5  -1  -6  271.47    8.23
  -5  -1  -6  283.64    6.79
   5   1   7  377.69    9.04
   5   1   7  390.09    7.45
   5   1   7  376.23    8.56
  -5  -1  -7  371.75    6.53
  -5  -1  -7  367.46    8.53
  -5  -1  -7  393.84   10.43
   5   1   8   26.66    1.49
   5   1   8   32.32    2.86
   5   1   8   25.63    2.38
  -5  -1  -8   32.46    2.60
  -5  -1  -8   24.44    1.46
  -5  -1  -8   29.73    3.75
   5   1   9   12.94    3.15
   5   1   9   10.93    1.31
   5   1   9    7.99    2.46
  -5  -1  -9   10.81    1.31
  -5  -1  -9   12.07    3.54
  -5  -1  -9   14.07    3.10
   5   1  10   47.67    4.38
   5   1  10   52.89    5.55
   5   1  10   51.35    2.34
  -5  -1 -10   46.39    3.28
  -5  -1 -10   53.10    5.04
  -5  -1 -10   48.13    4.21
   5   1  11  109.93    5.56
   5   1  11  109.40    7.07
   5   1  11  115.52    4.98
  -5  -1 -11  107.71    4.82
  -5  -1 -11  113.93    4.79
  -5  -1 -11  112.33    5.51
   5   1  12    0.86    1.46
   5   1  12    0.53    2.06
   5   1  12    0.63    1.38
  -5  -1 -12   -0.79    2.14
  -5  -1 -12    2.36    3.06
  -5  -1 -12    0.92    1.39
   5   1  13  335.76    8.59
   5   1  13  342.73   10.17
   5   1  13  347.55    8.79
  -5  -1 -13  320.85   10.18
  -5  -1 -13  334.92   12.26
  -5  -1 -13  339.87    8.35
   5   1  14   46.10    4.13
   5   1  14   39.50    2.94
   5   1  14   43.66    2.75
  -5  -1 -14   44.59    4.79
  -5  -1 -14   47.98    5.90
  -5  -1 -14   44.97    3.05
   5   1  15   44.98    6.66
   5   1  15   38.39    4.38
   5   1  15   36.83    2.73
  -5  -1 -15   33.27    5.03
  -5  -1 -15   38.08    3.75
  -5  -1 -15   32.25    3.09
   5   1  16   32.82    2.95
   5   1  16   31.49    2.58
   5   1  16   37.62    6.70
  -5  -1 -16   33.04    3.56
  -5  -1 -16   31.92    3.90
  -5  -1 -16   34.60    4.99
   5   1  17   -0.05    2.14
  -5  -1 -17    5.02    2.77
  -5  -1 -17    3.61    4.48
  -5  -1 -17    3.74    2.53
   5   2 -13  112.83    6.26
   5   2 -12    3.25    2.62
   5   2 -12    3.48    2.46
   5   2 -11    1.56    3.09
   5   2 -11    1.05    1.23
   5   2 -11   -0.02    1.85
   5   2 -11    0.01    1.79
   5   2 -10   18.86    2.99
   5   2 -10   15.68    2.71
   5   2 -10   17.98    4.08
   5   2 -10   19.18    1.83
   5   2  -9    7.96    1.63
   5   2  -9    7.83    2.11
   5   2  -9    7.67    1.99
   5   2  -9    7.84    2.38
   5   2  -8  137.16    4.51
   5   2  -8  132.22    4.02
   5   2  -8  124.44    2.76
   5   2  -8  125.30    2.37
   5   2  -8  139.39    4.45
   5   2  -8  127.86    3.88
   5   2  -7   79.58    3.20
   5   2  -7   74.82    3.05
   5   2  -7   73.36    2.17
   5   2  -7   70.96    2.10
   5   2  -7   77.12    3.03
   5   2  -7   74.95    2.88
   5   2  -6   72.81    2.80
   5   2  -6   70.66    1.69
   5   2  -6   72.78    4.04
   5   2  -6   71.82    2.66
   5   2  -6   71.47    2.78
   5   2  -6   67.31    1.68
  -5  -2   6    1.25    1.19
   5   2  -5  188.54    4.47
   5   2  -5  183.96    3.99
   5   2  -5  189.73    4.15
   5   2  -5  186.44    4.82
   5   2  -5  190.19    4.37
   5   2  -5  188.83    4.83
  -5  -2   5    2.04    1.13
   5   2  -4    1.27    0.92
   5   2  -4    2.80    1.30
   5   2  -4    1.76    0.65
   5   2  -4    2.11    1.10
   5   2  -4    2.19    0.84
   5   2  -4    1.92    1.29
   5   2  -3    6.66    0.86
   5   2  -3    5.06    1.45
   5   2  -3    5.79    1.28
   5   2  -3    7.02    2.31
   5   2  -3    5.63    0.85
   5   2  -3    7.94    1.58
   5   2  -2  201.09    4.14
   5   2  -2  199.07    3.91
   5   2  -2  200.53    6.21
   5   2  -2  197.15    3.51
   5   2  -2  203.77    5.11
  -5  -2   2  189.24    3.68
   5   2  -1    0.74    0.72
   5   2  -1    0.79    0.62
   5   2  -1    0.45    0.58
   5   2  -1    1.70    1.18
   5   2  -1    0.05    1.11
  -5  -2   1    0.41    0.66
   5   2   0   77.61    2.36
   5   2   0   79.77    2.88
   5   2   0   80.97    1.37
   5   2   0   80.14    1.33
   5   2   0   74.02    3.08
  -5  -2   0   75.86    3.00
   5   2   1  552.29   12.16
   5   2   1  554.56   11.34
   5   2   1  552.39   11.06
  -5  -2  -1  525.52    9.70
   5   2   2   20.10    1.64
   5   2   2   17.69    1.85
   5   2   2   18.25    2.02
  -5  -2  -2   25.12    1.67
   5   2   3  931.19   17.80
   5   2   3  907.47   17.57
   5   2   3  922.57   18.04
  -5  -2  -3  923.74   17.57
   5   2   4   66.46    3.16
   5   2   4   50.42    3.12
   5   2   4   37.85    4.08
  -5  -2  -4   71.13    3.09
   5   2   5 1818.83   37.70
   5   2   5 1827.22   35.75
   5   2   5 1834.98   36.01
  -5  -2  -5 1816.16   35.14
  -5  -2  -5 1685.97   26.01
  -5  -2  -5 1736.82   26.75
   5   2   6   26.87    3.27
   5   2   6   27.77    2.32
   5   2   6   30.29    2.53
  -5  -2  -6   29.53    1.13
  -5  -2  -6   35.08    2.38
  -5  -2  -6   27.82    1.07
   5   2   7  259.39    6.27
   5   2   7  275.70    7.12
   5   2   7  262.79    6.46
  -5  -2  -7  257.64    4.97
  -5  -2  -7  265.92    6.71
  -5  -2  -7  253.46    4.77
   5   2   8  860.90   17.12
   5   2   8  864.87   20.43
   5   2   8  859.79   17.35
  -5  -2  -8  853.86   14.85
  -5  -2  -8  859.41   17.88
  -5  -2  -8  853.57   15.35
   5   2   9   80.35    3.17
   5   2   9   83.06    4.05
   5   2   9   76.61    3.28
  -5  -2  -9   76.95    3.08
  -5  -2  -9   82.47    3.84
  -5  -2  -9   77.33    2.26
   5   2  10   60.45    2.80
   5   2  10   62.94    3.80
   5   2  10   62.06    2.94
  -5  -2 -10   57.41    2.25
  -5  -2 -10   62.28    3.57
  -5  -2 -10   59.95    2.94
   5   2  11  200.02    7.12
   5   2  11  208.98    5.52
   5   2  11  209.95    6.95
  -5  -2 -11  202.41    4.92
  -5  -2 -11  201.17    6.42
  -5  -2 -11  192.53    5.81
   5   2  12   62.46    4.52
   5   2  12   62.29    4.16
   5   2  12   66.37    4.32
  -5  -2 -12   63.90    2.87
  -5  -2 -12   68.99    4.09
  -5  -2 -12   63.71    3.83
   5   2  13  112.44    4.02
   5   2  13  119.66    5.62
   5   2  13  109.28    5.02
  -5  -2 -13  108.38    5.40
  -5  -2 -13  112.75    5.18
  -5  -2 -13  110.49    5.14
   5   2  14    4.71    2.59
   5   2  14    6.43    2.74
   5   2  14    3.38    1.52
  -5  -2 -14    1.59    2.77
  -5  -2 -14    2.89    2.31
  -5  -2 -14    2.15    1.57
   5   2  15    1.16    1.40
   5   2  15    0.16    2.05
   5   2  15   -1.40    3.88
  -5  -2 -15   -0.19    1.71
  -5  -2 -15    2.21    2.25
  -5  -2 -15    1.54    1.65
   5   2  16    2.97    2.78
   5   2  16    4.98    3.09
   5   2  16    4.04    1.58
  -5  -2 -16    1.22    2.14
  -5  -2 -16    3.78    4.35
  -5  -2 -16    3.16    1.97
   5   2  17   62.30    5.43
  -5  -2 -17   65.64    6.38
  -5  -2 -17   70.45    5.34
   5   3 -12    1.06    2.33
   5   3 -12    2.12    4.00
   5   3 -11    0.60    1.46
   5   3 -11    1.62    3.26
   5   3 -11    0.38    1.28
  -5  -3  11   -0.30    1.22
  -5  -3  11   -0.03    1.85
   5   3 -10   81.83    5.31
   5   3 -10   89.72    4.60
  -5  -3  10   85.53    4.56
  -5  -3  10   82.80    3.48
   5   3  -9    3.14    1.72
   5   3  -9    3.91    2.01
  -5  -3   9    0.02    1.02
  -5  -3   9    0.01    2.13
   5   3  -8    4.65    1.75
   5   3  -8    5.08    1.92
  -5  -3   8    3.94    1.56
  -5  -3   8    3.79    1.78
   5   3  -7  455.63   10.48
   5   3  -7  464.29   12.26
  -5  -3   7  425.71    9.68
  -5  -3   7  438.65   10.05
   5   3  -6   47.08    3.82
   5   3  -6   45.79    2.72
  -5  -3   6   44.12    3.72
  -5  -3   6   40.93    3.60
   5   3  -5   10.07    1.81
   5   3  -5   10.20    1.47
   5   3  -5    9.03    0.53
   5   3  -5    8.16    0.52
  -5  -3   5   11.81    2.77
  -5  -3   5   10.35    1.49
   5   3  -4   95.80    2.12
   5   3  -4   99.57    3.52
   5   3  -4  101.21    3.84
   5   3  -4   93.58    1.73
  -5  -3   4   94.50    4.69
  -5  -3   4   91.54    2.73
   5   3  -3  292.54    5.33
   5   3  -3  284.70    5.21
   5   3  -3  284.08    6.77
   5   3  -3  296.96    6.62
  -5  -3   3  282.49    6.72
  -5  -3   3  285.78    6.37
   5   3  -2   85.15    2.57
   5   3  -2   85.57    2.82
   5   3  -2   78.52    3.30
  -5  -3   2   85.84    3.24
  -5  -3   2   81.26    2.35
  -5  -3   2   82.05    2.69
   5   3  -1  664.27   12.29
   5   3  -1  658.18   10.79
   5   3  -1  664.27   13.45
  -5  -3   1  637.10   12.93
  -5  -3   1  636.12   10.94
   5   3   0  705.24   11.32
   5   3   0  696.66   13.29
   5   3   0  682.65   13.86
  -5  -3   0  679.38   13.49
  -5  -3   0  659.61   11.66
  -5  -3   0  669.10   10.69
   5   3   1  120.58    3.71
   5   3   1  121.72    1.81
   5   3   1  120.30    3.03
  -5  -3  -1  116.23    2.82
  -5  -3  -1  115.37    1.73
  -5  -3  -1  114.50    3.59
   5   3   2  196.14    6.76
   5   3   2  200.03    5.55
   5   3   2  199.05    5.75
  -5  -3  -2  167.96    5.49
   5   3   3 3658.22   75.22
   5   3   3 3693.33   75.41
   5   3   3 3735.85   77.08
  -5  -3  -3 3679.30   74.60
   5   3   4    2.30    1.47
   5   3   4    2.23    2.47
   5   3   4    2.76    1.37
  -5  -3  -4    2.19    1.25
   5   3   5  111.95    3.57
   5   3   5  112.93    3.71
   5   3   5  108.57    3.64
  -5  -3  -5  107.32    1.53
  -5  -3  -5  112.41    3.46
   5   3   6  450.14   10.79
   5   3   6  447.76    9.75
   5   3   6  452.05    9.63
  -5  -3  -6  440.78    6.95
  -5  -3  -6  447.75    9.63
  -5  -3  -6  443.69    6.93
   5   3   7   66.89    2.80
   5   3   7   64.09    3.27
   5   3   7   63.36    2.93
  -5  -3  -7   63.00    1.47
  -5  -3  -7   63.65    3.14
  -5  -3  -7   61.37    1.81
   5   3   8   19.91    1.97
   5   3   8   18.92    2.50
   5   3   8   18.81    3.20
  -5  -3  -8   19.04    1.07
  -5  -3  -8   20.56    3.79
  -5  -3  -8   21.04    1.53
   5   3   9   55.37    2.64
   5   3   9   53.84    3.66
   5   3   9   52.62    4.12
  -5  -3  -9   50.16    1.81
  -5  -3  -9   53.09    3.35
  -5  -3  -9   50.96    1.72
   5   3  10 1035.73   21.39
   5   3  10 1111.38   27.54
   5   3  10 1046.97   21.48
  -5  -3 -10 1010.57   20.61
  -5  -3 -10 1036.69   23.39
  -5  -3 -10 1020.35   19.27
   5   3  11  715.25   14.80
   5   3  11  732.73   17.27
   5   3  11  690.34   14.60
  -5  -3 -11  688.82   15.02
  -5  -3 -11  701.16   16.18
  -5  -3 -11  692.75   14.82
   5   3  12   44.23    2.43
   5   3  12   46.26    3.93
   5   3  12   46.58    3.86
  -5  -3 -12   42.09    2.42
  -5  -3 -12   42.64    5.64
  -5  -3 -12   46.08    3.31
   5   3  13   59.09    2.84
   5   3  13   55.34    2.70
   5   3  13   56.72    4.53
  -5  -3 -13   57.56    4.27
  -5  -3 -13   63.15    6.45
  -5  -3 -13   57.22    2.82
   5   3  14    7.92    2.87
   5   3  14    9.69    2.58
   5   3  14   10.65    3.15
  -5  -3 -14    9.11    2.07
  -5  -3 -14   10.07    2.98
  -5  -3 -14    7.25    1.92
   5   3  15   46.71    2.69
   5   3  15   49.06    2.56
   5   3  15   50.06    7.27
  -5  -3 -15   52.21    3.42
  -5  -3 -15   53.18    4.63
  -5  -3 -15   52.82    3.25
   5   3  16   58.05    5.25
  -5  -3 -16   56.97    5.69
  -5  -3 -16   74.11    5.24
  -5  -3 -16   60.59    3.83
   5   3  17    1.27    2.97
  -5  -3 -17    0.04    1.73
  -5  -3 -17    0.96    3.61
  -5  -3 -17   -1.09    2.70
   5   4 -11    9.50    3.09
   5   4 -11   10.80    2.59
  -5  -4  11    8.07    2.01
  -5  -4  11    0.01    2.75
   5   4 -10    3.25    3.05
   5   4 -10    1.01    2.27
  -5  -4  10   -0.05    1.54
  -5  -4  10    0.07    1.21
   5   4  -9   53.24    5.24
   5   4  -9   48.22    3.67
  -5  -4   9   43.72    3.03
  -5  -4   9   47.99    3.47
   5   4  -8   14.63    2.39
   5   4  -8   11.21    3.85
  -5  -4   8   10.48    2.83
  -5  -4   8    0.05    2.01
   5   4  -7   66.78    3.65
   5   4  -7   67.17    5.03
  -5  -4   7   71.82    3.48
  -5  -4   7   75.84    3.42
   5   4  -6    1.24    1.64
   5   4  -6    1.11    1.45
  -5  -4   6    1.43    1.60
  -5  -4   6    1.90    2.34
   5   4  -5  373.28    9.36
   5   4  -5  376.21    9.91
  -5  -4   5  353.64    8.82
  -5  -4   5  355.62    8.03
   5   4  -4   33.60    2.04
   5   4  -4   34.27    2.78
  -5  -4   4   30.04    2.64
  -5  -4   4   35.55    3.01
   5   4  -3   21.34    2.44
   5   4  -3   20.72    0.54
   5   4  -3   24.17    1.61
   5   4  -3   21.72    0.74
  -5  -4   3   24.42    2.40
  -5  -4   3   21.76    1.60
   5   4  -2  187.57    4.91
   5   4  -2  176.65    3.07
   5   4  -2  181.47    5.37
  -5  -4   2  174.87    3.83
  -5  -4   2  172.86    5.15
  -5  -4   2  172.14    3.28
   5   4  -1   53.66    3.12
   5   4  -1   56.62    2.44
   5   4  -1   52.52    1.56
  -5  -4   1   51.49    2.34
  -5  -4   1   52.69    1.91
  -5  -4   1   49.74    4.46
   5   4   0  524.32   13.34
   5   4   0  519.22    8.75
   5   4   0  528.01   10.22
  -5  -4   0  513.26    9.25
  -5  -4   0  501.52    9.50
  -5  -4   0  522.89   11.30
   5   4   1    9.19    2.14
   5   4   1   11.09    1.05
   5   4   1   11.21    1.21
  -5  -4  -1    9.95    0.69
  -5  -4  -1   10.40    3.15
  -5  -4  -1    9.15    1.70
   5   4   2   87.04    3.64
   5   4   2   84.55    1.89
   5   4   2   81.15    2.72
  -5  -4  -2   81.74    1.89
  -5  -4  -2   83.37    3.51
  -5  -4  -2   80.05    2.49
   5   4   3  302.24    8.85
   5   4   3  297.49    6.54
   5   4   3  302.44    4.70
  -5  -4  -3  284.24    6.08
  -5  -4  -3  291.99    4.64
  -5  -4  -3  288.64    8.55
   5   4   4    3.78    1.53
   5   4   4    4.11    1.34
   5   4   4    2.23    0.54
   5   4   4    0.24    1.60
  -5  -4  -4    3.55    1.25
  -5  -4  -4    2.81    0.59
  -5  -4  -4    4.17    1.57
   5   4   5   33.91    3.75
   5   4   5   34.65    2.39
   5   4   5   31.14    2.68
  -5  -4  -5   46.10    2.44
  -5  -4  -5   30.95    1.21
   5   4   6  144.66    4.42
   5   4   6  151.18    6.21
   5   4   6  147.82    4.49
  -5  -4  -6  145.54    4.28
  -5  -4  -6  146.08    2.95
  -5  -4  -6  143.83    2.99
   5   4   7   -0.22    1.45
   5   4   7    8.76    1.84
   5   4   7    0.27    1.49
  -5  -4  -7    1.00    1.95
  -5  -4  -7    0.30    0.73
  -5  -4  -7   -0.05    0.46
   5   4   8   18.92    3.36
   5   4   8   24.81    2.76
   5   4   8   18.47    2.28
  -5  -4  -8   16.85    1.21
  -5  -4  -8   36.60    2.90
   5   4   9 1621.37   34.66
   5   4   9 1647.97   35.05
   5   4   9 1598.68   32.55
  -5  -4  -9 1588.31   30.73
  -5  -4  -9 1595.49   34.02
  -5  -4  -9 1616.56   29.76
   5   4  10  393.43   10.42
   5   4  10  372.06    9.96
   5   4  10  371.02   10.19
  -5  -4 -10  368.15    8.41
  -5  -4 -10  364.98    9.57
  -5  -4 -10  364.68    7.29
   5   4  11   80.18    4.35
   5   4  11   84.63    6.74
   5   4  11   80.43    3.27
  -5  -4 -11   76.99    2.80
  -5  -4 -11   82.72    4.40
  -5  -4 -11   79.97    2.69
   5   4  12    0.05    1.16
   5   4  12    0.91    2.09
   5   4  12    1.10    1.25
  -5  -4 -12   -0.16    0.99
  -5  -4 -12    0.64    1.74
  -5  -4 -12    0.18    0.95
   5   4  13    7.00    1.54
   5   4  13    6.52    4.89
   5   4  13    7.66    1.70
  -5  -4 -13    5.01    1.69
  -5  -4 -13    8.88    4.22
  -5  -4 -13    4.61    1.59
   5   4  14    1.99    2.31
   5   4  14    4.56    2.72
   5   4  14    1.23    2.15
  -5  -4 -14    1.30    1.57
  -5  -4 -14    4.34    4.00
  -5  -4 -14    1.08    2.40
   5   4  15   34.83    2.49
   5   4  15   33.20    2.38
   5   4  15   41.33    7.25
  -5  -4 -15   39.73    4.67
  -5  -4 -15   40.65    4.57
  -5  -4 -15   32.29    2.94
   5   4  16  140.24    7.68
  -5  -4 -16  136.03    5.56
  -5  -4 -16  139.08    7.30
  -5  -4 -16  133.22    5.32
   5   4  17   30.40    7.50
  -5  -4 -17   29.68    5.49
  -5  -4 -17   21.84    7.40
  -5  -4 -17   38.32    3.37
   5   5 -10   41.26    4.27
   5   5 -10   49.76    6.15
  -5  -5  10   38.60    3.42
  -5  -5  10   40.68    4.02
   5   5  -9   30.96    5.34
   5   5  -9   27.46    3.41
  -5  -5   9   23.21    2.95
  -5  -5   9   27.55    3.24
   5   5  -8    0.82    3.04
   5   5  -8    0.14    2.82
  -5  -5   8    0.24    2.41
  -5  -5   8   -0.00    2.46
   5   5  -7   22.87    4.83
   5   5  -7   23.44    2.76
  -5  -5   7   26.39    2.85
  -5  -5   7   22.10    2.72
   5   5  -6   18.52    2.43
   5   5  -6   24.50    4.43
  -5  -5   6   21.65    2.66
  -5  -5   6   17.60    2.31
   5   5  -5   24.23    4.60
   5   5  -5   21.81    3.57
  -5  -5   5   22.35    2.76
  -5  -5   5   22.92    3.48
   5   5  -4    5.76    2.26
   5   5  -4    5.00    2.56
  -5  -5   4    5.47    1.54
  -5  -5   4    3.99    2.13
   5   5  -3    3.24    2.04
   5   5  -3    0.45    1.95
  -5  -5   3    1.31    1.18
  -5  -5   3    1.44    1.80
   5   5  -2  188.27    6.18
   5   5  -2  190.40    5.65
   5   5  -2  175.42    2.93
  -5  -5   2  177.32    4.37
  -5  -5   2  179.95    5.87
   5   5  -1  656.60   10.90
   5   5  -1  664.11   15.11
   5   5  -1  668.73   12.63
  -5  -5   1  656.56   17.13
  -5  -5   1  647.27   12.21
  -5  -5   1  641.47   11.11
   5   5   0  420.53   14.02
   5   5   0  418.82    8.84
   5   5   0  431.59    9.27
  -5  -5   0  418.38    9.01
  -5  -5   0  415.29   10.14
  -5  -5   0  416.83    7.56
   5   5   1 2619.26   55.64
   5   5   1 2648.97   50.87
   5   5   1 2588.49   48.96
  -5  -5  -1 2544.85   47.93
  -5  -5  -1 2538.96   48.72
  -5  -5  -1 2523.85   53.39
   5   5   2   11.75    3.75
   5   5   2   13.47    2.30
   5   5   2   13.68    1.46
  -5  -5  -2   13.67    1.52
  -5  -5  -2   14.35    2.11
  -5  -5  -2   11.81    3.67
   5   5   3   81.23    3.82
   5   5   3   87.11    2.92
   5   5   3   85.53    2.43
  -5  -5  -3   83.00    3.75
  -5  -5  -3   83.51    1.93
  -5  -5  -3   89.08    3.74
   5   5   4  449.38   11.88
   5   5   4  450.83    9.47
   5   5   4  442.88    7.91
  -5  -5  -4  431.39   10.14
  -5  -5  -4  434.92    9.79
  -5  -5  -4  433.20    7.87
   5   5   5  352.53    8.28
   5   5   5  354.52    7.97
   5   5   5  346.90    6.37
  -5  -5  -5  336.72    7.54
  -5  -5  -5  350.53    9.80
  -5  -5  -5  341.94    6.44
   5   5   6  146.50    4.58
   5   5   6  146.66    4.63
   5   5   6  144.82    2.86
  -5  -5  -6  140.77    5.76
  -5  -5  -6  146.87    4.47
  -5  -5  -6  143.45    2.89
   5   5   7  367.36    8.82
   5   5   7  371.21   10.22
   5   5   7  359.94    8.51
  -5  -5  -7  357.18    8.45
  -5  -5  -7  360.32    7.16
  -5  -5  -7  351.09    6.36
   5   5   8  222.49    5.86
   5   5   8  227.52    6.55
   5   5   8  216.41    5.92
  -5  -5  -8  222.81    6.37
  -5  -5  -8  216.91    4.41
  -5  -5  -8  210.20    5.21
   5   5   9   61.78    5.42
   5   5   9   54.67    2.83
   5   5   9   55.53    2.87
  -5  -5  -9   52.17    3.32
  -5  -5  -9   52.29    1.95
  -5  -5  -9   55.11    2.84
   5   5  10   -0.41    1.06
   5   5  10    0.75    1.61
   5   5  10   -0.16    1.79
  -5  -5 -10    1.25    1.76
  -5  -5 -10    0.41    0.91
  -5  -5 -10    1.09    1.54
   5   5  11  261.02    6.51
   5   5  11  269.27    8.46
   5   5  11  255.98    6.48
  -5  -5 -11  251.11    7.06
  -5  -5 -11  256.80    7.82
  -5  -5 -11  253.81    5.79
   5   5  12  196.52    6.67
   5   5  12  198.81   10.05
   5   5  12  191.24    5.43
  -5  -5 -12  189.89    6.48
  -5  -5 -12  193.38    6.99
  -5  -5 -12  196.37    5.17
   5   5  13   83.29    4.47
   5   5  13   87.19    5.38
   5   5  13   76.90    3.23
  -5  -5 -13   73.10    3.25
  -5  -5 -13   80.74    7.28
  -5  -5 -13   75.06    3.22
   5   5  14  384.86    8.83
   5   5  14  404.94   12.62
   5   5  14  383.43   10.49
  -5  -5 -14  367.22    9.45
  -5  -5 -14  394.57   11.58
  -5  -5 -14  383.62    9.67
   5   5  15  119.20    4.04
   5   5  15  124.17    9.88
   5   5  15  105.96    4.93
  -5  -5 -15  107.32    4.72
  -5  -5 -15  126.26    6.48
  -5  -5 -15  117.92    6.33
   5   5  16   39.55    5.13
  -5  -5 -16   35.39    5.31
  -5  -5 -16   38.70    4.95
  -5  -5 -16   38.74    3.29
   5   5  17   -1.43    5.33
  -5  -5 -17   -0.71    3.96
  -5  -5 -17    0.01    1.68
  -5  -5 -17   -0.20    1.74
   5   6  -9  158.98    7.11
   5   6  -9  154.74    9.97
  -5  -6   9  142.71    6.42
  -5  -6   9  157.31    9.19
   5   6  -8   15.87    5.27
   5   6  -8   11.07    3.09
  -5  -6   8   -0.56    2.00
  -5  -6   8   -0.04    1.95
   5   6  -7   89.78    7.81
   5   6  -7   86.94    6.53
  -5  -6   7   85.83    4.79
  -5  -6   7   86.83    4.49
   5   6  -6   48.90    4.13
   5   6  -6   44.56    3.32
  -5  -6   6   40.57    3.13
   5   6  -5   82.29    4.89
   5   6  -5   83.24    5.64
  -5  -6   5   79.77    5.24
  -5  -6   5   75.59    6.34
   5   6  -4  229.80    7.81
   5   6  -4  226.88    6.46
  -5  -6   4  215.71    7.68
  -5  -6   4  216.25    7.16
   5   6  -3   96.93    7.03
   5   6  -3   85.22    3.50
  -5  -6   3   85.13    3.40
  -5  -6   3   83.75    4.44
   5   6  -2   67.16    4.22
   5   6  -2   63.18    4.17
  -5  -6   2   66.93    2.83
  -5  -6   2   66.40    6.04
   5   6  -1 1075.13   17.96
   5   6  -1 1149.60   25.73
   5   6  -1 1111.70   23.48
  -5  -6   1 1102.66   27.30
  -5  -6   1 1078.97   22.68
  -5  -6   1 1048.25   17.29
   5   6   0   16.18    4.68
   5   6   0   15.83    1.60
   5   6   0   18.00    1.09
  -5  -6   0   15.76    1.00
  -5  -6   0   14.36    2.48
  -5  -6   0   18.00    2.69
   5   6   1  134.52    4.07
   5   6   1  143.00    5.37
   5   6   1  134.80    3.46
  -5  -6  -1  125.13    3.28
  -5  -6  -1  130.43    3.09
  -5  -6  -1  136.68    5.13
   5   6   2   62.90    2.29
   5   6   2   66.40    5.67
   5   6   2   63.80    2.12
  -5  -6  -2   65.32    3.09
  -5  -6  -2   64.17    3.02
  -5  -6  -2   64.17    5.44
   5   6   3  375.17    9.53
   5   6   3  376.97    9.17
   5   6   3  364.55    7.79
  -5  -6  -3  359.48    8.71
  -5  -6  -3  364.02    7.81
  -5  -6  -3  367.15    9.17
   5   6   4  200.84    5.19
   5   6   4  206.76    8.20
   5   6   4  195.89    4.12
  -5  -6  -4  192.59    6.21
  -5  -6  -4  196.09    4.95
  -5  -6  -4  199.77    7.97
   5   6   5  157.64    6.21
   5   6   5  161.11    5.23
   5   6   5  155.37    3.40
  -5  -6  -5  148.91    4.48
  -5  -6  -5  156.41    4.30
  -5  -6  -5  167.01    5.29
   5   6   6  153.35    5.26
   5   6   6  150.74    4.86
   5   6   6  150.95    3.40
  -5  -6  -6  162.32    6.51
  -5  -6  -6  145.76    4.97
  -5  -6  -6  146.54    4.32
   5   6   7  152.84    5.16
   5   6   7  153.51    4.93
   5   6   7  145.28    3.38
  -5  -6  -7  140.01    6.46
  -5  -6  -7  148.32    4.39
  -5  -6  -7  146.64    4.80
   5   6   8  132.24    5.01
   5   6   8  140.40    6.39
   5   6   8  127.21    4.44
  -5  -6  -8  134.75    4.96
  -5  -6  -8  123.18    4.16
  -5  -6  -8  121.80    3.23
   5   6   9  306.87    9.41
   5   6   9  315.14    8.70
   5   6   9  299.35    7.57
  -5  -6  -9  306.83    8.36
  -5  -6  -9  304.69    6.51
  -5  -6  -9  291.75    6.33
   5   6  10  256.43    6.89
   5   6  10  266.91    8.60
   5   6  10  291.44   11.16
  -5  -6 -10  266.35    7.99
  -5  -6 -10  263.51    7.16
  -5  -6 -10  252.67    7.30
   5   6  11    9.67    2.81
   5   6  11    5.35    2.83
   5   6  11    6.33    1.83
  -5  -6 -11    5.97    2.60
  -5  -6 -11    6.59    2.37
  -5  -6 -11    4.42    2.42
   5   6  12  192.06    5.51
   5   6  12  199.95    7.69
   5   6  12  191.22    7.12
  -5  -6 -12  195.27    9.96
  -5  -6 -12  187.50    6.61
  -5  -6 -12  183.36    6.80
   5   6  13   32.80    4.44
   5   6  13   32.76    2.49
   5   6  13   32.47    2.61
  -5  -6 -13   45.33    6.73
  -5  -6 -13   34.24    3.96
  -5  -6 -13   34.83    4.18
   5   6  14   37.65    7.40
   5   6  14   36.53    3.71
   5   6  14   33.50    3.86
  -5  -6 -14   38.03    4.44
  -5  -6 -14   36.44    4.43
  -5  -6 -14   38.29    2.89
   5   6  15    8.91    4.07
  -5  -6 -15    7.93    2.32
  -5  -6 -15    8.86    3.61
  -5  -6 -15   10.74    3.63
   5   6  16   20.68    4.64
  -5  -6 -16   16.54    2.87
  -5  -6 -16   19.18    6.81
  -5  -6 -16   20.73    2.80
   5   7  -7   17.24    3.96
   5   7  -7   19.51    3.46
  -5  -7   7   14.46    4.81
  -5  -7   7   14.72    3.34
   5   7  -6   25.29    3.97
   5   7  -6   20.38    3.16
  -5  -7   6   14.89    4.53
  -5  -7   6   17.86    3.42
   5   7  -5   81.61    5.84
   5   7  -5   77.16    4.33
  -5  -7   5   77.16    4.20
  -5  -7   5   82.81    5.11
   5   7  -4   56.67    7.23
   5   7  -4   47.23    3.38
  -5  -7   4   47.85    3.29
  -5  -7   4   50.15    4.24
   5   7  -3   -0.09    2.28
   5   7  -3    0.86    1.48
  -5  -7   3    5.41    1.86
  -5  -7   3   -0.16    2.49
   5   7  -2   88.47    5.20
   5   7  -2   90.38    3.79
  -5  -7   2   83.93    4.99
  -5  -7   2   88.10    3.59
   5   7  -1   80.90    4.99
   5   7  -1   82.15    3.33
  -5  -7   1   76.92    3.30
  -5  -7   1   79.65    4.67
   5   7   0    3.24    1.28
   5   7   0    5.85    2.61
   5   7   0    4.97    1.47
  -5  -7   0    4.38    1.49
  -5  -7   0    6.88    2.49
  -5  -7   0    2.36    1.20
   5   7   1  122.90    5.57
   5   7   1  116.92    3.05
   5   7   1  118.50    4.91
  -5  -7  -1  115.35    4.78
  -5  -7  -1  112.45    2.93
  -5  -7  -1  125.52    7.69
   5   7   2   24.55    2.88
   5   7   2   28.69    2.72
   5   7   2   26.55    3.45
  -5  -7  -2   24.60    3.19
  -5  -7  -2   26.86    2.59
  -5  -7  -2   27.23    1.92
   5   7   3  172.38    6.33
   5   7   3  164.97    4.30
   5   7   3  172.38    5.75
  -5  -7  -3  168.08    5.52
  -5  -7  -3  162.82    5.34
  -5  -7  -3  175.87    6.19
   5   7   4   81.99    6.30
   5   7   4   78.78    2.63
   5   7   4   75.87    4.41
  -5  -7  -4   81.45    2.99
  -5  -7  -4   74.16    2.65
  -5  -7  -4   79.37    6.09
   5   7   5   16.49    2.15
   5   7   5   16.91    2.72
   5   7   5   14.77    2.27
  -5  -7  -5   14.50    3.11
  -5  -7  -5   15.54    2.37
  -5  -7  -5   16.80    2.58
   5   7   6   79.91    5.23
   5   7   6   77.90    3.98
   5   7   6   64.18    3.46
  -5  -7  -6   69.13    3.35
  -5  -7  -6   66.37    3.57
  -5  -7  -6   64.03    3.75
   5   7   7   13.96    4.04
   5   7   7   17.33    2.62
   5   7   7   16.55    1.57
  -5  -7  -7   17.65    2.43
  -5  -7  -7   18.32    4.02
  -5  -7  -7   17.60    1.67
   5   7   8   11.27    2.56
   5   7   8   11.41    2.35
   5   7   8    8.76    1.50
  -5  -7  -8   14.06    3.92
  -5  -7  -8   13.45    3.63
  -5  -7  -8   10.16    2.46
   5   7   9  119.43    5.26
   5   7   9  108.07    6.26
   5   7   9  107.01    3.45
  -5  -7  -9  108.96    6.85
  -5  -7  -9  111.46    4.43
  -5  -7  -9  105.71    3.46
   5   7  10   14.44    2.99
   5   7  10   12.67    2.25
   5   7  10   12.05    3.53
  -5  -7 -10   17.15    4.71
  -5  -7 -10   16.99    1.89
  -5  -7 -10   16.16    2.90
   5   7  11   -0.32    1.86
   5   7  11   -0.15    1.27
   5   7  11    0.91    2.00
  -5  -7 -11    2.56    2.19
  -5  -7 -11    0.37    2.17
  -5  -7 -11    0.49    1.38
   5   7  12  347.97   14.52
   5   7  12  326.21    8.59
   5   7  12  321.85    8.33
  -5  -7 -12  334.33   10.54
  -5  -7 -12  328.99    9.99
  -5  -7 -12  326.21    8.35
   5   7  13  127.22   10.01
   5   7  13  112.29    5.99
   5   7  13  107.57    4.37
  -5  -7 -13  113.16    6.30
  -5  -7 -13  109.11    4.39
  -5  -7 -13  100.57    4.40
   5   7  14    1.60    2.83
   5   7  14    0.23    1.48
   5   7  14    2.78    2.45
  -5  -7 -14    2.06    3.10
  -5  -7 -14    3.72    1.95
  -5  -7 -14    4.47    1.96
   5   7  15   24.54    4.65
  -5  -7 -15   21.96    2.89
  -5  -7 -15   26.17    6.85
  -5  -7 -15   29.35    4.56
   5   8  -5   13.29    6.81
   5   8  -5   18.55    3.12
  -5  -8   5   14.63    4.69
  -5  -8   5   17.04    3.83
   5   8  -4    0.57    2.93
   5   8  -4    2.15    3.14
  -5  -8   4    0.80    3.32
  -5  -8   4    1.60    2.62
   5   8  -3  163.66    7.82
   5   8  -3  141.61    5.59
  -5  -8   3  145.63    7.58
  -5  -8   3  135.80    6.78
   5   8  -2    1.95    2.99
   5   8  -2    1.85    1.85
  -5  -8   2    0.16    2.63
  -5  -8   2    0.96    2.29
   5   8  -1   24.14    4.14
   5   8  -1   22.85    2.53
  -5  -8   1   23.16    3.99
  -5  -8   1   26.08    3.79
   5   8   0   51.63    3.06
   5   8   0   60.06    5.01
  -5  -8   0   56.45    4.64
  -5  -8   0   56.70    4.56
   5   8   1  340.95   10.70
   5   8   1  318.75    8.07
  -5  -8  -1  308.43    7.84
  -5  -8  -1  318.49    6.47
  -5  -8  -1  328.37   10.08
   5   8   2  100.24    4.32
   5   8   2  106.52    5.65
   5   8   2   97.62    5.15
  -5  -8  -2   95.96    4.02
  -5  -8  -2  104.54    5.36
  -5  -8  -2   97.58    3.74
   5   8   3    0.48    4.07
   5   8   3    2.72    1.37
   5   8   3    2.00    1.41
  -5  -8  -3    2.52    1.27
  -5  -8  -3    1.95    1.47
  -5  -8  -3    0.96    2.37
   5   8   4    9.84    2.92
   5   8   4    9.79    1.86
   5   8   4    9.48    2.64
  -5  -8  -4    7.31    2.67
  -5  -8  -4    8.41    2.69
  -5  -8  -4    9.08    2.76
   5   8   5   83.39    3.26
   5   8   5   92.59    5.31
   5   8   5   89.94    4.88
  -5  -8  -5   83.62    3.59
  -5  -8  -5   83.57    3.30
  -5  -8  -5   98.35    6.81
   5   8   6   64.23    4.18
   5   8   6   58.99    3.89
   5   8   6   62.34    3.48
  -5  -8  -6   55.28    4.85
  -5  -8  -6   63.83    2.89
  -5  -8  -6   62.05    4.12
   5   8   7  158.78    8.32
   5   8   7  151.89    4.46
   5   8   7  164.09    7.58
  -5  -8  -7  154.24    5.88
  -5  -8  -7  152.91    5.87
  -5  -8  -7  149.42    7.34
   5   8   8  187.86    8.63
   5   8   8  176.00    6.34
   5   8   8  180.08    6.38
  -5  -8  -8  192.67    8.55
  -5  -8  -8  186.37    5.34
  -5  -8  -8  180.64    6.37
   5   8   9   68.78    5.89
   5   8   9   63.80    3.03
   5   8   9   70.21    4.38
  -5  -8  -9   69.58    3.91
  -5  -8  -9   62.72    3.10
  -5  -8  -9   64.35    4.33
   5   8  10  579.70   16.89
   5   8  10  560.94   12.65
   5   8  10  598.96   15.68
  -5  -8 -10  577.48   15.05
  -5  -8 -10  580.60   14.39
  -5  -8 -10  585.49   15.50
   5   8  11  109.79    4.84
   5   8  11  111.00    6.56
   5   8  11  112.32    6.08
  -5  -8 -11  110.66    5.84
  -5  -8 -11   99.39    6.00
  -5  -8 -11  117.89    5.98
   5   8  12    3.11    1.84
   5   8  12    0.54    2.92
   5   8  12    0.21    2.76
  -5  -8 -12   -0.25    2.51
  -5  -8 -12    0.82    2.50
  -5  -8 -12    2.26    4.01
   5   8  13   18.96    4.03
   5   8  13   19.47    2.48
   5   8  13   24.09    4.23
  -5  -8 -13   16.12    6.10
  -5  -8 -13   17.37    2.61
  -5  -8 -13   18.29    4.10
   5   8  14   63.95    3.54
   5   8  14   58.84    3.48
   5   8  14   66.31    5.77
  -5  -8 -14   61.77    5.57
  -5  -8 -14   65.25    3.83
  -5  -8 -14   57.91    5.75
   5   9  -3   23.63    7.92
   5   9  -3   27.73    5.43
  -5  -9   3   30.42    5.27
  -5  -9   3   23.84    7.15
   5   9  -2   33.62    5.18
   5   9  -2   34.83    3.45
  -5  -9   2   31.41    5.26
  -5  -9   2   36.33    7.30
   5   9  -1  115.98   10.31
   5   9  -1   89.99    4.57
  -5  -9   1   89.94    6.58
  -5  -9   1  101.06    6.22
   5   9   0   65.84    6.00
   5   9   0   63.23    3.93
  -5  -9   0   70.36    5.83
  -5  -9   0   69.89    5.52
   5   9   1   29.81    4.70
   5   9   1   25.28    2.78
  -5  -9  -1   25.59    4.29
  -5  -9  -1   26.27    4.33
   5   9   2   24.10    6.65
   5   9   2   20.30    2.61
  -5  -9  -2   23.70    4.23
  -5  -9  -2   30.30    4.18
   5   9   3  121.05    6.45
   5   9   3  101.54    6.00
   5   9   3  106.87    3.88
  -5  -9  -3   99.59    3.62
  -5  -9  -3  102.69    4.31
  -5  -9  -3  113.50    8.63
   5   9   4   19.69    2.30
   5   9   4   19.75    3.96
   5   9   4   16.10    3.65
  -5  -9  -4   19.91    3.59
  -5  -9  -4   19.90    3.40
  -5  -9  -4   19.43    2.44
   5   9   5  110.20    4.37
   5   9   5  117.09    4.58
   5   9   5  130.84    9.09
  -5  -9  -5  111.68    4.37
  -5  -9  -5  115.58    4.36
  -5  -9  -5  122.87    6.06
   5   9   6  186.45   10.37
   5   9   6  199.95    6.46
   5   9   6  183.01    5.64
  -5  -9  -6  185.39    5.79
  -5  -9  -6  197.20    7.51
  -5  -9  -6  190.26    8.17
   5   9   7   65.51    4.80
   5   9   7   72.80    6.15
  -5  -9  -7   60.08    5.07
  -5  -9  -7   64.95    4.62
  -5  -9  -7   63.13    3.97
   5   9   8   47.02    4.02
   5   9   8   42.27    3.87
   5   9   8   40.44    2.88
  -5  -9  -8   43.00    4.54
  -5  -9  -8   40.11    3.84
  -5  -9  -8   43.60    3.70
   5   9   9   43.81    3.92
   5   9   9   49.66    4.33
   5   9   9   42.13    2.96
  -5  -9  -9   44.18    3.91
  -5  -9  -9   47.32    5.06
  -5  -9  -9   49.06    4.12
   5   9  10   32.01    5.31
   5   9  10   32.48    6.40
   5   9  10   26.53    2.76
  -5  -9 -10   33.07    5.29
  -5  -9 -10   26.74    2.86
  -5  -9 -10   34.13    3.97
   5   9  11    3.32    3.41
   5   9  11    2.71    4.25
   5   9  11    0.60    1.95
  -5  -9 -11    0.79    1.71
  -5  -9 -11   -0.20    1.70
  -5  -9 -11    2.28    2.46
   5   9  12   42.32    3.67
   5   9  12   42.94    7.41
   5   9  12   40.42    5.41
  -5  -9 -12   42.27    4.98
  -5  -9 -12   36.48    5.06
  -5  -9 -12   42.16    4.88
   5  10   1   26.30    3.27
   5  10   1   28.53    5.25
  -5 -10  -1   28.52    4.85
  -5 -10  -1   26.38    3.18
   5  10   2   12.90    4.34
   5  10   2   10.79    2.68
  -5 -10  -2    8.21    2.56
  -5 -10  -2    9.22    3.78
   5  10   3   15.64    2.80
  -5 -10  -3   17.11    2.74
  -5 -10  -3    9.65    3.91
   5  10   4    2.34    1.96
   5  10   4    1.22    3.27
  -5 -10  -4    1.94    1.96
  -5 -10  -4   -0.98    4.58
   5  10   5    0.97    3.19
   5  10   5    1.88    2.02
   5  10   5    3.89    2.01
  -5 -10  -5    3.26    1.85
  -5 -10  -5    3.05    2.03
  -5 -10  -5   -0.72    2.99
   5  10   6   16.78    2.76
   5  10   6   14.87    3.95
   5  10   6   13.24    2.56
  -5 -10  -6   16.31    4.21
  -5 -10  -6   15.93    5.91
   5  10   7    0.86    3.26
   5  10   7    0.20    2.66
   5  10   7    0.70    1.72
  -5 -10  -7   -0.25    2.35
  -5 -10  -7    0.88    1.88
   5  10   8  189.67    8.31
   5  10   8  198.07    7.54
   5  10   8  164.10    8.36
  -5 -10  -8  176.75    8.79
  -5 -10  -8  183.42   10.31
  -5 -10  -8  179.09    7.16
   5  10   9    3.66    3.31
   5  10   9    1.85    5.02
   5  10   9   15.81    3.85
  -5 -10  -9    2.06    2.10
  -5 -10  -9    1.83    2.48
  -5 -10  -9    0.53    2.55
   6  -7  -7  187.34    9.12
   6  -7  -7  213.65    8.84
   6  -7  -7  226.72   10.29
   6  -7  -7  193.06    9.75
  -6   7   7  204.26    8.14
  -6   7   7  167.54    8.61
   6  -7  -6    1.10    2.28
   6  -7  -6    2.70    2.88
   6  -7  -6    4.82    3.56
   6  -7  -6    1.07    5.67
  -6   7   6   -0.15    2.63
  -6   7   6    5.31    3.28
   6  -7  -5    1.23    3.69
   6  -7  -5    1.15    2.67
   6  -7  -5    4.18    5.35
   6  -7  -5    2.69    3.08
  -6   7   5   -0.26    1.73
  -6   7   5    0.44    2.36
   6  -7  -4    3.29    2.52
   6  -7  -4    1.65    2.88
   6  -7  -4    2.19    3.44
   6  -7  -4    4.38    3.19
  -6   7   4   -0.12    2.09
  -6   7   4   -0.59    1.95
   6  -7  -3   20.58    3.49
   6  -7  -3   17.93    4.46
   6  -7  -3   15.41    4.17
  -6   7   3    0.26    2.02
  -6   7   3   -0.05    3.23
   6  -7  -2    2.94    5.47
   6  -7  -2    3.96    4.64
   6  -7  -2    4.26    5.06
  -6   7   2    0.29    1.87
  -6   7   2   -0.52    1.98
   6  -7  -1    1.31    2.77
   6  -7  -1   -2.88    4.11
   6  -7  -1    1.79    2.59
  -6   7   1   -0.73    2.06
  -6   7   1    0.21    3.83
   6  -7   0    4.23    6.38
   6  -7   0   22.30    3.92
   6  -7   0   17.43    6.75
  -6   7   0    0.55    2.92
  -6   7   0   15.03    3.44
   6  -7   1    3.35    4.70
   6  -7   1    1.41    4.42
   6  -7   1    0.38    2.93
  -6   7  -1   -1.52    2.19
  -6   7  -1    0.90    2.64
   6  -7   2   40.49    8.24
   6  -7   2   49.07    6.90
   6  -7   2   44.99    4.69
   6  -7   2   44.01    7.89
  -6   7  -2   43.88    6.55
  -6   7  -2   48.60    5.25
   6  -7   3   10.42    4.05
   6  -7   3    6.06    3.33
   6  -7   3   10.21    3.32
   6  -7   3    9.36    3.60
  -6   7  -3    0.20    2.86
  -6   7  -3    7.81    3.46
   6  -7   4    0.70    3.09
   6  -7   4    0.30    2.48
   6  -7   4   -2.63    2.42
   6  -7   4   -0.77    2.65
  -6   7  -4    0.09    2.10
  -6   7  -4    0.71    2.83
   6  -6 -10    2.38    4.64
   6  -6  -9   65.21    7.95
   6  -6  -9   64.91    5.52
   6  -6  -9   59.37    5.58
   6  -6  -8    0.97    2.52
   6  -6  -8   -1.10    2.49
   6  -6  -8    3.78    4.35
   6  -6  -8    1.79    2.83
  -6   6   8    0.25    3.80
  -6   6   8    1.49    1.54
   6  -6  -7    0.23    1.67
   6  -6  -7    0.02    2.30
   6  -6  -7    1.93    2.85
   6  -6  -7    2.19    2.67
  -6   6   7   -0.06    3.59
  -6   6   7   -2.70    2.61
   6  -6  -6    0.42    4.31
   6  -6  -6    0.69    2.10
   6  -6  -6    0.67    1.78
   6  -6  -6    0.72    2.65
  -6   6   6   -0.24    3.32
  -6   6   6    1.28    1.66
   6  -6  -5    4.85    3.86
   6  -6  -5    2.28    3.13
   6  -6  -5    2.25    2.16
  -6   6   5   -0.34    2.32
  -6   6   5    0.25    1.97
   6  -6  -4    1.62    2.24
   6  -6  -4    3.82    3.01
   6  -6  -4    0.17    3.74
   6  -6  -4    3.36    2.82
  -6   6   4   -0.29    2.54
  -6   6   4    0.34    2.35
   6  -6  -3    4.77    3.38
   6  -6  -3    8.28    2.67
   6  -6  -3    5.75    5.04
  -6   6   3   -0.16    1.60
  -6   6   3    0.37    1.67
   6  -6  -2    2.28    2.70
   6  -6  -2    3.54    4.60
   6  -6  -2    1.19    2.40
  -6   6   2    0.09    1.65
  -6   6   2    0.25    2.84
   6  -6  -1   59.89    4.78
   6  -6  -1   63.76    4.30
   6  -6  -1   62.15    4.98
   6  -6  -1   61.68    5.21
  -6   6   1   57.59    3.87
  -6   6   1   59.88    4.53
   6  -6   0   46.86    4.67
   6  -6   0   49.69    3.96
   6  -6   0   49.03    6.99
   6  -6   0   51.98    4.79
  -6   6   0   50.12    3.68
  -6   6   0   45.75    4.44
   6  -6   1    7.50    3.39
   6  -6   1    9.96    2.70
   6  -6   1    7.41    3.29
   6  -6   1    9.25    3.33
  -6   6  -1    0.33    2.20
  -6   6  -1   11.47    4.42
   6  -6   2    0.72    2.35
   6  -6   2    1.28    1.93
   6  -6   2   -0.61    2.25
   6  -6   2    0.61    2.51
  -6   6  -2    0.64    2.02
  -6   6  -2    2.35    2.57
   6  -6   3    2.64    3.06
   6  -6   3    1.53    2.70
   6  -6   3    2.12    2.33
   6  -6   3    2.62    2.53
  -6   6  -3    0.50    1.99
  -6   6  -3    2.06    2.66
   6  -6   4    5.39    4.36
   6  -6   4    8.40    5.82
   6  -6   4    4.78    2.84
   6  -6   4    6.76    4.95
  -6   6  -4    0.63    3.93
  -6   6  -4    6.51    3.24
   6  -6   5   13.48    3.33
   6  -6   5   12.32    4.91
   6  -6   5   16.89    4.20
   6  -6   5    0.89    3.48
  -6   6  -5   -0.23    4.72
  -6   6  -5   16.95    3.93
   6  -6   6   43.53    6.46
   6  -6   6   44.64    4.39
   6  -6   6   45.18    4.58
   6  -6   6   49.58    5.89
  -6   6  -6   44.04    4.11
  -6   6  -6   54.15    5.46
   6  -6   7    0.48    5.98
   6  -6   7    0.10    4.48
   6  -6   7    0.43    4.48
   6  -6   7    4.73    2.72
  -6   6  -7   -0.84    2.28
  -6   6  -7   -0.46    3.12
   6  -5 -11   17.99    3.81
   6  -5 -11   -0.01    6.24
   6  -5 -11   16.34    3.68
   6  -5 -10    0.03    3.26
   6  -5 -10   -1.50    2.94
   6  -5 -10    0.20    1.92
   6  -5 -10    0.34    1.81
   6  -5  -9   91.54    5.33
   6  -5  -9   78.15    5.48
   6  -5  -9   81.22    7.68
   6  -5  -9   84.64    5.64
   6  -5  -8    0.13    1.88
   6  -5  -8   -1.20    1.69
   6  -5  -8    0.60    1.95
   6  -5  -8   -0.55    2.04
   6  -5  -8    0.84    1.70
  -6   5   8    0.48    1.96
  -6   5   8    0.70    1.23
   6  -5  -7    1.11    1.48
   6  -5  -7   -0.15    3.14
   6  -5  -7    0.05    2.48
   6  -5  -7   -0.30    3.70
  -6   5   7    0.30    1.93
  -6   5   7    1.56    1.42
   6  -5  -6    0.51    1.54
   6  -5  -6   -0.77    2.29
   6  -5  -6    0.57    2.97
   6  -5  -6    1.47    2.21
  -6   5   6    0.70    1.75
  -6   5   6    0.80    2.24
   6  -5  -5    7.66    2.39
   6  -5  -5   13.72    3.31
   6  -5  -5   12.14    2.57
   6  -5  -5   11.14    5.03
  -6   5   5   -0.21    1.89
  -6   5   5    5.04    2.69
   6  -5  -4   -0.29    2.53
   6  -5  -4   -1.22    2.13
   6  -5  -4   -0.47    1.50
   6  -5  -4    2.58    1.95
  -6   5   4   -0.19    1.57
  -6   5   4    1.87    2.46
   6  -5  -3   59.08    3.98
   6  -5  -3   67.51    5.59
   6  -5  -3   65.28    6.84
   6  -5  -3   62.14    7.32
  -6   5   3   57.94    3.44
  -6   5   3   52.84    3.52
   6  -5  -2   -1.16    2.02
   6  -5  -2    0.02    2.89
   6  -5  -2   -2.27    2.27
   6  -5  -2    1.17    3.87
  -6   5   2    0.29    1.36
  -6   5   2    0.03    1.63
   6  -5  -1   -0.59    2.66
   6  -5  -1    7.78    2.23
   6  -5  -1   10.30    2.89
   6  -5  -1    9.67    2.93
  -6   5   1    6.87    3.35
  -6   5   1   10.35    2.68
   6  -5   0    2.31    2.42
   6  -5   0    2.30    1.90
   6  -5   0    1.87    2.51
   6  -5   0    3.43    3.87
  -6   5   0    1.52    1.81
  -6   5   0    4.88    2.33
   6  -5   1    4.71    2.61
   6  -5   1    1.87    4.21
   6  -5   1    2.11    3.18
   6  -5   1    3.39    2.57
  -6   5  -1    3.28    1.95
  -6   5  -1    7.34    2.61
   6  -5   2   10.49    5.17
   6  -5   2   11.22    3.72
   6  -5   2    7.73    3.00
   6  -5   2   11.75    3.06
  -6   5  -2    8.73    2.24
  -6   5  -2   13.66    3.11
   6  -5   3   11.47    5.52
   6  -5   3   12.35    4.93
   6  -5   3    8.20    2.43
   6  -5   3   11.91    2.95
  -6   5  -3    7.20    2.19
  -6   5  -3    8.73    5.05
   6  -5   4  138.00    7.13
   6  -5   4  138.62    6.16
   6  -5   4  148.69    6.41
   6  -5   4  146.47    5.64
  -6   5  -4  139.10    5.47
  -6   5  -4  146.48    9.95
   6  -5   5  100.35    7.81
   6  -5   5  106.59    6.48
   6  -5   5  104.52    7.08
   6  -5   5  100.32    5.43
  -6   5  -5   87.91    4.49
  -6   5  -5  104.88    8.98
   6  -5   6    3.61    2.63
   6  -5   6    3.79    5.32
   6  -5   6    0.36    3.67
   6  -5   6    5.23    2.63
  -6   5  -6    1.06    1.98
  -6   5  -6    2.47    4.59
   6  -5   7   -0.18    2.22
   6  -5   7    1.86    2.86
   6  -5   7   -0.50    3.38
   6  -5   7    1.27    2.29
  -6   5  -7    1.56    2.68
  -6   5  -7   -2.73    3.67
   6  -5   8   40.73    5.12
   6  -5   8   34.51    3.83
   6  -5   8   34.14    4.08
  -6   5  -8   29.44    3.73
  -6   5  -8   37.34    4.82
   6  -5   9   -0.23    3.21
   6  -5   9   18.49    3.16
   6  -5   9   13.12    4.29
  -6   5  -9    9.76    3.00
  -6   5  -9    0.02    3.01
  -6   5  -9   13.88    3.89
   6  -5  10    1.11    2.88
   6  -5  10    3.27    2.68
   6  -5  10    4.73    3.70
  -6   5 -10    3.32    2.66
  -6   5 -10    0.06    2.57
  -6   5 -10    2.95    3.31
   6  -4 -12   22.74    3.90
   6  -4 -12   29.29    4.08
   6  -4 -12   26.28    4.18
   6  -4 -11   58.72    7.43
   6  -4 -11   65.43    4.83
   6  -4 -11   67.02    4.70
   6  -4 -11   67.52    7.39
   6  -4 -10    0.09    2.92
   6  -4 -10    0.13    1.61
   6  -4 -10   -0.06    1.67
   6  -4 -10   -0.13    2.68
   6  -4  -9    1.39    3.13
   6  -4  -9   -0.12    2.00
   6  -4  -9    0.04    3.42
   6  -4  -9    1.43    3.10
   6  -4  -8    9.74    2.52
   6  -4  -8   10.68    4.76
   6  -4  -8   -0.10    2.78
   6  -4  -8    9.33    2.66
   6  -4  -8    6.19    3.85
   6  -4  -8    6.65    1.50
   6  -4  -7   30.90    3.75
   6  -4  -7   34.82    5.95
   6  -4  -7   34.01    3.13
   6  -4  -7   34.72    5.55
   6  -4  -7   30.41    3.02
  -6   4   7   10.09    1.69
   6  -4  -6   22.48    2.39
   6  -4  -6   23.81    5.44
   6  -4  -6   20.41    2.83
   6  -4  -6   21.56    3.34
  -6   4   6   27.99    4.22
  -6   4   6   23.29    2.29
   6  -4  -5  195.76    7.75
   6  -4  -5  198.35    9.91
   6  -4  -5  203.68    6.37
   6  -4  -5  218.15    9.79
  -6   4   5  183.59    5.70
  -6   4   5  188.46    5.57
   6  -4  -4   85.70    3.98
   6  -4  -4   88.30    3.96
   6  -4  -4   86.13    4.76
   6  -4  -4   86.14    7.59
  -6   4   4   78.61    3.57
  -6   4   4   78.84    3.64
   6  -4  -3   65.30    3.73
   6  -4  -3   68.10    3.39
   6  -4  -3   68.67    6.34
   6  -4  -3   71.48    6.73
  -6   4   3   66.06    3.19
  -6   4   3   68.21    3.52
   6  -4  -2   32.12    3.86
   6  -4  -2   35.64    3.37
   6  -4  -2   26.92    3.55
   6  -4  -2   31.52    3.00
  -6   4   2   28.14    3.53
  -6   4   2   29.99    4.27
   6  -4  -1    1.29    1.83
   6  -4  -1    0.24    2.02
   6  -4  -1    0.97    1.40
   6  -4  -1    0.95    1.97
  -6   4   1    2.54    1.41
  -6   4   1    0.90    1.85
   6  -4   0   31.06    3.29
   6  -4   0   30.53    3.79
   6  -4   0   32.45    3.37
   6  -4   0   33.82    3.49
  -6   4   0   29.17    2.21
  -6   4   0   25.26    3.08
   6  -4   1    4.48    2.45
   6  -4   1    5.80    2.45
   6  -4   1    4.60    1.73
   6  -4   1    4.42    3.87
  -6   4  -1    3.70    2.58
  -6   4  -1    5.76    2.37
   6  -4   2   20.14    5.07
   6  -4   2   21.10    2.30
   6  -4   2   22.47    5.25
   6  -4   2   18.93    3.20
  -6   4  -2   17.90    2.10
  -6   4  -2   25.19    5.03
   6  -4   3    2.26    2.29
   6  -4   3    0.34    2.09
   6  -4   3    0.67    1.48
   6  -4   3   -0.81    2.15
  -6   4  -3   -1.10    1.49
  -6   4  -3   -1.09    2.36
   6  -4   4   49.07    4.43
   6  -4   4   52.20    3.20
   6  -4   4   52.57    3.91
  -6   4  -4   49.44    4.42
  -6   4  -4   49.74    4.25
   6  -4   5    5.70    4.43
   6  -4   5    2.05    2.98
   6  -4   5    2.84    2.41
  -6   4  -5    2.35    2.65
  -6   4  -5    0.70    2.14
  -6   4  -5    2.40    2.52
   6  -4   6  117.80    6.38
   6  -4   6  116.44    4.63
   6  -4   6  112.83    5.40
  -6   4  -6  108.54    6.21
  -6   4  -6  115.20    7.76
  -6   4  -6  109.47    6.01
   6  -4   7   30.64    4.42
   6  -4   7   36.86    3.21
   6  -4   7   30.16    3.72
  -6   4  -7   32.66    4.58
  -6   4  -7   29.68    3.66
  -6   4  -7   31.94    4.16
   6  -4   8    0.28    2.72
   6  -4   8    0.05    1.92
   6  -4   8    2.21    2.15
  -6   4  -8    1.65    1.85
  -6   4  -8   -0.06    2.17
  -6   4  -8    0.79    2.63
   6  -4   9   28.42    4.70
   6  -4   9   30.13    3.43
   6  -4   9   26.90    3.79
  -6   4  -9   25.44    3.23
  -6   4  -9   31.66    5.78
  -6   4  -9   29.29    6.87
   6  -4  10    6.72    2.81
   6  -4  10    4.56    2.94
   6  -4  10    4.20    3.54
  -6   4 -10    4.74    4.26
  -6   4 -10    0.03    4.68
  -6   4 -10   11.13    3.54
   6  -4  11  262.72   12.79
   6  -4  11  275.53    9.58
   6  -4  11  282.27   14.61
  -6   4 -11  257.33    9.43
  -6   4 -11  271.51    9.70
  -6   4 -11  286.65   11.10
   6  -3 -12   -0.20    3.20
   6  -3 -12   -0.04    1.78
   6  -3 -12   -0.16    1.99
   6  -3 -11    2.60    2.24
   6  -3 -11    0.00    2.15
   6  -3 -11    1.63    2.18
   6  -3 -11    0.12    1.95
   6  -3 -10   32.43    3.43
   6  -3 -10   31.17    5.23
   6  -3 -10   26.94    3.20
   6  -3 -10   26.89    3.41
   6  -3  -9    2.56    2.02
   6  -3  -9   -0.01    1.98
   6  -3  -9    0.04    3.42
   6  -3  -9    4.23    2.03
   6  -3  -8    2.71    1.98
   6  -3  -8    3.15    3.18
   6  -3  -8    3.92    2.32
   6  -3  -8    0.23    3.50
   6  -3  -8    4.74    2.13
   6  -3  -8    3.14    1.96
   6  -3  -7   22.64    2.02
   6  -3  -7   21.58    2.82
   6  -3  -7   20.05    3.12
   6  -3  -7   23.14    2.53
   6  -3  -7   24.31    2.99
   6  -3  -7   21.74    2.52
   6  -3  -6  318.40    9.14
   6  -3  -6  307.88    9.05
   6  -3  -6  321.32    8.21
   6  -3  -6  318.41    8.88
   6  -3  -6  318.10    8.29
   6  -3  -6  304.57    7.17
   6  -3  -5   19.22    2.15
   6  -3  -5   16.71    3.02
   6  -3  -5   19.40    2.21
   6  -3  -5   16.81    2.79
  -6   3   5   15.85    2.09
  -6   3   5   17.48    2.00
   6  -3  -4   12.33    2.08
   6  -3  -4   10.31    3.03
   6  -3  -4   10.53    2.54
   6  -3  -4   11.64    2.77
  -6   3   4   10.62    2.83
  -6   3   4   11.53    3.09
   6  -3  -3   23.79    2.40
   6  -3  -3   17.76    2.05
   6  -3  -3   14.85    2.73
   6  -3  -3   22.83    2.90
  -6   3   3   16.17    1.88
  -6   3   3   23.74    3.45
   6  -3  -2   44.17    3.42
   6  -3  -2   43.39    3.06
   6  -3  -2   47.89    2.44
   6  -3  -2   47.29    5.11
  -6   3   2   43.42    2.27
  -6   3   2   41.21    2.86
   6  -3  -1   55.89    3.35
   6  -3  -1   52.89    2.55
   6  -3  -1   52.01    3.57
   6  -3  -1   60.71    3.78
  -6   3   1   49.55    2.31
  -6   3   1   46.84    3.13
   6  -3   0    5.52    2.19
   6  -3   0    4.82    2.39
   6  -3   0    2.32    2.41
   6  -3   0    4.02    2.36
  -6   3   0    5.63    2.40
   6  -3   1  420.93   10.77
   6  -3   1  437.19   11.29
   6  -3   1  437.98   11.34
   6  -3   1  428.21   11.03
  -6   3  -1  406.99    8.95
  -6   3  -1  434.23   10.94
   6  -3   2  555.76   16.27
   6  -3   2  537.77   11.42
   6  -3   2  526.09   12.95
  -6   3  -2  501.01   12.10
  -6   3  -2  516.52   12.51
  -6   3  -2  536.23   12.87
   6  -3   3  298.25    8.79
   6  -3   3  294.78    7.01
   6  -3   3  293.88    8.37
  -6   3  -3  267.52    6.44
  -6   3  -3  298.81   10.63
  -6   3  -3  296.66   11.14
   6  -3   4  100.55    4.95
   6  -3   4   95.18    5.13
   6  -3   4  104.58    4.82
  -6   3  -4   90.85    4.64
  -6   3  -4   93.14    4.61
  -6   3  -4   96.95    4.93
   6  -3   5   22.91    3.43
   6  -3   5   20.29    2.14
   6  -3   5   26.34    4.73
  -6   3  -5   19.99    2.08
  -6   3  -5   25.84    2.99
  -6   3  -5   19.33    3.36
   6  -3   6    3.31    2.60
   6  -3   6    3.38    2.55
   6  -3   6    3.15    3.76
  -6   3  -6    1.15    1.53
  -6   3  -6    3.57    2.12
  -6   3  -6    2.80    2.43
   6  -3   7    1.31    3.83
   6  -3   7    0.13    2.45
   6  -3   7    2.95    3.37
  -6   3  -7    1.10    1.55
  -6   3  -7    4.65    3.40
  -6   3  -7    2.43    2.45
   6  -3   8    6.21    2.89
   6  -3   8    3.45    1.97
   6  -3   8    6.53    4.10
  -6   3  -8    3.72    1.85
  -6   3  -8    5.45    2.48
  -6   3  -8    5.96    2.85
   6  -3   9  108.20    6.20
   6  -3   9  106.63    4.82
   6  -3   9  112.73    8.13
  -6   3  -9   98.42    4.64
  -6   3  -9  106.26    5.53
  -6   3  -9  107.46    6.00
   6  -3  10   81.48    7.37
   6  -3  10   67.57    4.14
   6  -3  10   60.78    5.34
  -6   3 -10   65.36    6.00
  -6   3 -10   68.34    4.63
  -6   3 -10   73.03    7.86
   6  -3  11  163.39    7.17
   6  -3  11  156.12    6.47
   6  -3  11  163.68    7.97
  -6   3 -11  155.84    6.40
  -6   3 -11  162.02    9.71
  -6   3 -11  157.06    7.22
   6  -3  12  234.42    8.41
   6  -3  12  235.26    9.61
   6  -3  12  238.31    8.90
  -6   3 -12  220.59   10.91
  -6   3 -12  259.04   12.50
  -6   3 -12  243.91    9.41
   6  -3  13   53.68    4.51
   6  -3  13   51.25    7.85
   6  -3  13   49.98    4.68
  -6   3 -13   49.06    4.57
  -6   3 -13   50.44    7.41
  -6   3 -13   51.61    4.84
   6  -2 -13   -0.63    2.10
   6  -2 -13   -0.36    1.64
   6  -2 -13    0.53    2.06
   6  -2 -12    2.20    2.33
   6  -2 -12    1.49    1.95
   6  -2 -12    0.42    2.31
   6  -2 -11   12.27    2.99
   6  -2 -11   16.58    4.21
   6  -2 -11   12.05    4.75
   6  -2 -11   17.09    3.93
   6  -2 -10    5.71    2.23
   6  -2 -10    6.88    3.78
   6  -2 -10    8.77    2.39
   6  -2 -10   -0.17    3.43
   6  -2  -9   29.50    3.00
   6  -2  -9   31.64    2.69
   6  -2  -9   30.47    1.80
   6  -2  -9   31.76    3.04
   6  -2  -9   30.72    2.86
   6  -2  -9   32.22    3.02
   6  -2  -8   28.89    1.93
   6  -2  -8   26.93    1.86
   6  -2  -8   29.66    4.59
   6  -2  -8   35.54    2.78
   6  -2  -8   35.50    2.78
   6  -2  -8   29.11    2.84
   6  -2  -7  107.77    3.33
   6  -2  -7  105.74    3.47
   6  -2  -7  105.89    4.58
   6  -2  -7  109.25    5.76
   6  -2  -7  115.22    6.35
   6  -2  -7  108.95    4.23
   6  -2  -6   54.44    2.66
   6  -2  -6   55.40    3.53
   6  -2  -6   50.86    3.60
   6  -2  -6   56.64    2.86
   6  -2  -6   58.96    3.27
   6  -2  -6   49.76    2.88
   6  -2  -5   27.96    3.48
   6  -2  -5   25.58    4.38
   6  -2  -5   24.15    2.05
   6  -2  -5   25.72    2.05
   6  -2  -5   25.93    2.72
   6  -2  -5   25.05    2.05
   6  -2  -4  108.53    5.26
   6  -2  -4  110.67    3.59
   6  -2  -4  112.41    4.67
   6  -2  -4  108.42    4.17
   6  -2  -4  108.17    4.38
   6  -2  -4  106.93    3.40
  -6   2   4    2.22    1.42
   6  -2  -3   14.73    2.13
   6  -2  -3   16.79    2.46
   6  -2  -3   16.51    1.61
   6  -2  -3   21.39    3.63
  -6   2   3   14.80    1.49
  -6   2   3   15.67    3.12
   6  -2  -2   15.89    3.44
   6  -2  -2   12.34    1.47
   6  -2  -2   14.70    2.24
   6  -2  -2   14.12    2.37
  -6   2   2   14.38    1.36
  -6   2   2   13.22    3.30
   6  -2  -1    2.77    2.91
   6  -2  -1    0.94    1.88
   6  -2  -1    1.74    1.11
   6  -2  -1    3.39    1.82
  -6   2   1    1.36    0.99
  -6   2   1    3.30    1.67
   6  -2   0  540.25   12.64
   6  -2   0  526.05   12.44
   6  -2   0  516.45   10.23
   6  -2   0  522.48   12.08
  -6   2   0  485.91   10.67
  -6   2   0  521.38   12.00
   6  -2   1 1633.37   35.01
   6  -2   1 1649.31   31.80
   6  -2   1 1682.30   38.24
  -6   2  -1 1540.84   31.11
  -6   2  -1 1602.24   33.59
  -6   2  -1 1630.22   37.06
   6  -2   2  787.02   17.73
   6  -2   2  806.67   15.42
   6  -2   2  827.72   20.75
  -6   2  -2  747.67   15.67
  -6   2  -2  776.57   17.44
  -6   2  -2  774.52   17.35
   6  -2   3   88.00    4.39
   6  -2   3   89.26    6.16
   6  -2   3   81.84    3.74
  -6   2  -3   82.88    3.49
  -6   2  -3   80.97    4.11
  -6   2  -3   83.60    4.21
   6  -2   4   91.39    4.59
   6  -2   4   86.88    2.88
   6  -2   4   97.37    4.61
  -6   2  -4   83.46    3.72
  -6   2  -4   86.09    4.05
  -6   2  -4   86.12    6.50
   6  -2   5   71.68    4.28
   6  -2   5   77.03    2.72
   6  -2   5   80.91    4.14
  -6   2  -5   71.84    2.62
  -6   2  -5   76.87    3.95
  -6   2  -5   76.20    4.28
   6  -2   6    2.47    2.29
   6  -2   6    1.22    2.16
   6  -2   6    4.19    2.40
  -6   2  -6    0.13    1.12
  -6   2  -6    0.80    1.91
  -6   2  -6    2.34    2.01
   6  -2   7    4.85    2.52
   6  -2   7    3.57    1.51
   6  -2   7    6.19    2.40
  -6   2  -7    2.36    1.42
  -6   2  -7    5.29    2.21
  -6   2  -7    3.16    2.36
   6  -2   8    6.19    4.53
   6  -2   8    5.27    1.80
   6  -2   8    8.74    2.73
  -6   2  -8    6.86    1.76
  -6   2  -8    6.57    4.15
  -6   2  -8    6.10    2.70
   6  -2   9  235.35    8.19
   6  -2   9  235.80    6.72
   6  -2   9  240.12    8.12
  -6   2  -9  226.18    6.46
  -6   2  -9  239.81    8.01
  -6   2  -9  235.02    8.02
   6  -2  10  350.58    9.16
   6  -2  10  345.02   10.52
   6  -2  10  351.31   10.85
  -6   2 -10  330.20    8.82
  -6   2 -10  363.98   10.56
  -6   2 -10  359.50   13.24
   6  -2  11   27.68    3.95
   6  -2  11   32.13    3.06
   6  -2  11   31.19    6.15
  -6   2 -11   29.71    3.08
  -6   2 -11   31.63    3.78
  -6   2 -11   35.56    5.89
   6  -2  12    7.47    2.52
   6  -2  12    7.45    3.17
   6  -2  12    7.91    3.07
  -6   2 -12    5.98    3.40
  -6   2 -12    0.23    2.62
  -6   2 -12    3.40    2.64
   6  -2  13    4.59    3.08
   6  -2  13    9.08    2.99
   6  -2  13    0.71    4.05
  -6   2 -13    6.46    2.43
  -6   2 -13    0.01    2.81
  -6   2 -13    6.10    2.80
   6  -2  14    6.82    3.16
   6  -2  14    9.40    3.12
   6  -2  14    0.92    4.43
  -6   2 -14    5.97    2.54
  -6   2 -14   -0.20    2.85
  -6   2 -14    5.76    4.33
   6  -1 -13    2.16    2.52
   6  -1 -13    0.50    2.43
   6  -1 -12    2.20    2.33
   6  -1 -12    0.84    1.61
   6  -1 -12    1.17    2.30
   6  -1 -11   18.96    3.07
   6  -1 -11   14.81    3.64
   6  -1 -11   20.10    3.06
   6  -1 -10   86.60    6.29
   6  -1 -10   79.30    3.70
   6  -1 -10   82.78    4.28
   6  -1  -9  202.61    4.89
   6  -1  -9  206.17    6.48
   6  -1  -9  214.99    7.63
   6  -1  -9  223.91    8.67
   6  -1  -9  205.53    5.98
   6  -1  -9  193.21    7.54
   6  -1  -8  618.81   13.81
   6  -1  -8  595.12   13.73
   6  -1  -8  606.07   12.26
   6  -1  -8  622.65   13.68
   6  -1  -8  614.63   14.00
   6  -1  -8  593.68   13.47
   6  -1  -7   79.94    3.34
   6  -1  -7   80.20    3.93
   6  -1  -7   80.17    3.51
   6  -1  -7   79.93    3.30
   6  -1  -7   77.05    4.70
   6  -1  -7   77.58    2.94
   6  -1  -6    4.45    1.28
   6  -1  -6    5.68    2.58
   6  -1  -6    3.95    1.42
   6  -1  -6    4.78    1.76
   6  -1  -6    5.12    2.37
   6  -1  -6    4.32    1.41
   6  -1  -5   44.78    2.30
   6  -1  -5   43.92    2.64
   6  -1  -5   43.90    2.19
   6  -1  -5   44.31    2.79
   6  -1  -5   44.21    3.28
   6  -1  -5   43.78    3.61
   6  -1  -4  137.44    4.36
   6  -1  -4  137.36    4.07
   6  -1  -4  135.19    4.64
   6  -1  -4  140.90    4.70
   6  -1  -4  134.52    4.64
   6  -1  -4  143.86    5.76
   6  -1  -3   49.34    2.53
   6  -1  -3   50.54    2.76
   6  -1  -3   52.68    1.93
   6  -1  -3   51.91    2.77
   6  -1  -3   46.37    4.27
   6  -1  -3   48.36    4.05
   6  -1  -2   -0.43    1.21
   6  -1  -2   -1.25    1.34
   6  -1  -2   -0.27    0.76
   6  -1  -2    0.42    0.77
   6  -1  -2   -0.80    1.42
   6  -1  -2   -1.60    1.49
   6  -1  -1   69.37    3.50
   6  -1  -1   73.33    3.30
   6  -1  -1   73.40    2.86
   6  -1  -1   62.98    3.52
  -6   1   1   66.47    1.94
  -6   1   1   69.94    3.32
   6  -1   0  497.07    8.78
   6  -1   0  500.01   10.88
   6  -1   0  488.34   11.06
  -6   1   0  466.64    8.93
  -6   1   0  487.50   12.39
  -6   1   0  486.48   10.89
   6  -1   1   72.80    5.63
   6  -1   1   59.98    1.79
   6  -1   1   59.84    5.04
  -6   1  -1   72.09    1.89
  -6   1  -1   69.08    5.16
  -6   1  -1   79.14    3.95
   6  -1   2  537.49   12.72
   6  -1   2  557.38    9.71
   6  -1   2  554.60   14.90
  -6   1  -2  517.53    9.82
  -6   1  -2  556.24   14.47
  -6   1  -2  548.33   12.39
   6  -1   3  141.80    7.39
   6  -1   3  134.86    3.73
   6  -1   3  139.90    5.05
  -6   1  -3  127.71    2.78
  -6   1  -3  138.32    6.49
  -6   1  -3  140.05    5.00
   6  -1   4   78.45    4.01
   6  -1   4   72.65    2.02
   6  -1   4   68.91    3.80
  -6   1  -4   70.80    1.97
  -6   1  -4   75.28    3.58
  -6   1  -4   71.07    3.83
   6  -1   5   85.01    6.17
   6  -1   5   80.71    2.32
   6  -1   5   82.97    4.04
  -6   1  -5   78.41    2.23
  -6   1  -5   87.68    3.93
  -6   1  -5   88.27    4.14
   6  -1   6  154.78    5.76
   6  -1   6  154.22    4.69
   6  -1   6  152.00    5.63
  -6   1  -6  145.23    3.57
  -6   1  -6  149.97    7.53
  -6   1  -6  167.49    7.74
   6  -1   7  814.47   18.93
   6  -1   7  821.80   17.39
   6  -1   7  828.76   19.42
  -6   1  -7  808.09   15.74
  -6   1  -7  825.34   19.01
  -6   1  -7  839.88   21.81
   6  -1   8   22.95    4.77
   6  -1   8   16.99    1.78
   6  -1   8   23.05    3.09
  -6   1  -8   18.03    1.77
  -6   1  -8   19.75    2.93
  -6   1  -8   17.05    4.88
   6  -1   9  188.37    5.06
   6  -1   9  190.16    6.75
   6  -1   9  199.43    7.11
  -6   1  -9  190.11    5.26
  -6   1  -9  192.60    9.34
  -6   1  -9  203.23    9.09
   6  -1  10   65.04    3.16
   6  -1  10   74.52    4.60
   6  -1  10   68.32    4.46
  -6   1 -10   67.57    3.20
  -6   1 -10   73.82    4.48
  -6   1 -10   62.73    4.24
   6  -1  11   53.40    3.92
   6  -1  11   49.77    4.16
  -6   1 -11   47.39    4.30
  -6   1 -11   49.59    3.98
  -6   1 -11   47.18    3.74
   6  -1  12    1.06    3.39
   6  -1  12    0.08    2.33
   6  -1  12    1.44    1.65
  -6   1 -12    2.07    1.72
  -6   1 -12    1.81    2.32
  -6   1 -12    0.75    2.12
   6  -1  13   11.68    4.95
   6  -1  13   13.40    3.45
   6  -1  13   19.32    2.69
  -6   1 -13   11.79    2.43
  -6   1 -13    0.14    3.01
  -6   1 -13    9.88    4.25
   6  -1  14   15.16    5.20
   6  -1  14   18.25    5.74
   6  -1  14   12.00    4.49
  -6   1 -14   15.43    4.24
  -6   1 -14    0.25    3.24
  -6   1 -14   13.00    2.85
   6  -1  15    1.58    3.35
   6  -1  15    1.95    3.71
   6  -1  15   -0.62    1.91
  -6   1 -15    0.97    3.75
  -6   1 -15    0.20    2.62
  -6   1 -15    3.52    2.31
   6   0 -13    2.88    2.75
   6   0 -13    4.66    4.22
   6   0 -12    7.37    4.63
   6   0 -12   10.29    2.86
   6   0 -11    6.12    2.57
   6   0 -11    6.43    2.37
   6   0 -10   86.40    6.23
   6   0 -10   77.48    3.11
   6   0 -10   79.13    3.06
   6   0 -10   81.52    5.94
   6   0  -9   70.42    4.19
   6   0  -9   66.87    3.78
   6   0  -9   68.32    3.69
   6   0  -9   72.16    2.84
   6   0  -9   71.33    5.12
   6   0  -9   70.12    2.76
   6   0  -8  241.68    8.40
   6   0  -8  241.33    7.02
   6   0  -8  244.35    7.20
   6   0  -8  248.62    6.56
   6   0  -8  234.32    7.26
   6   0  -8  249.55    7.17
   6   0  -7    0.36    1.15
   6   0  -7    2.03    1.61
   6   0  -7   -0.18    0.95
   6   0  -7   -0.68    1.07
   6   0  -7    0.81    1.08
   6   0  -7   -0.01    1.04
   6   0  -6  101.88    3.37
   6   0  -6  110.00    3.37
   6   0  -6  104.04    3.46
   6   0  -6  108.37    3.40
   6   0  -6  101.13    3.30
   6   0  -6  107.64    3.47
   6   0  -5   59.62    3.32
   6   0  -5   59.59    2.57
   6   0  -5   57.04    3.56
   6   0  -5   57.75    2.22
   6   0  -5   56.60    2.64
   6   0  -5   58.07    2.69
   6   0  -4   79.67    2.48
   6   0  -4   82.81    4.28
   6   0  -4   83.92    4.26
   6   0  -4   80.55    2.93
   6   0  -4   83.25    2.48
   6   0  -4   78.63    3.19
   6   0  -3  190.69    4.01
   6   0  -3  190.11    5.00
   6   0  -3  194.21    4.91
   6   0  -3  197.38    4.76
   6   0  -3  190.06    5.00
   6   0  -3  196.17    5.27
   6   0  -2   68.50    3.07
   6   0  -2   69.04    4.36
   6   0  -2   75.97    2.55
   6   0  -2   72.48    3.40
   6   0  -2   74.69    3.16
   6   0  -2   71.01    2.56
   6   0  -1  511.80   10.88
   6   0  -1  516.05   10.66
   6   0  -1  525.31    9.25
   6   0  -1  512.35   11.20
   6   0  -1  508.95    9.06
  -6   0   1  489.11   10.11
   6   0   0   50.06    2.79
   6   0   0   54.21    2.79
   6   0   0   52.50    1.67
   6   0   0   52.00    1.27
   6   0   0   56.38    4.53
  -6   0   0   46.45    3.85
   6   0   1  428.48    9.53
   6   0   1  427.59    6.97
   6   0   1  423.71    6.49
   6   0   1  433.10    9.91
  -6   0  -1   18.03    2.47
   6   0   2   13.43    0.86
   6   0   2   11.84    2.06
   6   0   2   10.98    3.76
  -6   0  -2   15.56    2.02
  -6   0  -2   14.25    0.74
  -6   0  -2   13.39    2.37
   6   0   3   -0.15    0.44
   6   0   3    0.58    1.15
   6   0   3    0.35    1.26
  -6   0  -3   -0.41    1.25
  -6   0  -3   -0.05    0.44
  -6   0  -3   -0.93    1.42
   6   0   4   90.30    1.76
   6   0   4  100.35    5.65
   6   0   4   98.45    6.00
  -6   0  -4   93.01    3.82
  -6   0  -4   89.42    2.09
  -6   0  -4   95.57    4.05
   6   0   5  386.02    7.10
   6   0   5  405.32   12.40
   6   0   5  393.64    9.93
  -6   0  -5  385.34    7.10
  -6   0  -5  366.83   11.66
  -6   0  -5  395.56   12.15
   6   0   6   36.46    3.61
   6   0   6   31.34    1.42
   6   0   6   43.96    3.84
  -6   0  -6   34.71    2.20
  -6   0  -6   55.96    3.72
  -6   0  -6   48.85    5.52
   6   0   7   38.52    1.65
   6   0   7   36.72    3.56
   6   0   7   34.93    3.70
  -6   0  -7   31.18    1.62
  -6   0  -7   34.25    5.43
  -6   0  -7   32.28    3.48
   6   0   8  882.96   22.02
   6   0   8  877.92   19.96
   6   0   8  870.48   17.42
  -6   0  -8  861.84   17.37
  -6   0  -8  874.82   19.61
  -6   0  -8  901.07   19.73
   6   0   9   59.59    3.70
   6   0   9   55.61    4.00
   6   0   9   56.60    2.32
  -6   0  -9   54.41    3.21
  -6   0  -9   60.84    3.82
  -6   0  -9   51.82    3.63
   6   0  10    5.29    2.24
   6   0  10    6.15    1.43
   6   0  10    6.69    2.53
  -6   0 -10    5.00    2.25
  -6   0 -10    2.18    3.80
  -6   0 -10    6.96    2.15
   6   0  11   16.32    2.84
   6   0  11   24.18    3.26
   6   0  11   22.56    3.12
  -6   0 -11   20.12    4.88
  -6   0 -11   22.95    4.29
  -6   0 -11   18.39    2.03
   6   0  12   33.41    3.28
   6   0  12   31.18    5.93
   6   0  12   33.21    2.59
  -6   0 -12   30.95    3.84
  -6   0 -12   30.73    5.57
  -6   0 -12   31.94    4.93
   6   0  13   22.31    3.12
   6   0  13   25.07    5.83
   6   0  13   26.35    3.96
  -6   0 -13   23.40    2.60
  -6   0 -13   26.73    5.66
  -6   0 -13   27.17    3.06
   6   0  14    4.12    2.24
   6   0  14    2.54    2.84
   6   0  14    2.12    2.00
  -6   0 -14    3.64    2.00
  -6   0 -14    1.19    4.31
  -6   0 -14    2.12    2.17
   6   0  15    7.36    2.45
   6   0  15    1.78    3.09
   6   0  15    2.04    2.28
  -6   0 -15    0.97    2.12
  -6   0 -15    0.23    4.31
  -6   0 -15    3.43    2.01
   6   1 -12   30.58    3.82
   6   1 -11   45.76    3.84
   6   1 -11   42.59    3.52
   6   1 -10    0.73    3.04
   6   1 -10    1.43    1.21
   6   1 -10    0.98    1.74
   6   1 -10    0.77    1.96
   6   1  -9    4.46    2.01
   6   1  -9    4.22    1.81
   6   1  -9    5.17    1.48
   6   1  -9    3.96    1.82
   6   1  -9    7.63    1.87
   6   1  -9    6.43    1.50
   6   1  -8   31.22    1.79
   6   1  -8   30.82    2.61
   6   1  -8   32.32    3.23
   6   1  -8   31.60    1.74
   6   1  -8   33.27    2.44
   6   1  -8   32.15    3.23
   6   1  -7    2.86    2.42
   6   1  -7    2.96    1.42
   6   1  -7    3.82    1.10
   6   1  -7    4.04    1.44
   6   1  -7    4.69    1.16
   6   1  -7    2.89    1.47
   6   1  -6    0.10    1.07
   6   1  -6    0.44    1.80
   6   1  -6    1.13    0.93
   6   1  -6   -0.34    1.39
   6   1  -6    0.48    1.15
   6   1  -5   14.48    2.40
   6   1  -5   14.50    1.46
   6   1  -5   14.54    1.86
   6   1  -5   16.18    1.43
   6   1  -5   17.25    1.46
   6   1  -5   16.70    1.88
   6   1  -4   -0.06    0.73
   6   1  -4   -0.13    1.08
   6   1  -4    0.48    1.31
   6   1  -4    0.74    0.70
   6   1  -4   -0.20    1.42
   6   1  -4   -0.24    1.11
   6   1  -3  267.55    5.85
   6   1  -3  265.16    7.14
   6   1  -3  270.66    5.90
   6   1  -3  275.59    5.85
   6   1  -3  273.55    8.05
   6   1  -3  265.42    6.69
   6   1  -2   82.74    1.94
   6   1  -2   88.01    3.97
   6   1  -2   87.14    2.45
   6   1  -2   85.57    4.74
   6   1  -2   86.25    4.98
   6   1  -1   74.43    1.92
   6   1  -1   73.05    2.89
   6   1  -1   73.95    1.49
   6   1  -1   64.76    4.81
   6   1  -1   67.93    3.50
  -6  -1   1   74.67    2.87
   6   1   0  472.63    6.88
   6   1   0  470.74    9.80
   6   1   0  468.51   10.11
   6   1   0  482.80    6.98
   6   1   0  476.12   10.55
  -6  -1   0  449.79    9.22
   6   1   1   82.01    3.04
   6   1   1   82.99    3.36
   6   1   1   75.06    5.24
  -6  -1  -1   74.43    2.89
   6   1   2   89.35    4.84
   6   1   2   89.02    3.55
   6   1   2   83.76    3.82
  -6  -1  -2   79.12    3.06
   6   1   3   13.16    2.31
   6   1   3   11.96    2.34
   6   1   3   13.92    4.05
  -6  -1  -3   13.73    3.46
   6   1   4  466.51   11.42
   6   1   4  461.56   11.31
   6   1   4  450.05   11.18
  -6  -1  -4  445.97   10.65
   6   1   5 1574.90   32.60
   6   1   5 1544.09   31.81
   6   1   5 1551.17   32.26
  -6  -1  -5 1531.37   31.37
  -6  -1  -5 1457.15   22.29
  -6  -1  -5 1482.16   22.64
   6   1   6 1199.30   25.26
   6   1   6 1198.29   25.06
  -6  -1  -6 1177.80   24.65
  -6  -1  -6 1174.45   19.56
   6   1   7    1.34    2.20
   6   1   7   -0.10    0.40
   6   1   7    1.29    2.03
  -6  -1  -7   -0.46    0.72
  -6  -1  -7   -0.33    1.43
  -6  -1  -7    1.46    1.36
   6   1   8  131.03    5.04
   6   1   8  137.92    3.61
   6   1   8  128.10    4.69
  -6  -1  -8  132.04    2.87
  -6  -1  -8  135.10    6.84
  -6  -1  -8  139.68    4.82
   6   1   9   17.76    2.54
   6   1   9   21.37    2.06
   6   1   9   20.83    2.98
  -6  -1  -9   18.83    2.03
  -6  -1  -9   18.02    2.71
  -6  -1  -9   22.10    2.44
   6   1  10   30.84    2.88
   6   1  10   31.52    1.78
   6   1  10   27.33    3.44
  -6  -1 -10   28.18    1.71
  -6  -1 -10   30.91    3.20
  -6  -1 -10   30.39    2.80
   6   1  11  110.16    4.69
   6   1  11  111.52    5.34
   6   1  11  112.73    3.50
  -6  -1 -11  106.71    3.40
  -6  -1 -11  111.02    5.14
  -6  -1 -11  113.23    4.52
   6   1  12   14.33    2.49
   6   1  12   15.16    5.20
   6   1  12   14.80    1.91
  -6  -1 -12   16.21    1.88
  -6  -1 -12   17.16    2.97
  -6  -1 -12   14.07    2.46
   6   1  13    0.68    1.58
   6   1  13    0.35    1.54
   6   1  13   -0.35    2.25
  -6  -1 -13    0.67    2.09
  -6  -1 -13    0.23    2.07
  -6  -1 -13   -0.03    1.23
  -6  -1 -13    0.90    1.54
   6   1  14   39.28    3.45
   6   1  14   39.50    3.20
   6   1  14   47.44    4.55
  -6  -1 -14   38.46    4.50
  -6  -1 -14   40.15    4.13
  -6  -1 -14   40.16    2.83
   6   1  15    4.83    3.17
   6   1  15    0.09    2.97
   6   1  15    1.02    2.84
  -6  -1 -15   -1.30    2.61
  -6  -1 -15   -0.10    2.22
  -6  -1 -15    0.28    2.42
   6   1  16    1.21    2.89
   6   1  16   -0.24    1.58
   6   1  16    1.80    4.11
  -6  -1 -16    3.40    3.55
  -6  -1 -16    2.59    2.78
  -6  -1 -16    2.47    2.09
   6   2 -12    7.67    3.01
   6   2 -11   37.73    3.62
   6   2 -11   31.22    5.16
   6   2 -10   93.49    5.04
   6   2 -10   94.75    6.50
   6   2 -10   95.21    4.39
   6   2 -10   86.91    3.48
   6   2  -9    5.45    3.21
   6   2  -9    5.51    1.68
   6   2  -9    5.83    1.85
   6   2  -9    1.27    2.54
   6   2  -8   17.73    2.22
   6   2  -8   19.16    2.13
   6   2  -8   18.18    2.11
   6   2  -8   17.05    2.00
   6   2  -7   39.58    2.09
   6   2  -7   39.75    2.50
   6   2  -7   39.50    2.59
   6   2  -7   36.47    1.42
   6   2  -7   42.98    2.40
   6   2  -7   42.63    2.49
   6   2  -6    3.62    1.27
   6   2  -6    1.94    0.79
   6   2  -6    2.73    1.34
   6   2  -6    1.44    1.20
   6   2  -6    3.20    1.45
   6   2  -6   -0.14    2.42
   6   2  -5   15.78    1.89
   6   2  -5   14.81    1.55
   6   2  -5   15.13    2.04
   6   2  -5   14.82    1.78
   6   2  -5   15.85    2.26
   6   2  -5   19.58    2.02
   6   2  -4  214.63    5.52
   6   2  -4  217.17    5.87
   6   2  -4  217.81    5.31
   6   2  -4  211.30    4.50
   6   2  -4  211.80    4.50
   6   2  -4  213.55    5.74
   6   2  -3  142.62    3.07
   6   2  -3  140.34    3.46
   6   2  -3  149.61    3.50
   6   2  -3  148.96    4.59
   6   2  -3  142.45    3.01
   6   2  -3  140.02    4.53
   6   2  -2  395.04    8.78
   6   2  -2  398.75    9.08
   6   2  -2  387.45    7.12
   6   2  -2  391.57    7.08
   6   2  -2  395.69    9.14
  -6  -2   2  369.31    7.20
   6   2  -1  135.90    3.53
   6   2  -1  137.71    2.63
   6   2  -1  133.98    4.35
   6   2  -1  134.57    2.20
   6   2  -1  139.91    4.53
  -6  -2   1  131.59    3.40
   6   2   0    2.48    1.79
   6   2   0    1.19    1.49
   6   2   0    0.91    1.59
  -6  -2   0    1.79    1.06
   6   2   1  545.99   11.08
   6   2   1  548.93   13.60
   6   2   1  543.19   11.89
  -6  -2  -1  518.12   11.63
   6   2   2 1351.56   26.75
   6   2   2 1362.56   27.35
   6   2   2 1337.00   27.16
  -6  -2  -2 1292.68   25.33
   6   2   3 1628.25   34.74
   6   2   3 1639.91   33.35
   6   2   3 1622.76   33.11
  -6  -2  -3 1561.27   31.44
   6   2   4  509.81   11.49
   6   2   4  510.89   13.69
   6   2   4  517.47   11.87
  -6  -2  -4  506.25   11.16
   6   2   5  564.46   12.65
   6   2   5  566.56   12.63
   6   2   5  555.68   12.56
  -6  -2  -5  553.50   12.26
   6   2   6   10.55    3.71
   6   2   6   13.32    2.16
   6   2   6   12.68    3.77
  -6  -2  -6   13.32    2.25
   6   2   7  345.02    9.88
   6   2   7  338.52    8.34
   6   2   7  341.76    8.73
  -6  -2  -7  331.89    8.18
  -6  -2  -7  329.05    5.23
   6   2   8   75.00    4.82
   6   2   8   73.51    3.89
   6   2   8   71.37    3.56
  -6  -2  -8   72.87    3.68
  -6  -2  -8   72.03    1.67
  -6  -2  -8   69.66    2.05
   6   2   9    2.44    1.68
   6   2   9    1.62    3.50
   6   2   9    3.87    1.77
  -6  -2  -9    3.32    1.26
  -6  -2  -9    0.23    3.32
  -6  -2  -9    3.56    1.18
   6   2  10  211.99    6.04
   6   2  10  214.82    7.24
   6   2  10  211.44    6.30
  -6  -2 -10  211.98    9.09
  -6  -2 -10  207.97    5.23
  -6  -2 -10  204.55    5.34
   6   2  11    2.48    1.69
   6   2  11    1.12    2.58
   6   2  11   -0.93    2.27
  -6  -2 -11   -0.50    0.92
  -6  -2 -11   -0.32    1.36
  -6  -2 -11    0.51    1.88
   6   2  12   49.18    3.32
   6   2  12   54.67    4.60
   6   2  12   53.90    6.73
  -6  -2 -12   48.20    2.45
  -6  -2 -12   53.42    4.12
  -6  -2 -12   48.75    2.31
   6   2  13   13.54    3.92
   6   2  13   16.70    2.29
   6   2  13   17.44    3.57
  -6  -2 -13   15.59    2.03
  -6  -2 -13   18.34    5.29
  -6  -2 -13   17.32    1.85
   6   2  14   38.72    4.49
   6   2  14   33.99    2.88
   6   2  14   40.16    4.49
  -6  -2 -14   39.40    2.81
  -6  -2 -14   43.97    6.53
  -6  -2 -14   35.74    3.90
   6   2  15   47.45    4.64
   6   2  15   47.18    3.44
   6   2  15   50.32    7.85
  -6  -2 -15   44.50    3.25
  -6  -2 -15   52.61    6.97
  -6  -2 -15   44.12    4.59
   6   2  16   33.71    3.19
   6   2  16   33.39    3.04
   6   2  16   45.72    4.94
  -6  -2 -16   35.95    3.41
  -6  -2 -16   36.45    4.52
  -6  -2 -16   38.58    3.17
   6   3 -11    2.10    2.38
   6   3 -10    5.79    3.70
   6   3 -10   10.98    4.34
   6   3 -10   11.00    2.52
   6   3 -10   14.19    2.15
   6   3  -9   34.09    2.86
   6   3  -9   36.84    4.83
   6   3  -9   38.48    4.49
   6   3  -9   29.89    4.06
   6   3  -8   25.52    2.49
   6   3  -8   22.98    3.90
   6   3  -8   21.08    2.32
   6   3  -8   20.66    2.32
   6   3  -7   52.35    4.40
   6   3  -7   54.80    4.84
   6   3  -7   59.25    2.87
   6   3  -7   51.76    3.08
   6   3  -6  161.79    6.92
   6   3  -6  160.50    4.66
   6   3  -6  158.16    4.44
   6   3  -6  158.69    5.04
   6   3  -5   52.64    2.41
   6   3  -5   51.40    1.35
   6   3  -5   56.62    3.21
   6   3  -5   52.90    1.41
   6   3  -5   54.56    2.30
   6   3  -5   52.31    3.11
   6   3  -4  234.62    4.96
   6   3  -4  246.46    6.60
   6   3  -4  235.74    5.17
   6   3  -4  236.04    5.06
   6   3  -4  242.36    6.57
   6   3  -4  234.91    4.40
   6   3  -3   99.18    3.09
   6   3  -3   97.80    3.07
   6   3  -3  105.05    4.03
   6   3  -3   99.57    2.56
   6   3  -3  100.90    2.51
   6   3  -3   99.89    4.04
   6   3  -2    0.40    1.17
   6   3  -2    1.44    1.40
   6   3  -2    0.24    0.96
   6   3  -2    0.37    0.54
   6   3  -2   -0.01    1.47
  -6  -3   2    0.67    1.12
   6   3  -1  417.25    8.98
   6   3  -1  398.22    6.40
   6   3  -1  403.66    9.40
   6   3  -1  393.15    6.27
   6   3  -1  403.37    9.60
  -6  -3   1  389.69    7.43
   6   3   0  925.54   17.63
   6   3   0  945.52   21.76
   6   3   0  931.84   14.05
   6   3   0  940.27   14.13
   6   3   0  919.54   19.27
  -6  -3   0  899.40   16.79
   6   3   1  173.17    4.51
   6   3   1  169.47    5.59
   6   3   1  171.11    5.66
  -6  -3  -1  164.46    4.17
   6   3   2   77.16    4.36
   6   3   2   69.25    3.87
   6   3   2   73.68    5.74
  -6  -3  -2   71.20    2.80
   6   3   3  824.50   19.06
   6   3   3  802.34   16.88
   6   3   3  811.01   16.37
  -6  -3  -3  778.90   15.42
   6   3   4    7.96    1.86
   6   3   4    6.16    2.02
   6   3   4    4.75    2.74
  -6  -3  -4    6.45    1.59
   6   3   5   51.27    4.42
   6   3   5   51.42    4.65
   6   3   5   49.50    2.94
  -6  -3  -5   47.96    2.65
   6   3   6   37.83    2.65
   6   3   6   33.39    2.80
   6   3   6   39.86    4.31
  -6  -3  -6   35.22    2.68
   6   3   7    7.74    1.96
   6   3   7    8.22    2.25
   6   3   7   12.15    2.05
  -6  -3  -7    7.41    2.03
  -6  -3  -7    8.09    0.44
   6   3   8   77.27    3.59
   6   3   8   75.47    5.98
   6   3   8   80.42    3.72
  -6  -3  -8   73.82    1.95
  -6  -3  -8   81.60    5.56
  -6  -3  -8   71.57    1.86
   6   3   9  186.02    6.43
   6   3   9  179.37    5.55
   6   3   9  178.28    7.03
  -6  -3  -9  170.98    3.97
  -6  -3  -9  182.14    5.99
  -6  -3  -9  172.23    3.32
   6   3  10   78.33    5.20
   6   3  10   77.68    6.89
   6   3  10   74.70    3.81
  -6  -3 -10   72.41    2.23
  -6  -3 -10   78.00    4.47
  -6  -3 -10   77.54    2.89
   6   3  11    1.05    2.49
   6   3  11    3.22    2.34
   6   3  11    0.26    1.66
  -6  -3 -11    1.07    1.00
  -6  -3 -11    2.42    2.22
  -6  -3 -11    1.94    0.95
   6   3  12   20.37    2.34
   6   3  12   18.23    3.62
   6   3  12   18.60    2.44
  -6  -3 -12   19.57    2.61
  -6  -3 -12   17.87    3.24
  -6  -3 -12   20.36    1.65
   6   3  13    8.26    3.59
   6   3  13   11.20    3.48
   6   3  13   13.88    2.17
  -6  -3 -13   11.63    1.80
  -6  -3 -13   10.85    3.21
  -6  -3 -13   14.52    1.73
   6   3  14    1.39    1.53
   6   3  14   -0.73    1.39
   6   3  14    0.89    2.49
  -6  -3 -14    0.22    1.39
  -6  -3 -14    2.01    2.39
  -6  -3 -14    0.74    1.32
   6   3  15    7.94    2.16
   6   3  15    5.98    5.83
   6   3  15    6.04    3.13
  -6  -3 -15    7.56    1.92
  -6  -3 -15    9.31    5.00
  -6  -3 -15   -0.12    1.87
   6   3  16  121.02    6.84
   6   3  16  121.90    4.63
   6   3  16  142.59    7.52
  -6  -3 -16  115.37    6.84
  -6  -3 -16  119.75    4.85
  -6  -3 -16  124.13   10.08
   6   4 -10   21.20    4.59
   6   4 -10   15.82    4.95
  -6  -4  10    0.05    1.71
   6   4  -9    0.02    2.61
   6   4  -9    0.23    2.59
  -6  -4   9   -1.35    1.71
  -6  -4   9   -0.04    1.83
   6   4  -8    9.00    2.52
   6   4  -8    9.91    2.33
  -6  -4   8    0.17    1.46
  -6  -4   8   -0.02    1.42
   6   4  -7   16.88    2.68
   6   4  -7   14.30    2.25
  -6  -4   7   15.91    3.91
  -6  -4   7   16.54    2.22
   6   4  -6   48.58    3.45
   6   4  -6   48.83    4.07
  -6  -4   6   44.69    3.21
  -6  -4   6   46.02    2.69
   6   4  -5  126.29    3.99
   6   4  -5  131.02    5.17
  -6  -4   5  129.73    4.83
  -6  -4   5  123.20    5.05
   6   4  -4    2.50    1.67
   6   4  -4    0.68    1.67
   6   4  -4    0.37    0.20
   6   4  -4    0.62    0.33
  -6  -4   4    3.37    1.92
  -6  -4   4    2.12    1.87
   6   4  -3  107.72    4.55
   6   4  -3   97.74    2.50
   6   4  -3  102.26    2.93
   6   4  -3   97.36    2.53
  -6  -4   3  103.86    4.44
  -6  -4   3  104.39    2.94
   6   4  -2   82.60    4.20
   6   4  -2   84.62    3.24
   6   4  -2   77.96    2.80
  -6  -4   2   73.48    6.25
  -6  -4   2   77.80    2.59
  -6  -4   2   79.68    2.27
   6   4  -1  562.92   15.47
   6   4  -1  535.82   10.01
   6   4  -1  537.15    9.90
  -6  -4   1  534.74   12.37
  -6  -4   1  526.83   10.38
  -6  -4   1  524.17    9.03
   6   4   0  468.53   11.20
   6   4   0  448.70    7.30
   6   4   0  466.71   10.00
  -6  -4   0  437.02   10.68
  -6  -4   0  442.62    8.37
  -6  -4   0  437.68    7.53
   6   4   1 1231.86   25.78
   6   4   1 1175.57   18.62
   6   4   1 1219.55   24.51
  -6  -4  -1 1175.02   24.72
  -6  -4  -1 1162.02   21.84
  -6  -4  -1 1144.74   18.11
   6   4   2  133.31    6.78
   6   4   2  130.55    5.00
   6   4   2  130.95    4.90
  -6  -4  -2  122.27    4.52
   6   4   3  194.62    5.86
   6   4   3  195.66    5.05
   6   4   3  195.36    5.93
  -6  -4  -3  183.71    4.67
   6   4   4   12.31    2.08
   6   4   4    8.79    1.76
   6   4   4    6.86    2.25
  -6  -4  -4    7.79    2.58
   6   4   5  233.83    6.51
   6   4   5  245.43    6.38
   6   4   5  228.64    6.35
  -6  -4  -5  233.50    7.42
   6   4   6  346.35   10.16
   6   4   6  352.47   10.23
   6   4   6  334.65   10.16
  -6  -4  -6  326.13    7.87
   6   4   7   14.39    2.38
   6   4   7   15.20    2.16
   6   4   7   11.71    2.20
  -6  -4  -7   13.21    3.34
  -6  -4  -7   12.44    0.65
   6   4   8    4.60    1.88
   6   4   8    5.14    2.17
   6   4   8    6.03    1.93
  -6  -4  -8    5.44    0.58
  -6  -4  -8    6.03    2.07
  -6  -4  -8    4.72    0.89
   6   4   9  132.17    4.67
   6   4   9  145.66    5.55
   6   4   9  135.68    4.79
  -6  -4  -9  130.03    2.75
  -6  -4  -9  131.76    5.30
  -6  -4  -9  132.62    3.32
   6   4  10    6.45    1.94
   6   4  10    7.66    2.74
   6   4  10    7.98    2.09
  -6  -4 -10   -0.03    0.87
  -6  -4 -10    4.51    2.18
  -6  -4 -10    5.39    1.30
   6   4  11   75.61    7.56
   6   4  11   77.19    3.60
   6   4  11   72.93    3.74
  -6  -4 -11   74.40    2.50
  -6  -4 -11   88.11    4.79
  -6  -4 -11   76.76    3.36
   6   4  12  231.88    6.55
   6   4  12  239.64    8.63
   6   4  12  235.43    8.52
  -6  -4 -12  219.44    6.52
  -6  -4 -12  233.36    8.12
  -6  -4 -12  218.58    6.24
   6   4  13  169.19    5.30
   6   4  13  180.75   10.63
   6   4  13  170.02    7.23
  -6  -4 -13  170.60    6.04
  -6  -4 -13  171.28    7.19
  -6  -4 -13  163.24    4.51
   6   4  14   43.14    3.05
   6   4  14   43.01    4.28
   6   4  14   42.10    4.82
  -6  -4 -14   38.02    2.67
  -6  -4 -14   39.86    4.50
  -6  -4 -14   38.29    3.79
   6   4  15    0.67    2.61
   6   4  15    1.17    1.53
   6   4  15    1.66    4.56
  -6  -4 -15    1.99    2.51
  -6  -4 -15    1.79    2.70
  -6  -4 -15    0.09    1.47
   6   4  16   84.88    3.87
   6   4  16   81.70    5.15
   6   4  16   95.36    6.51
  -6  -4 -16   74.37    3.96
  -6  -4 -16   96.04    8.92
  -6  -4 -16   84.76    4.12
   6   5  -9   17.53    5.27
   6   5  -9   19.08    5.07
  -6  -5   9   15.60    2.99
  -6  -5   9   21.63    3.04
   6   5  -8   59.48    6.56
   6   5  -8   60.26    4.04
  -6  -5   8   56.28    5.85
  -6  -5   8   57.05    5.53
   6   5  -7   58.88    6.39
   6   5  -7   66.64    3.81
  -6  -5   7   60.21    5.92
  -6  -5   7   66.03    3.57
   6   5  -6    2.49    3.70
   6   5  -6    2.76    2.85
  -6  -5   6   -0.61    1.78
  -6  -5   6    2.59    2.33
   6   5  -5   15.25    4.60
   6   5  -5   13.64    2.00
  -6  -5   5   -0.35    2.39
  -6  -5   5    9.87    1.74
   6   5  -4  126.54    5.60
   6   5  -4  120.08    3.89
  -6  -5   4  118.32    5.17
  -6  -5   4  118.01    5.06
   6   5  -3  766.10   18.28
   6   5  -3  744.13   15.05
  -6  -5   3  725.48   17.40
  -6  -5   3  721.82   14.37
   6   5  -2  576.31    9.98
   6   5  -2  629.74   15.05
   6   5  -2  602.66   12.83
  -6  -5   2  590.22   14.40
  -6  -5   2  602.31   12.67
   6   5  -1  557.15   16.01
   6   5  -1  519.22   10.04
   6   5  -1  526.05    9.79
  -6  -5   1  548.00   15.77
  -6  -5   1  517.26    9.06
  -6  -5   1  520.20   10.59
   6   5   0   81.90    4.36
   6   5   0   74.62    2.35
   6   5   0   73.06    2.72
  -6  -5   0   73.78    2.03
  -6  -5   0   78.75    6.29
  -6  -5   0   74.93    2.99
   6   5   1   84.43    4.29
   6   5   1   86.23    3.64
   6   5   1   80.96    2.41
  -6  -5  -1   79.19    2.39
  -6  -5  -1   89.33    4.19
  -6  -5  -1   77.44    2.49
   6   5   2  299.52   10.30
   6   5   2  291.25    6.43
   6   5   2  288.53    5.13
  -6  -5  -2  282.64    5.05
  -6  -5  -2  290.95    7.91
  -6  -5  -2  279.96    7.09
   6   5   3  515.88   12.04
   6   5   3  501.38   10.53
   6   5   3  483.18    7.71
  -6  -5  -3  478.65    7.72
  -6  -5  -3  484.71    9.94
  -6  -5  -3  496.65   11.59
   6   5   4  115.31    6.57
   6   5   4  113.44    5.29
   6   5   4  111.63    2.02
  -6  -5  -4  109.87    4.61
  -6  -5  -4  109.93    2.01
  -6  -5  -4  106.18    3.62
   6   5   5    0.49    1.42
   6   5   5   -0.62    1.26
   6   5   5   -0.32    1.47
  -6  -5  -5    0.17    0.36
  -6  -5  -5   -0.94    1.63
  -6  -5  -5   -0.07    0.18
   6   5   6  220.21    6.50
   6   5   6  226.16    6.42
   6   5   6  225.07    6.44
  -6  -5  -6  208.20    5.88
  -6  -5  -6  214.75    3.71
   6   5   7   41.75    4.53
   6   5   7   43.52    3.15
   6   5   7   41.77    4.61
  -6  -5  -7   39.15    4.32
  -6  -5  -7   41.46    1.48
  -6  -5  -7   38.23    1.47
   6   5   8  159.48    5.78
   6   5   8  154.18    7.03
   6   5   8  158.56    7.07
  -6  -5  -8  147.59    3.47
  -6  -5  -8  148.72    5.30
  -6  -5  -8  151.16    3.51
   6   5   9  211.54    6.27
   6   5   9  226.35    9.66
   6   5   9  203.97    6.27
  -6  -5  -9  199.29    3.99
  -6  -5  -9  208.96    6.80
  -6  -5  -9  208.03    4.07
   6   5  10  316.34    8.20
   6   5  10  323.64    9.48
   6   5  10  320.61   10.32
  -6  -5 -10  306.45    6.15
  -6  -5 -10  315.48    9.10
  -6  -5 -10  313.57    6.17
   6   5  11   89.71    3.88
   6   5  11   86.28    5.27
   6   5  11   86.31    5.58
  -6  -5 -11   83.23    3.70
  -6  -5 -11   89.71    4.93
  -6  -5 -11   83.52    3.52
   6   5  12    5.40    4.82
   6   5  12    6.01    3.10
   6   5  12    6.83    3.23
  -6  -5 -12    6.53    1.45
  -6  -5 -12    7.58    2.91
  -6  -5 -12    7.30    2.14
   6   5  13  178.45    7.19
   6   5  13  181.36    7.84
   6   5  13  182.50    5.73
  -6  -5 -13  166.01    6.19
  -6  -5 -13  179.22    7.36
  -6  -5 -13  168.82    6.03
   6   5  14   29.23    2.62
   6   5  14   33.18    4.53
   6   5  14   32.57    2.77
  -6  -5 -14   26.75    2.41
  -6  -5 -14   28.03    4.24
  -6  -5 -14   27.98    2.33
   6   5  15    3.17    2.86
   6   5  15    0.13    3.31
   6   5  15    2.26    2.58
  -6  -5 -15    4.38    2.72
  -6  -5 -15    0.98    4.90
  -6  -5 -15   -0.09    2.70
   6   5  16  156.54    8.62
  -6  -5 -16  132.55    5.36
  -6  -5 -16  153.83   11.64
  -6  -5 -16  146.65    5.45
   6   6  -8   68.54    5.17
   6   6  -8   62.22    6.52
  -6  -6   8   61.57    4.55
  -6  -6   8   63.38    6.35
   6   6  -7   -0.26    2.87
   6   6  -7    5.16    2.17
  -6  -6   7    0.17    3.77
  -6  -6   7    2.00    1.96
   6   6  -6  145.58    6.74
   6   6  -6  135.07    7.09
  -6  -6   6  126.45    8.51
  -6  -6   6  127.88    5.02
   6   6  -5  275.28    9.29
   6   6  -5  273.49    7.75
  -6  -6   5  259.40    8.81
  -6  -6   5  264.37    9.10
   6   6  -4  188.80    7.31
   6   6  -4  177.28    5.32
  -6  -6   4  174.81    6.92
  -6  -6   4  171.21    5.23
   6   6  -3   72.54    6.99
   6   6  -3   65.15    3.01
  -6  -6   3   65.55    2.89
  -6  -6   3   68.96    4.38
   6   6  -2   58.50    4.24
   6   6  -2   54.05    2.53
  -6  -6   2   57.89    3.57
  -6  -6   2   54.69    4.10
   6   6  -1    1.27    1.61
   6   6  -1    0.49    0.82
   6   6  -1    2.34    2.13
  -6  -6   1    0.47    1.46
  -6  -6   1   -0.44    3.04
  -6  -6   1    0.44    0.72
   6   6   0   79.13    2.97
   6   6   0   80.33    6.99
   6   6   0   78.11    3.28
  -6  -6   0   77.73    3.35
  -6  -6   0   82.68    4.47
  -6  -6   0   82.62    2.80
   6   6   1   47.33    2.79
   6   6   1   48.69    3.71
   6   6   1   45.77    2.48
  -6  -6  -1   44.48    2.47
  -6  -6  -1   43.86    2.61
  -6  -6  -1   44.34    3.64
   6   6   2    6.37    4.32
   6   6   2   10.10    2.32
   6   6   2    9.50    0.96
  -6  -6  -2   10.34    1.55
  -6  -6  -2    9.70    2.73
  -6  -6  -2   11.01    2.15
   6   6   3   10.92    2.57
   6   6   3    9.48    1.63
   6   6   3    9.94    1.37
  -6  -6  -3    8.30    0.92
  -6  -6  -3   15.38    2.46
  -6  -6  -3    8.16    2.30
   6   6   4    0.47    1.87
   6   6   4    0.30    0.80
   6   6   4   -0.38    1.66
  -6  -6  -4   -0.06    0.48
  -6  -6  -4    0.64    1.54
  -6  -6  -4    0.40    1.47
   6   6   5   36.06    3.08
   6   6   5   34.21    2.47
   6   6   5   29.63    1.14
  -6  -6  -5   32.98    2.35
  -6  -6  -5   29.93    1.73
  -6  -6  -5   33.73    3.02
   6   6   6  132.87    5.16
   6   6   6  142.80    4.86
   6   6   6  134.20    2.75
  -6  -6  -6  127.63    4.45
  -6  -6  -6  131.97    3.37
   6   6   7    3.72    2.01
   6   6   7    3.35    2.01
   6   6   7    3.16    2.09
  -6  -6  -7    3.21    1.78
  -6  -6  -7    2.86    0.75
  -6  -6  -7    1.58    0.75
   6   6   8  192.65    8.28
   6   6   8  196.80    6.42
   6   6   8  189.78    6.31
  -6  -6  -8  184.43    8.10
  -6  -6  -8  189.78    4.76
  -6  -6  -8  182.08    4.64
   6   6   9    2.39    2.91
   6   6   9    0.16    2.08
   6   6   9    1.68    1.81
  -6  -6  -9    1.46    1.90
  -6  -6  -9    0.84    1.27
  -6  -6  -9    0.47    0.83
   6   6  10   25.55    4.13
   6   6  10   20.24    5.20
   6   6  10   21.38    2.66
  -6  -6 -10   18.47    3.15
  -6  -6 -10   19.32    2.30
  -6  -6 -10   22.12    1.55
   6   6  11    1.97    2.89
   6   6  11    4.07    4.15
   6   6  11    1.94    1.88
  -6  -6 -11    2.33    1.17
  -6  -6 -11    2.79    2.47
  -6  -6 -11    3.83    1.16
   6   6  12    1.10    2.73
   6   6  12    1.80    1.79
   6   6  12    1.88    2.72
  -6  -6 -12   -0.48    1.25
  -6  -6 -12    0.35    2.51
  -6  -6 -12    3.94    1.23
   6   6  13   28.25    2.61
   6   6  13   29.37    4.36
   6   6  13   22.90    2.83
  -6  -6 -13   28.65    3.34
  -6  -6 -13   22.47    4.05
  -6  -6 -13   28.06    2.23
   6   6  14    8.40    6.01
   6   6  14    9.75    2.08
   6   6  14    5.85    3.53
  -6  -6 -14    4.79    2.95
  -6  -6 -14    5.56    5.49
  -6  -6 -14    7.17    1.79
   6   6  15   61.10    5.80
   6   6  15   53.94    4.86
   6   6  15   56.07    3.51
  -6  -6 -15   53.54    3.46
  -6  -6 -15   59.26    8.34
  -6  -6 -15   52.46    4.68
   6   7  -6   15.05    4.09
   6   7  -6   14.64    2.85
  -6  -7   6   -0.99    3.12
  -6  -7   6   13.09    3.79
   6   7  -5  186.29   11.31
   6   7  -5  164.47    6.01
  -6  -7   5  164.72    7.35
  -6  -7   5  167.03    5.94
   6   7  -4   33.09    4.42
   6   7  -4   28.28    4.34
  -6  -7   4   35.38    2.83
  -6  -7   4   26.90    4.02
   6   7  -3   82.32    5.37
   6   7  -3   70.29    4.96
  -6  -7   3   77.60    3.50
  -6  -7   3   74.76    5.09
   6   7  -2   20.99    5.90
   6   7  -2   21.73    3.35
  -6  -7   2   21.57    3.35
  -6  -7   2   25.49    3.60
   6   7  -1    0.47    2.46
   6   7  -1    1.79    2.04
  -6  -7   1    0.21    1.58
  -6  -7   1   -0.17    1.77
   6   7   0   11.62    3.12
   6   7   0    9.96    1.56
  -6  -7   0    7.39    2.18
  -6  -7   0   -0.07    2.71
   6   7   1   54.01    4.27
   6   7   1   42.65    2.13
   6   7   1   44.54    2.74
  -6  -7  -1   46.38    3.15
  -6  -7  -1   48.13    4.09
  -6  -7  -1   42.12    1.80
   6   7   2   93.10    5.27
   6   7   2   89.87    3.78
   6   7   2   88.85    2.96
  -6  -7  -2   92.60    2.87
  -6  -7  -2   90.05    2.92
  -6  -7  -2  105.50    7.46
   6   7   3    4.61    1.43
   6   7   3    3.62    1.66
   6   7   3    4.63    2.63
  -6  -7  -3    3.35    1.71
  -6  -7  -3    4.79    1.36
  -6  -7  -3    6.42    2.43
   6   7   4   -0.29    1.21
   6   7   4    1.29    3.19
   6   7   4    0.87    1.22
  -6  -7  -4    0.44    0.86
  -6  -7  -4    0.89    1.24
  -6  -7  -4    1.96    1.99
   6   7   5   53.41    3.04
   6   7   5   51.51    3.97
   6   7   5   51.58    2.68
  -6  -7  -5   49.69    2.89
  -6  -7  -5   53.83    2.78
  -6  -7  -5   62.13    3.93
   6   7   6   -0.45    2.24
   6   7   6    0.89    1.74
   6   7   6    0.09    1.14
  -6  -7  -6   -0.65    2.39
  -6  -7  -6    0.70    1.33
  -6  -7  -6    2.20    3.03
   6   7   7  191.77    6.24
   6   7   7  193.32    6.74
   6   7   7  178.78    4.98
  -6  -7  -7  180.42    5.99
  -6  -7  -7  186.33    4.34
  -6  -7  -7  196.96    6.73
   6   7   8  247.39    7.56
   6   7   8  243.46    9.97
   6   7   8  237.64    7.37
  -6  -7  -8  234.33    7.18
  -6  -7  -8  232.56    5.18
  -6  -7  -8  231.41    5.21
   6   7   9   51.18    3.88
   6   7   9   50.48    5.36
   6   7   9   47.12    3.50
  -6  -7  -9   48.10    3.66
  -6  -7  -9   49.09    3.06
  -6  -7  -9   45.81    3.09
   6   7  10   20.52    3.31
   6   7  10   12.38    4.16
   6   7  10   16.97    4.30
  -6  -7 -10   18.46    5.01
  -6  -7 -10   18.49    1.74
  -6  -7 -10   18.35    1.73
   6   7  11  307.53    9.89
   6   7  11  302.26   10.85
   6   7  11  292.56   10.75
  -6  -7 -11  297.38   12.29
  -6  -7 -11  299.82    8.24
  -6  -7 -11  275.56    6.74
   6   7  12   17.16    5.93
   6   7  12   17.41    2.58
   6   7  12   13.39    4.19
  -6  -7 -12   17.35    5.71
  -6  -7 -12   19.77    2.01
  -6  -7 -12   16.74    2.00
   6   7  13  240.04   13.07
   6   7  13  224.55    6.86
   6   7  13  216.75    6.77
  -6  -7 -13  206.78    5.88
  -6  -7 -13  225.26    8.51
  -6  -7 -13  213.71    5.93
   6   7  14    5.74    3.81
   6   7  14    6.61    2.14
   6   7  14    7.93    2.27
  -6  -7 -14    4.94    1.94
  -6  -7 -14    5.78    3.42
  -6  -7 -14    9.71    3.03
   6   8  -4   10.66    4.20
   6   8  -4   12.41    2.69
  -6  -8   4   10.03    3.60
  -6  -8   4   -0.14    3.41
   6   8  -3   18.73    6.83
   6   8  -3   15.51    4.10
  -6  -8   3   15.77    4.01
  -6  -8   3   22.30    3.93
   6   8  -2   53.12    5.21
   6   8  -2   42.44    4.63
  -6  -8   2   41.39    3.04
  -6  -8   2   42.73    4.71
   6   8  -1   66.54    5.43
   6   8  -1   56.92    4.71
  -6  -8   1   66.63    3.45
  -6  -8   1   68.02    7.84
   6   8   0   49.58    4.84
   6   8   0   39.78    2.74
  -6  -8   0   45.09    2.71
  -6  -8   0   44.67    7.12
   6   8   1    0.86    1.29
   6   8   1    1.78    2.68
  -6  -8  -1    0.80    1.32
  -6  -8  -1    1.94    2.50
   6   8   2    2.65    2.67
   6   8   2    1.08    1.31
  -6  -8  -2    1.88    2.16
  -6  -8  -2    1.27    1.09
  -6  -8  -2    0.16    2.56
   6   8   3  317.70   13.31
   6   8   3  298.60    7.18
   6   8   3  277.09    6.77
  -6  -8  -3  284.41    8.00
  -6  -8  -3  294.29    8.41
  -6  -8  -3  299.02    9.79
   6   8   4   80.42    5.12
   6   8   4   72.05    2.84
   6   8   4   68.40    3.29
  -6  -8  -4   75.92    4.50
  -6  -8  -4   70.19    2.86
  -6  -8  -4   75.90    4.80
   6   8   5  221.30    7.95
   6   8   5  198.60    6.15
   6   8   5  208.99    6.12
  -6  -8  -5  202.59    7.52
  -6  -8  -5  200.48    6.28
  -6  -8  -5  221.34    7.65
   6   8   6  139.15    6.13
   6   8   6  126.11    3.73
   6   8   6  135.96    4.95
  -6  -8  -6  132.07    4.81
  -6  -8  -6  122.52    3.79
  -6  -8  -6  141.72    8.35
   6   8   7   65.58    5.71
   6   8   7   62.45    6.80
   6   8   7   56.80    2.45
  -6  -8  -7   55.91    3.60
  -6  -8  -7   57.36    2.56
  -6  -8  -7   65.80    4.26
   6   8   8   84.79    4.68
   6   8   8   88.20    7.16
   6   8   8   79.59    4.07
  -6  -8  -8   79.27    6.38
  -6  -8  -8   85.36    4.27
  -6  -8  -8   85.66    4.87
   6   8   9  231.76    8.06
   6   8   9  226.69   10.15
   6   8   9  218.91    7.35
  -6  -8  -9  214.38    7.33
  -6  -8  -9  217.56    5.55
  -6  -8  -9  202.79    5.49
   6   8  10   73.48    5.04
   6   8  10   72.15    6.72
   6   8  10   80.71    6.64
  -6  -8 -10   72.00    4.67
  -6  -8 -10   72.77    4.51
  -6  -8 -10   62.33    2.94
   6   8  11   26.40    4.06
   6   8  11   26.93    5.07
   6   8  11   31.92    5.07
  -6  -8 -11   23.64    3.68
  -6  -8 -11   26.38    3.45
  -6  -8 -11   20.67    2.21
   6   8  12    1.47    2.99
   6   8  12    3.24    3.39
   6   8  12    2.29    3.39
  -6  -8 -12    0.97    2.30
  -6  -8 -12   -0.00    1.30
  -6  -8 -12    0.76    2.15
   6   8  13  180.08    8.57
   6   8  13  175.98    6.47
   6   8  13  171.58    8.62
  -6  -8 -13  177.87    7.91
   6   9  -1   -0.81    3.04
   6   9  -1    1.39    2.67
  -6  -9   1    1.47    2.83
  -6  -9   1    0.12    2.92
   6   9   0    2.60    3.59
   6   9   0    3.45    1.89
  -6  -9   0    3.86    2.92
  -6  -9   0    0.00    3.05
   6   9   1  173.26    8.36
   6   9   1  147.53    5.22
  -6  -9  -1  145.53    6.95
  -6  -9  -1  164.70   11.20
   6   9   2    0.64    5.19
   6   9   2    2.97    1.70
  -6  -9  -2    0.80    2.53
  -6  -9  -2    1.23    2.77
   6   9   3  101.37    6.44
   6   9   3   87.45    5.35
  -6  -9  -3   92.86    5.38
  -6  -9  -3   92.71    6.15
   6   9   4    0.11    2.46
   6   9   4   -0.70    2.19
   6   9   4   -0.31    2.06
  -6  -9  -4   -0.45    1.29
  -6  -9  -4   -0.01    2.07
  -6  -9  -4    0.02    2.29
   6   9   5   34.43    6.85
   6   9   5   33.27    2.88
   6   9   5   26.87    2.34
  -6  -9  -5   36.33    4.19
  -6  -9  -5   36.07    4.23
  -6  -9  -5   29.46    2.51
   6   9   6    9.90    5.54
   6   9   6    9.67    2.49
  -6  -9  -6    8.59    2.24
  -6  -9  -6    6.54    1.80
  -6  -9  -6    7.86    3.09
   6   9   7    4.09    3.94
   6   9   7    5.72    3.00
  -6  -9  -7    3.12    3.39
  -6  -9  -7    3.45    2.62
  -6  -9  -7    3.74    2.71
   6   9   8   -0.62    2.39
   6   9   8    2.04    2.08
  -6  -9  -8    0.11    1.94
  -6  -9  -8    1.15    2.23
   6   9   9   74.20    5.09
   6   9   9   76.92    4.97
  -6  -9  -9   66.75    4.59
  -6  -9  -9   75.66    4.96
   6   9  10   43.31    4.14
   6   9  10   44.66    4.39
   6   9  10   36.77    3.90
  -6  -9 -10   40.01    4.19
   6   9  11    1.40    2.32
   6   9  11    0.43    4.44
   6   9  11    3.37    3.77
  -6  -9 -11    0.36    2.25
   7  -6  -7    0.28    1.86
   7  -6  -7    0.77    2.75
  -7   6   7   -1.81    1.92
   7  -6  -6    4.28    2.44
   7  -6  -6    2.91    2.71
   7  -6  -6    3.49    5.78
   7  -6  -6    3.98    5.41
  -7   6   6    0.33    4.09
  -7   6   6    5.29    2.15
   7  -6  -5    3.04    2.48
   7  -6  -5    0.69    4.19
   7  -6  -5    2.39    3.44
   7  -6  -5    5.51    3.24
  -7   6   5    0.17    3.51
  -7   6   5    2.22    2.03
   7  -6  -4    7.57    2.90
   7  -6  -4    6.13    3.92
   7  -6  -4    6.69    4.63
   7  -6  -4    5.74    3.48
  -7   6   4   -0.05    4.00
  -7   6   4    8.70    3.99
   7  -6  -3   27.36    3.93
   7  -6  -3   20.46    4.91
   7  -6  -3   24.55    6.14
   7  -6  -3   31.39    4.77
  -7   6   3   -0.07    5.20
  -7   6   3   24.30    3.34
   7  -6  -2   47.94    7.19
   7  -6  -2   43.32    8.48
   7  -6  -2   45.46    5.27
  -7   6   2   39.67    4.10
   7  -6  -1   87.23    8.87
   7  -6  -1   90.49    6.64
   7  -6  -1   98.42    6.95
  -7   6   1   91.48    5.58
   7  -6   0   -0.62    4.38
   7  -6   0    0.43    4.54
   7  -6   0    3.41    4.72
  -7   6   0    2.60    4.72
   7  -6   1   22.00    6.91
   7  -6   1   17.21    5.14
   7  -6   1   25.83    4.32
   7  -6   1   22.57    4.52
  -7   6  -1   22.89    4.31
   7  -6   2    0.56    3.07
   7  -6   2   -1.21    4.73
   7  -6   2    2.72    2.24
   7  -6   2    1.46    2.76
  -7   6  -2    1.34    2.91
   7  -6   3    6.46    3.90
   7  -6   3    6.46    3.55
   7  -6   3    9.96    3.40
   7  -6   3    7.17    2.81
  -7   6  -3    1.31    2.42
  -7   6  -3    7.68    3.42
   7  -6   4    1.20    3.20
   7  -6   4    1.83    2.22
   7  -6   4   -1.51    4.44
   7  -6   4    0.14    2.68
  -7   6  -4   -0.18    1.93
  -7   6  -4    3.13    4.53
   7  -6   5    3.90    3.83
   7  -6   5   -0.19    2.53
   7  -6   5    3.18    4.85
   7  -6   5    5.79    3.27
  -7   6  -5    0.76    2.19
  -7   6  -5    3.33    5.27
   7  -5  -9   48.48    7.82
   7  -5  -9   50.21    4.35
   7  -5  -8   23.84    3.59
   7  -5  -8   23.57    4.08
   7  -5  -8   20.20    6.72
   7  -5  -8   20.13    5.41
   7  -5  -7    7.41    3.75
   7  -5  -7    8.65    4.43
   7  -5  -7   11.36    3.61
   7  -5  -7    9.26    3.30
   7  -5  -7    0.62    2.59
  -7   5   7    6.13    2.02
   7  -5  -6    3.04    2.17
   7  -5  -6    2.35    3.08
   7  -5  -6    0.50    3.73
   7  -5  -6    4.89    4.66
  -7   5   6   -0.63    3.28
  -7   5   6    2.58    1.81
   7  -5  -5    9.09    3.84
   7  -5  -5    3.96    3.42
   7  -5  -5    4.46    2.36
   7  -5  -5    2.82    3.11
  -7   5   5   -0.16    2.99
  -7   5   5    1.53    1.82
   7  -5  -4   -0.08    2.13
   7  -5  -4    2.19    2.80
   7  -5  -4    2.34    2.02
   7  -5  -4   -1.16    2.69
  -7   5   4   -0.25    1.57
  -7   5   4    0.05    1.62
   7  -5  -3  203.54    7.61
   7  -5  -3  198.68    9.25
   7  -5  -3  208.49    8.56
   7  -5  -3  203.09   12.14
  -7   5   3  182.12    6.42
  -7   5   3  185.38    9.02
   7  -5  -2    0.08    2.71
   7  -5  -2    5.89    3.63
   7  -5  -2    5.58    3.06
   7  -5  -2    5.03    3.27
  -7   5   2    0.19    1.93
  -7   5   2    6.45    2.37
   7  -5  -1   -0.34    2.49
   7  -5  -1    1.60    3.07
   7  -5  -1    3.10    2.69
   7  -5  -1    2.09    2.71
  -7   5   1    0.40    1.48
  -7   5   1   -0.09    3.12
   7  -5   0   21.15    3.70
   7  -5   0   19.31    3.83
   7  -5   0   18.63    2.85
   7  -5   0   18.99    6.16
  -7   5   0   17.22    2.53
  -7   5   0   16.49    3.29
   7  -5   1   -0.26    2.51
   7  -5   1    1.01    2.54
   7  -5   1    0.91    1.72
   7  -5   1    1.06    2.52
  -7   5  -1    1.12    1.73
  -7   5  -1    2.33    2.41
   7  -5   2   -1.75    2.39
   7  -5   2   -0.42    1.59
   7  -5   2    0.95    2.20
   7  -5   2    0.19    2.36
  -7   5  -2   -0.14    1.37
  -7   5  -2    1.38    3.37
   7  -5   3    1.77    2.97
   7  -5   3    2.25    3.14
   7  -5   3    1.17    2.57
   7  -5   3    0.64    2.75
  -7   5  -3   -0.24    1.43
  -7   5  -3    0.84    2.21
   7  -5   4   30.83    7.67
   7  -5   4   31.07    4.45
   7  -5   4   33.38    3.26
   7  -5   4   27.42    4.34
  -7   5  -4   33.43    3.16
  -7   5  -4   36.07    4.75
   7  -5   5   13.08    3.98
   7  -5   5   -0.20    2.59
   7  -5   5   14.01    3.47
   7  -5   5    8.21    5.27
  -7   5  -5    0.58    2.11
  -7   5  -5    7.91    3.47
   7  -5   6   20.76    4.92
   7  -5   6   21.37    3.17
   7  -5   6   21.39    6.27
   7  -5   6   15.95    6.22
  -7   5  -6   20.29    3.10
  -7   5  -6   19.40    4.78
   7  -5   7  122.48   11.95
   7  -5   7  125.47    6.12
   7  -5   7  119.24    6.72
   7  -5   7  133.58    7.25
  -7   5  -7  112.70    5.59
  -7   5  -7  133.51    7.99
   7  -5   8    5.32    3.47
   7  -5   8   -0.08    2.40
   7  -5   8    1.31    2.90
   7  -5   8    0.96    2.80
  -7   5  -8    1.40    3.49
  -7   5  -8    0.90    3.32
   7  -4 -10    5.71    2.77
   7  -4 -10    8.09    4.60
   7  -4 -10   -0.02    2.96
   7  -4 -10    3.49    4.26
   7  -4  -9   -0.12    1.71
   7  -4  -9   -0.66    1.92
   7  -4  -9   -0.01    1.96
   7  -4  -9    1.29    2.69
   7  -4  -8   42.72    3.10
   7  -4  -8   40.91    4.04
   7  -4  -8   52.57    5.91
   7  -4  -8   49.59    4.74
   7  -4  -8   50.76    4.51
   7  -4  -8   49.04    5.78
   7  -4  -7   11.33    2.37
   7  -4  -7   14.55    2.09
   7  -4  -7   12.80    3.59
   7  -4  -7   17.52    2.74
   7  -4  -7   15.69    3.36
   7  -4  -7   12.94    4.13
   7  -4  -6    2.24    1.87
   7  -4  -6    1.20    2.77
   7  -4  -6    0.15    2.04
   7  -4  -6    3.87    4.03
   7  -4  -6    2.70    1.90
  -7   4   6    0.91    1.52
   7  -4  -5  250.56    9.68
   7  -4  -5  262.93   12.25
   7  -4  -5  255.96    7.77
   7  -4  -5  270.83    9.20
  -7   4   5  236.64    9.04
  -7   4   5  245.06    9.21
   7  -4  -4    0.37    1.76
   7  -4  -4    0.22    1.55
   7  -4  -4    0.55    3.52
   7  -4  -4    3.07    3.86
  -7   4   4    1.00    2.28
  -7   4   4   -0.50    2.53
   7  -4  -3    3.81    2.28
   7  -4  -3    2.79    1.86
   7  -4  -3    6.57    2.66
   7  -4  -3    0.72    4.53
  -7   4   3    2.76    1.68
  -7   4   3    3.31    2.02
   7  -4  -2   22.05    3.19
   7  -4  -2   20.55    3.94
   7  -4  -2   19.70    5.57
   7  -4  -2   25.05    3.69
  -7   4   2   19.50    2.25
  -7   4   2   20.25    2.85
   7  -4  -1   -0.22    2.10
   7  -4  -1    0.00    2.39
   7  -4  -1    1.92    1.51
   7  -4  -1    1.84    2.33
  -7   4   1    0.23    1.22
  -7   4   1    0.10    2.82
   7  -4   0    0.64    2.34
   7  -4   0    1.80    1.62
   7  -4   0    4.63    2.48
   7  -4   0    1.09    2.57
  -7   4   0    2.01    2.50
  -7   4   0    3.65    2.34
   7  -4   1    5.34    2.70
   7  -4   1    2.91    2.79
   7  -4   1    5.27    4.43
   7  -4   1    3.78    4.65
  -7   4  -1    3.14    1.57
   7  -4   2    1.17    2.28
   7  -4   2   -1.06    2.31
   7  -4   2   -1.39    1.40
   7  -4   2    0.63    2.18
  -7   4  -2   -0.40    1.35
  -7   4  -2   -0.82    2.16
   7  -4   3   42.36    6.94
   7  -4   3   36.30    4.29
   7  -4   3   36.48    4.43
   7  -4   3   40.87    4.14
  -7   4  -3   34.89    2.68
  -7   4  -3   38.56    4.13
   7  -4   4   98.46    4.39
   7  -4   4  103.21    6.45
   7  -4   4  104.10    5.85
   7  -4   4  102.76    6.07
  -7   4  -4   98.91    5.87
  -7   4  -4  100.64    5.95
   7  -4   5  133.36    7.55
   7  -4   5  139.02    5.24
   7  -4   5  148.26    6.85
  -7   4  -5  134.67    7.05
  -7   4  -5  140.77    7.06
   7  -4   6   63.89    8.88
   7  -4   6   62.28    3.73
   7  -4   6   65.72    7.96
  -7   4  -6   57.35    5.32
  -7   4  -6   64.99    5.05
  -7   4  -6   70.61    8.21
   7  -4   7   25.30    4.43
   7  -4   7   -0.02    4.32
   7  -4   7   23.17    5.98
  -7   4  -7   22.65    4.29
  -7   4  -7   20.20    5.88
  -7   4  -7   19.97    6.67
   7  -4   8   10.68    3.85
   7  -4   8   -0.34    3.84
   7  -4   8   10.29    5.27
  -7   4  -8   11.50    2.54
  -7   4  -8    9.57    3.57
  -7   4  -8   11.87    3.82
   7  -4   9   21.14    5.14
   7  -4   9   29.24    4.94
   7  -4   9   21.45    4.06
  -7   4  -9   22.01    3.18
  -7   4  -9   25.32    4.08
  -7   4  -9   19.12    4.48
   7  -4  10   39.24    5.87
   7  -4  10   45.52    8.84
   7  -4  10   38.68    4.61
  -7   4 -10   31.02    5.82
  -7   4 -10   40.55    4.75
  -7   4 -10   39.68    5.07
   7  -3 -10   51.21    4.23
   7  -3 -10   56.18    4.18
   7  -3 -10   58.72    4.29
   7  -3 -10   53.24    6.65
   7  -3  -9   32.08    3.39
   7  -3  -9   34.59    3.68
   7  -3  -9   32.14    3.82
   7  -3  -9   33.34    3.44
   7  -3  -8    0.89    2.24
   7  -3  -8   -0.25    1.31
   7  -3  -8   -0.39    1.87
   7  -3  -8    2.69    2.26
   7  -3  -8    1.36    2.10
   7  -3  -8    2.41    1.79
   7  -3  -7   85.96    3.79
   7  -3  -7   91.46    5.12
   7  -3  -7   88.57    4.17
   7  -3  -7   91.79    7.10
   7  -3  -7   81.82    4.87
   7  -3  -7   84.81    4.10
   7  -3  -6    5.19    1.78
   7  -3  -6    6.87    3.02
   7  -3  -6    4.91    2.79
   7  -3  -6    4.99    3.24
   7  -3  -6    5.25    2.56
   7  -3  -6    5.01    1.96
   7  -3  -5    8.89    2.24
   7  -3  -5   12.70    3.05
   7  -3  -5   10.51    2.14
   7  -3  -5    9.62    3.42
   7  -3  -5   12.51    2.87
   7  -3  -5    8.51    2.07
   7  -3  -4  120.07    4.68
   7  -3  -4  114.52    4.23
   7  -3  -4  118.64    5.32
   7  -3  -4  122.40    5.75
  -7   3   4  112.36    3.95
  -7   3   4  115.06    4.49
   7  -3  -3   67.76    3.81
   7  -3  -3   72.10    3.11
   7  -3  -3   76.07    4.50
   7  -3  -3   73.65    4.61
  -7   3   3   65.18    2.91
  -7   3   3   65.05    3.66
   7  -3  -2   -0.57    1.51
   7  -3  -2   -0.27    1.74
   7  -3  -2    0.41    1.70
   7  -3  -2    0.86    1.68
  -7   3   2    0.06    1.95
  -7   3   2    1.92    1.79
   7  -3  -1   11.53    2.62
   7  -3  -1   10.51    1.76
   7  -3  -1   12.77    4.59
   7  -3  -1   12.51    3.01
  -7   3   1   11.54    1.61
  -7   3   1    9.60    3.99
   7  -3   0    0.27    1.92
   7  -3   0   -0.69    2.14
   7  -3   0    0.99    1.91
   7  -3   0    1.97    2.03
  -7   3   0   -0.31    1.84
  -7   3   0   -1.69    1.92
   7  -3   1  139.49    5.94
   7  -3   1  138.83    8.71
   7  -3   1  138.54    5.56
   7  -3   1  140.71    6.03
  -7   3  -1  128.66    3.98
  -7   3  -1  136.11    8.07
   7  -3   2   53.20    6.48
   7  -3   2   44.15    2.60
   7  -3   2   52.86    4.32
   7  -3   2   46.28    4.15
  -7   3  -2   44.91    3.54
  -7   3  -2   47.63    4.23
   7  -3   3   15.28    3.55
   7  -3   3   17.15    3.02
   7  -3   3   18.27    5.29
  -7   3  -3   12.56    1.80
  -7   3  -3   14.76    3.18
  -7   3  -3   14.61    3.29
   7  -3   4   56.70    4.82
   7  -3   4   52.94    4.51
   7  -3   4   53.01    2.81
  -7   3  -4   47.94    2.65
  -7   3  -4   67.12    6.69
  -7   3  -4   57.22    4.56
   7  -3   5  105.41    8.74
   7  -3   5   99.81    5.09
   7  -3   5  103.13    5.61
  -7   3  -5   99.63    5.00
  -7   3  -5  106.27    5.52
   7  -3   6    2.82    2.87
   7  -3   6    2.15    1.60
   7  -3   6    4.84    2.66
  -7   3  -6    0.50    1.27
  -7   3  -6    0.38    3.47
  -7   3  -6    0.43    3.68
   7  -3   7   -0.99    2.25
   7  -3   7    0.54    1.29
   7  -3   7   -1.38    2.04
  -7   3  -7    0.56    1.38
  -7   3  -7    0.78    2.21
  -7   3  -7    2.22    3.90
   7  -3   8    9.68    3.61
   7  -3   8    9.88    3.43
   7  -3   8   10.61    3.21
  -7   3  -8    7.93    2.09
  -7   3  -8   11.99    3.08
  -7   3  -8    6.39    5.36
   7  -3   9   13.47    3.93
   7  -3   9   14.63    3.96
   7  -3   9   14.90    5.59
  -7   3  -9   18.58    2.50
  -7   3  -9   11.54    5.61
  -7   3  -9   13.70    6.11
   7  -3  10    8.64    5.35
   7  -3  10   10.40    3.84
   7  -3  10    6.55    3.86
  -7   3 -10    6.03    3.79
  -7   3 -10    7.72    3.12
  -7   3 -10    5.81    3.43
   7  -3  11    5.55    3.89
   7  -3  11    6.75    5.15
   7  -3  11    4.26    5.96
  -7   3 -11    5.91    2.22
  -7   3 -11    0.04    2.99
  -7   3 -11    3.67    3.30
   7  -2 -11    8.07    2.75
   7  -2 -11    6.13    2.59
   7  -2 -11    4.98    2.80
   7  -2 -11   12.83    3.90
   7  -2 -10   10.29    4.64
   7  -2 -10   17.21    2.99
   7  -2 -10   16.34    4.26
   7  -2 -10   20.06    3.01
   7  -2  -9    5.32    3.45
   7  -2  -9    6.59    3.53
   7  -2  -9    4.38    2.26
   7  -2  -9   -0.07    3.72
   7  -2  -8    6.13    2.27
   7  -2  -8    7.27    1.79
   7  -2  -8    6.58    1.72
   7  -2  -8    6.34    2.41
   7  -2  -8   10.85    2.28
   7  -2  -8    8.70    2.65
   7  -2  -7  236.52    8.15
   7  -2  -7  233.70    7.73
   7  -2  -7  240.89    7.68
   7  -2  -7  238.44    6.87
   7  -2  -7  244.21    7.50
   7  -2  -7  228.62    6.72
   7  -2  -6    9.17    1.99
   7  -2  -6    7.50    2.57
   7  -2  -6    5.98    1.80
   7  -2  -6    9.11    1.93
   7  -2  -6    4.31    3.76
   7  -2  -6   11.16    1.84
   7  -2  -5   60.42    3.29
   7  -2  -5   61.78    3.07
   7  -2  -5   63.27    2.88
   7  -2  -5   63.68    3.78
   7  -2  -5   61.20    2.84
   7  -2  -5   55.52    5.95
   7  -2  -4   78.87    5.60
   7  -2  -4   81.85    3.55
   7  -2  -4   75.82    3.06
   7  -2  -4   80.32    4.23
   7  -2  -4   78.01    4.31
   7  -2  -4   75.61    2.97
   7  -2  -3  134.83    6.88
   7  -2  -3  133.76    5.31
   7  -2  -3  138.22    4.69
   7  -2  -3  135.78    5.10
   7  -2  -3  142.54    5.28
   7  -2  -3  125.29    3.75
   7  -2  -2   38.28    4.85
   7  -2  -2   35.01    2.96
   7  -2  -2   38.01    4.97
   7  -2  -2   39.64    3.47
  -7   2   2   31.27    2.78
  -7   2   2   34.73    2.93
   7  -2  -1  100.35    4.64
   7  -2  -1   98.25    4.86
   7  -2  -1   96.70    3.05
   7  -2  -1  106.25    4.89
  -7   2   1   88.75    2.79
  -7   2   1   96.73    4.35
   7  -2   0   78.54    4.44
   7  -2   0   79.72    4.51
   7  -2   0   75.31    2.65
   7  -2   0   79.16    4.39
  -7   2   0   68.84    3.34
  -7   2   0   74.21    6.15
   7  -2   1  172.71    6.42
   7  -2   1  169.21    4.19
   7  -2   1  172.41    8.53
  -7   2  -1  159.18    3.89
  -7   2  -1  167.66    5.99
  -7   2  -1  168.57    6.19
   7  -2   2  123.45    5.59
   7  -2   2  113.84    4.39
   7  -2   2  116.17    5.35
  -7   2  -2  106.52    3.07
  -7   2  -2  121.11    7.61
  -7   2  -2  122.47    7.64
   7  -2   3  483.37   12.79
   7  -2   3  470.54    9.51
   7  -2   3  508.99   12.96
  -7   2  -3  455.00    9.28
  -7   2  -3  483.13   12.52
  -7   2  -3  485.09   12.60
   7  -2   4   25.76    3.69
   7  -2   4   29.80    1.80
   7  -2   4   26.57    3.48
  -7   2  -4   29.04    2.67
  -7   2  -4   28.67    3.47
  -7   2  -4   28.33    3.60
   7  -2   5   56.92    6.79
   7  -2   5   58.00    3.52
   7  -2   5   62.77    4.32
  -7   2  -5   55.52    3.24
  -7   2  -5   59.47    6.14
  -7   2  -5   65.37    6.58
   7  -2   6  141.71    6.26
   7  -2   6  123.73    3.87
   7  -2   6  136.45    8.78
  -7   2  -6  116.80    3.75
  -7   2  -6  133.86    6.01
  -7   2  -6  134.13    8.85
   7  -2   7  278.87   12.48
   7  -2   7  270.83    7.95
   7  -2   7  282.00   11.99
  -7   2  -7  260.52    7.81
  -7   2  -7  280.89   11.63
  -7   2  -7  288.41   12.18
   7  -2   8   36.64    4.25
   7  -2   8   35.19    3.60
   7  -2   8   37.57    4.04
  -7   2  -8   36.87    3.62
  -7   2  -8   37.09    4.02
  -7   2  -8   31.62    6.42
   7  -2   9   20.49    3.29
   7  -2   9   14.97    3.64
   7  -2   9   16.51    3.53
  -7   2  -9   11.27    3.11
  -7   2  -9   12.47    3.28
  -7   2  -9   18.83    5.33
   7  -2  10    1.19    2.17
   7  -2  10    0.57    2.23
   7  -2  10   -0.98    2.13
  -7   2 -10    0.50    2.40
  -7   2 -10    0.26    2.44
  -7   2 -10    3.81    3.82
   7  -2  11    8.12    3.64
   7  -2  11   11.24    3.44
   7  -2  11    9.30    3.48
  -7   2 -11    8.91    2.27
  -7   2 -11    9.56    5.31
  -7   2 -11    8.19    3.23
   7  -2  12    1.60    3.07
   7  -2  12   -0.05    2.85
   7  -2  12    2.36    2.72
  -7   2 -12    2.31    3.15
  -7   2 -12    0.13    4.47
  -7   2 -12    2.35    2.66
   7  -1 -11   37.26    3.86
   7  -1 -11   37.85    3.14
   7  -1 -11   44.08    4.67
   7  -1 -11   47.96    5.68
   7  -1 -10   40.99    4.88
   7  -1 -10   44.96    3.57
   7  -1 -10   42.67    4.69
   7  -1 -10   48.02    3.67
   7  -1  -9   36.28    4.84
   7  -1  -9   42.04    4.52
   7  -1  -9   38.00    3.27
   7  -1  -9   34.30    3.03
   7  -1  -8    1.14    1.38
   7  -1  -8    0.72    1.60
   7  -1  -8    0.80    1.34
   7  -1  -8    1.10    1.62
   7  -1  -8    4.14    2.60
   7  -1  -8    0.50    2.81
   7  -1  -7   81.43    3.41
   7  -1  -7   75.86    3.37
   7  -1  -7   76.09    4.60
   7  -1  -7   79.11    3.87
   7  -1  -7   84.82    3.78
   7  -1  -7   80.37    3.50
   7  -1  -6    1.52    2.34
   7  -1  -6    1.73    2.06
   7  -1  -6   -0.46    2.69
   7  -1  -6    0.94    1.31
   7  -1  -6    1.53    2.51
   7  -1  -6    0.98    1.27
   7  -1  -5   86.44    4.26
   7  -1  -5   87.34    3.47
   7  -1  -5   89.64    3.87
   7  -1  -5   87.71    3.02
   7  -1  -5   82.28    3.98
   7  -1  -5   83.49    3.64
   7  -1  -4   12.76    2.00
   7  -1  -4   13.62    2.18
   7  -1  -4   15.23    2.27
   7  -1  -4   11.44    2.33
   7  -1  -4   10.38    1.49
   7  -1  -4   11.53    2.20
   7  -1  -3   11.43    3.73
   7  -1  -3    9.62    2.01
   7  -1  -3    9.19    2.22
   7  -1  -3    9.04    1.30
   7  -1  -3    8.31    1.32
   7  -1  -3   10.18    2.21
   7  -1  -2  196.01    8.46
   7  -1  -2  194.31    6.00
   7  -1  -2  196.21    6.16
   7  -1  -2  188.39    4.29
   7  -1  -2  185.55    5.19
   7  -1  -2  191.77    6.22
   7  -1  -1  857.85   19.10
   7  -1  -1  874.63   19.20
   7  -1  -1  861.92   19.09
   7  -1  -1  853.72   16.71
   7  -1  -1  839.90   16.51
   7  -1  -1  861.97   21.73
   7  -1   0   60.34    3.84
   7  -1   0   55.23    1.83
   7  -1   0   53.60    3.48
  -7   1   0   58.30    3.57
  -7   1   0   52.14    2.36
  -7   1   0   59.31    3.77
   7  -1   1    6.30    2.48
   7  -1   1    6.60    1.42
   7  -1   1    9.00    3.58
  -7   1  -1    6.41    0.82
  -7   1  -1    6.42    2.22
  -7   1  -1    5.23    3.75
   7  -1   2   45.60    3.70
   7  -1   2   48.50    2.15
   7  -1   2   48.53    3.62
  -7   1  -2   44.47    1.96
  -7   1  -2   47.30    3.24
  -7   1  -2   53.26    3.63
   7  -1   3    8.66    2.65
   7  -1   3    7.44    0.88
   7  -1   3   10.72    2.46
  -7   1  -3   10.46    1.34
  -7   1  -3    6.61    3.94
  -7   1  -3    9.64    4.27
   7  -1   4  535.84   13.45
   7  -1   4  513.22    9.36
   7  -1   4  550.23   13.28
  -7   1  -4  498.34    8.99
  -7   1  -4  518.34   12.56
  -7   1  -4  527.18   13.03
   7  -1   5   53.83    6.23
   7  -1   5   44.24    1.74
   7  -1   5   55.58    6.11
  -7   1  -5   44.02    2.38
  -7   1  -5   45.09    3.99
  -7   1  -5   45.43    4.02
   7  -1   6  152.22    6.08
   7  -1   6  139.53    3.42
   7  -1   6  145.83    6.03
  -7   1  -6  142.85    4.24
  -7   1  -6  158.34    8.11
  -7   1  -6  152.85    6.04
   7  -1   7    1.92    2.41
   7  -1   7    2.84    1.67
   7  -1   7    2.67    2.38
  -7   1  -7    1.36    1.62
  -7   1  -7    3.42    2.25
  -7   1  -7    3.71    2.37
   7  -1   8   13.78    2.38
   7  -1   8   17.77    3.11
   7  -1   8   13.40    3.19
  -7   1  -8   16.23    1.60
  -7   1  -8   14.48    3.11
  -7   1  -8   15.05    4.96
   7  -1   9    0.41    1.76
   7  -1   9    0.81    2.11
   7  -1   9    0.71    2.15
  -7   1  -9    0.40    1.78
  -7   1  -9    1.06    3.46
  -7   1  -9    1.14    2.14
   7  -1  10   -0.87    1.88
   7  -1  10    0.46    2.19
   7  -1  10   -0.11    3.37
  -7   1 -10   -0.19    1.89
  -7   1 -10   -1.25    2.03
  -7   1 -10    0.20    2.06
   7  -1  11   26.02    5.84
   7  -1  11   17.25    5.95
   7  -1  11   21.54    2.34
  -7   1 -11   20.58    2.28
  -7   1 -11   22.94    3.64
  -7   1 -11   23.65    3.55
   7  -1  12   20.32    3.51
   7  -1  12   14.75    2.40
   7  -1  12   17.52    5.98
  -7   1 -12   15.19    2.45
  -7   1 -12   13.56    3.50
  -7   1 -12   19.68    3.38
   7  -1  13    3.89    3.06
   7  -1  13    6.91    3.27
   7  -1  13    3.36    3.40
  -7   1 -13   10.53    2.38
  -7   1 -13    7.89    3.30
  -7   1 -13    2.94    4.93
   7   0 -11    7.26    4.27
   7   0 -11    7.12    2.58
   7   0 -10    8.88    2.54
   7   0 -10   12.00    2.52
   7   0  -9    3.95    1.68
   7   0  -9   -0.03    3.18
   7   0  -9    3.34    1.54
   7   0  -9    4.70    1.61
   7   0  -9    6.53    3.15
   7   0  -9    4.19    1.60
   7   0  -8   90.39    3.93
   7   0  -8   89.19    3.57
   7   0  -8   93.28    4.95
   7   0  -8   93.67    3.87
   7   0  -8   86.65    3.60
   7   0  -8   93.45    4.95
   7   0  -7   83.97    4.77
   7   0  -7   82.39    4.74
   7   0  -7   88.68    4.77
   7   0  -7   78.99    4.79
   7   0  -7   85.32    4.63
   7   0  -7   80.33    3.45
   7   0  -6    0.40    1.10
   7   0  -6    0.68    1.29
   7   0  -6    0.18    1.21
   7   0  -6    0.70    1.08
   7   0  -6   -0.09    1.31
   7   0  -6   -0.02    1.25
   7   0  -5   21.65    2.59
   7   0  -5   19.80    2.06
   7   0  -5   16.46    1.61
   7   0  -5   18.35    2.16
   7   0  -5   17.34    2.18
   7   0  -5   19.52    2.26
   7   0  -4  268.55    5.84
   7   0  -4  281.69    7.14
   7   0  -4  287.65    7.08
   7   0  -4  281.61    8.89
   7   0  -4  289.44    7.40
   7   0  -4  280.16    7.47
   7   0  -3  521.36   10.91
   7   0  -3  555.09   12.67
   7   0  -3  543.50   12.49
   7   0  -3  545.60   10.24
   7   0  -3  540.15   12.43
   7   0  -3  556.65   12.95
   7   0  -2  319.47    5.97
   7   0  -2  330.22    8.38
   7   0  -2  332.43    8.42
   7   0  -2  323.79    8.09
   7   0  -2  328.76    6.81
   7   0  -2  341.08    8.87
   7   0  -1   68.16    2.26
   7   0  -1   71.71    3.48
   7   0  -1   69.53    2.24
   7   0  -1   68.01    3.59
   7   0  -1   71.80    3.76
   7   0   0    3.01    1.76
   7   0   0    3.06    1.84
   7   0   0    4.06    0.81
   7   0   0    1.45    3.17
   7   0   0    2.29    0.80
  -7   0   0    3.99    1.72
   7   0   1   17.07    0.87
   7   0   1   21.40    3.67
   7   0   1   18.35    3.91
   7   0   1   17.33    0.86
   7   0   1   21.42    2.68
  -7   0  -1   18.16    2.27
   7   0   2   42.57    1.05
   7   0   2   49.29    3.07
   7   0   2   45.04    3.25
   7   0   2   41.78    1.02
   7   0   2   49.14    3.39
  -7   0  -2   48.75    3.04
   7   0   3    8.69    0.39
   7   0   3    9.27    2.37
   7   0   3    7.94    4.13
  -7   0  -3   10.52    2.30
  -7   0  -3    8.75    2.59
   7   0   4  215.45    3.65
   7   0   4  231.92    6.94
   7   0   4  236.13    7.31
  -7   0  -4  224.98    8.89
  -7   0  -4  234.02    7.31
   7   0   5   74.46    6.36
   7   0   5   72.29    1.88
   7   0   5   69.58    6.19
  -7   0  -5   77.14    4.12
  -7   0  -5   69.59    1.46
  -7   0  -5   75.85    6.22
   7   0   6    8.18    2.56
   7   0   6    7.42    1.12
   7   0   6    9.95    2.48
  -7   0  -6    6.75    2.34
  -7   0  -6    7.31    1.06
  -7   0  -6   10.03    2.50
   7   0   7    3.26    2.09
   7   0   7    3.17    2.07
   7   0   7    0.78    0.68
  -7   0  -7    1.51    1.11
  -7   0  -7    0.83    2.08
  -7   0  -7    4.88    2.10
   7   0   8   28.61    5.17
   7   0   8   25.17    3.45
   7   0   8   21.88    2.07
  -7   0  -8   21.38    2.04
  -7   0  -8   21.53    3.15
  -7   0  -8   27.97    3.26
   7   0   9   38.19    3.73
   7   0   9   42.59    4.02
   7   0   9   38.39    1.86
  -7   0  -9   36.77    1.83
  -7   0  -9   38.03    3.70
  -7   0  -9   39.03    3.63
   7   0  10   13.67    5.27
   7   0  10   12.26    3.00
   7   0  10   11.44    1.56
  -7   0 -10    9.17    2.41
  -7   0 -10   15.10    3.07
  -7   0 -10   14.00    2.97
   7   0  11    3.58    2.52
   7   0  11    3.76    2.32
   7   0  11    4.19    2.91
  -7   0 -11    3.02    1.49
  -7   0 -11    4.07    2.66
  -7   0 -11    2.63    2.50
   7   0  12   67.27    7.03
   7   0  12   67.77    3.12
   7   0  12   73.04    5.43
  -7   0 -12   61.53    3.09
  -7   0 -12   68.23    7.40
  -7   0 -12   68.08    6.71
   7   0  13   40.05    6.31
   7   0  13   33.18    4.65
   7   0  13   35.41    4.20
  -7   0 -13   37.86    4.23
  -7   0 -13   35.39    6.92
  -7   0 -13   38.17    3.80
   7   0  14   78.68    5.07
   7   0  14   79.74    6.05
   7   0  14   81.53    4.09
  -7   0 -14   73.40    4.05
  -7   0 -14   88.44    8.70
  -7   0 -14   77.89    4.78
   7   1 -11    6.07    3.82
   7   1 -11    4.23    3.76
   7   1 -10   25.23    3.15
   7   1 -10   30.54    4.44
   7   1  -9    0.02    1.72
   7   1  -9    2.28    2.30
   7   1  -9    1.71    1.60
   7   1  -9    1.10    2.34
   7   1  -8    0.05    2.60
   7   1  -8    2.16    1.51
   7   1  -8    1.28    1.14
   7   1  -8    2.73    1.51
   7   1  -8    1.13    1.56
   7   1  -8    2.22    1.96
   7   1  -7   13.15    1.93
   7   1  -7   14.51    1.62
   7   1  -7   13.12    2.75
   7   1  -7   16.36    2.91
   7   1  -7   19.06    3.32
   7   1  -7   14.72    2.19
   7   1  -6   33.30    2.14
   7   1  -6   36.83    2.60
   7   1  -6   33.20    2.07
   7   1  -6   34.44    2.16
   7   1  -6   31.42    3.26
   7   1  -6   31.27    4.12
   7   1  -5    6.93    2.17
   7   1  -5   11.46    1.51
   7   1  -5   10.71    1.62
   7   1  -5   12.60    1.45
   7   1  -5   10.66    3.55
   7   1  -5   10.03    2.81
   7   1  -4  476.12    9.24
   7   1  -4  491.85   11.36
   7   1  -4  482.50   11.85
   7   1  -4  481.94   12.01
   7   1  -4  477.11    9.25
   7   1  -4  487.21   13.72
   7   1  -3  245.49    4.85
   7   1  -3  257.30    6.95
   7   1  -3  255.31    6.31
   7   1  -3  252.94    5.65
   7   1  -3  265.13    9.27
   7   1  -3  253.85    6.32
   7   1  -2   11.08    1.26
   7   1  -2   13.43    1.78
   7   1  -2    9.31    2.81
   7   1  -2   10.30    2.15
   7   1  -2   12.34    0.83
   7   1  -2   13.23    2.34
   7   1  -1   33.42    1.17
   7   1  -1   34.15    2.34
   7   1  -1   30.75    2.79
   7   1  -1   32.36    1.15
   7   1  -1   32.87    2.99
  -7  -1   1   34.02    3.39
   7   1   0   83.04    4.77
   7   1   0   79.45    3.76
   7   1   0   85.67    4.00
  -7  -1   0   76.70    3.18
   7   1   1   37.58    2.63
   7   1   1   32.17    4.45
   7   1   1   37.47    4.86
  -7  -1  -1   29.77    2.40
   7   1   2  423.88    9.94
   7   1   2  429.00   10.35
   7   1   2  430.51   10.55
  -7  -1  -2  410.87    9.51
   7   1   3  110.71    6.17
   7   1   3  111.32    4.61
   7   1   3  111.25    7.06
  -7  -1  -3  104.59    4.20
   7   1   4  230.71    6.76
   7   1   4  231.84    6.89
   7   1   4  241.56    7.10
  -7  -1  -4  224.55    6.51
   7   1   5  206.38    6.27
   7   1   5  206.90    8.28
   7   1   5  198.39    8.60
  -7  -1  -5  196.90    7.82
   7   1   6   50.98    5.33
   7   1   6   48.38    3.36
   7   1   6   44.54    3.58
  -7  -1  -6   47.07    3.29
   7   1   7    3.15    2.01
   7   1   7   -0.26    1.79
   7   1   7    0.53    1.94
  -7  -1  -7    1.89    1.69
  -7  -1  -7   -0.06    0.34
  -7  -1  -7    0.51    0.27
   7   1   8    7.15    4.03
   7   1   8    7.51    2.76
   7   1   8    5.33    2.35
  -7  -1  -8    3.53    1.05
  -7  -1  -8    5.95    2.49
  -7  -1  -8    6.57    1.00
   7   1   9  165.81    6.22
   7   1   9  171.85    5.96
   7   1   9  173.57    6.70
  -7  -1  -9  156.52    3.40
  -7  -1  -9  157.31    6.03
  -7  -1  -9  153.20    3.89
   7   1  10   91.64    4.70
   7   1  10   85.28    4.50
   7   1  10   91.23    7.83
  -7  -1 -10   83.04    3.46
  -7  -1 -10   92.12    7.28
  -7  -1 -10   86.67    3.29
   7   1  11   -0.49    1.72
   7   1  11   -0.82    1.56
   7   1  11    2.45    2.04
  -7  -1 -11    0.01    1.46
  -7  -1 -11    0.68    2.00
  -7  -1 -11    0.07    1.37
   7   1  12   68.73    4.36
   7   1  12   64.81    4.19
   7   1  12   80.36    5.37
  -7  -1 -12   65.89    4.03
  -7  -1 -12   67.28    5.01
  -7  -1 -12   62.70    3.80
   7   1  13    5.19    2.57
   7   1  13    6.62    2.45
   7   1  13    5.39    3.40
  -7  -1 -13    3.76    1.74
  -7  -1 -13    6.32    3.11
  -7  -1 -13    5.77    2.48
   7   1  14  104.74    5.57
   7   1  14  107.51    7.15
   7   1  14  113.84    9.91
  -7  -1 -14  101.64    4.24
  -7  -1 -14  113.55    6.44
  -7  -1 -14   98.20    4.01
   7   1  15   -0.62    2.61
   7   1  15   14.50    2.84
   7   1  15   11.16    3.88
  -7  -1 -15   10.98    3.82
  -7  -1 -15   11.35    3.86
  -7  -1 -15   12.40    3.52
   7   2 -10   12.94    2.67
   7   2  -9   23.24    2.56
   7   2  -9   24.43    2.70
   7   2  -9   22.06    2.53
   7   2  -9   14.89    3.76
   7   2  -8   13.27    2.20
   7   2  -8   15.43    3.64
   7   2  -8   14.81    2.12
   7   2  -8   16.96    2.24
   7   2  -7   14.63    2.01
   7   2  -7   16.28    2.35
   7   2  -7   14.80    3.02
   7   2  -7   16.08    2.27
   7   2  -6  461.95   10.02
   7   2  -6  488.17   11.64
   7   2  -6  459.08    9.28
   7   2  -6  469.37   10.50
   7   2  -6  483.55   11.70
   7   2  -6  491.14   13.61
   7   2  -5  196.98    4.73
   7   2  -5  193.21    4.76
   7   2  -5  194.17    4.64
   7   2  -5  206.83    6.28
   7   2  -5  199.36    4.71
   7   2  -5  198.04    7.92
   7   2  -4    1.53    1.72
   7   2  -4    1.13    1.45
   7   2  -4    1.79    1.72
   7   2  -4    2.20    1.13
   7   2  -4    1.28    0.87
   7   2  -4    2.85    2.82
   7   2  -3    0.10    1.41
   7   2  -3    0.13    0.93
   7   2  -3   -0.27    1.37
   7   2  -3    0.18    0.87
   7   2  -3   -0.00    2.24
   7   2  -3    0.41    1.47
   7   2  -2  170.15    4.41
   7   2  -2  167.80    3.47
   7   2  -2  172.38    5.46
   7   2  -2  168.29    4.39
   7   2  -2  163.88    2.95
   7   2  -2  170.83    7.46
   7   2  -1  102.85    4.57
   7   2  -1  109.57    4.26
   7   2  -1   96.35    1.62
   7   2  -1   96.56    1.61
   7   2  -1  100.24    4.28
  -7  -2   1   99.07    3.27
   7   2   0  191.77    5.19
   7   2   0  198.13    5.96
   7   2   0  189.87    6.08
  -7  -2   0  186.29    6.13
   7   2   1  109.55    3.77
   7   2   1  110.79    6.33
   7   2   1  103.28    6.49
  -7  -2  -1  107.52    3.64
   7   2   2   -0.23    1.26
   7   2   2   -0.95    1.56
   7   2   2    0.57    1.62
  -7  -2  -2    4.22    1.62
   7   2   3  739.42   15.83
   7   2   3  748.93   18.58
   7   2   3  737.68   18.90
  -7  -2  -3  715.26   15.16
   7   2   4  402.30    9.64
   7   2   4  407.57   10.00
   7   2   4  400.16   10.08
  -7  -2  -4  386.54    9.23
   7   2   5   14.26    3.80
   7   2   5   14.08    3.89
   7   2   5   10.71    4.14
  -7  -2  -5   14.88    2.24
   7   2   6   47.19    3.45
   7   2   6   48.91    3.29
   7   2   6   49.37    3.50
  -7  -2  -6   45.73    4.71
   7   2   7  104.55    4.47
   7   2   7   97.46    4.61
   7   2   7  103.95    4.71
  -7  -2  -7  109.03    4.55
   7   2   8   59.00    3.62
   7   2   8   58.70    3.80
   7   2   8   59.93    4.16
  -7  -2  -8   49.06    3.59
  -7  -2  -8   48.97    0.98
  -7  -2  -8   48.32    0.92
   7   2   9   14.01    2.73
   7   2   9   14.16    3.34
   7   2   9   13.71    4.48
  -7  -2  -9   14.39    1.21
  -7  -2  -9   15.14    3.05
  -7  -2  -9   14.72    0.77
   7   2  10    5.16    2.32
   7   2  10    4.37    3.02
   7   2  10    4.56    2.41
  -7  -2 -10    3.48    0.86
  -7  -2 -10    7.78    2.60
  -7  -2 -10    3.75    1.26
   7   2  11  561.07   14.37
   7   2  11  550.48   13.73
   7   2  11  572.55   15.70
  -7  -2 -11  530.18   10.37
  -7  -2 -11  548.19   14.65
  -7  -2 -11  529.80   10.20
   7   2  12   49.28    3.91
   7   2  12   50.80    3.66
   7   2  12   57.49    5.10
  -7  -2 -12   49.42    2.30
  -7  -2 -12   46.77    4.64
  -7  -2 -12   49.96    3.10
   7   2  13    2.46    2.13
   7   2  13    0.95    1.90
   7   2  13    0.74    4.64
  -7  -2 -13   -0.21    1.77
  -7  -2 -13    0.94    2.23
  -7  -2 -13    0.49    1.66
   7   2  14   24.16    3.30
   7   2  14   26.34    3.06
   7   2  14   33.37    4.54
  -7  -2 -14   23.55    3.50
  -7  -2 -14   26.55    4.11
  -7  -2 -14   24.95    3.32
   7   2  15    2.34    2.08
   7   2  15    1.14    3.23
   7   2  15   -0.03    3.21
  -7  -2 -15   -0.42    2.49
   7   3 -10   42.15    3.57
   7   3 -10   42.62    3.74
   7   3  -9   47.75    5.06
   7   3  -9   39.79    3.42
   7   3  -9   42.76    4.73
   7   3  -8   71.01    3.97
   7   3  -8   59.57    3.55
   7   3  -8   61.07    4.80
   7   3  -8   66.06    3.66
   7   3  -7    0.30    1.52
   7   3  -7   -0.42    1.97
   7   3  -7    0.41    1.78
   7   3  -7    0.01    1.43
   7   3  -6    8.92    2.26
   7   3  -6    7.61    2.59
   7   3  -6    1.37    2.46
   7   3  -6    6.68    2.19
   7   3  -5  122.81    4.88
   7   3  -5  119.37    3.58
   7   3  -5  115.54    3.45
   7   3  -5  119.95    4.80
   7   3  -4   89.33    3.33
   7   3  -4   91.11    2.72
   7   3  -4   91.06    4.28
   7   3  -4   90.51    3.48
   7   3  -4   94.08    6.26
   7   3  -4   90.00    3.48
   7   3  -3   43.89    1.93
   7   3  -3   50.45    3.48
   7   3  -3   44.54    1.69
   7   3  -3   45.62    1.62
   7   3  -3   43.49    3.31
   7   3  -3   46.81    1.99
   7   3  -2   11.78    1.40
   7   3  -2   14.86    2.42
   7   3  -2   11.43    0.80
   7   3  -2   10.78    1.17
   7   3  -2   10.75    2.48
   7   3  -1   47.34    2.25
   7   3  -1   54.28    3.47
   7   3  -1   44.54    1.11
   7   3  -1   45.84    1.09
   7   3  -1   48.91    3.46
  -7  -3   1   49.19    3.11
   7   3   0  187.79    6.04
   7   3   0  190.46    6.03
   7   3   0  185.57    6.15
  -7  -3   0  181.67    5.70
   7   3   1   16.78    1.96
   7   3   1   19.23    4.30
   7   3   1   23.12    2.77
  -7  -3  -1   20.81    1.82
   7   3   2   16.20    2.07
   7   3   2   21.72    2.68
   7   3   2   17.58    2.71
  -7  -3  -2   19.03    1.91
   7   3   3  151.96    6.26
   7   3   3  155.48    7.30
   7   3   3  150.82    7.48
  -7  -3  -3  140.29    4.22
   7   3   4    0.76    1.72
   7   3   4    1.91    1.84
   7   3   4    0.59    1.55
  -7  -3  -4    2.07    1.50
   7   3   5   17.70    4.17
   7   3   5   20.55    2.74
   7   3   5   20.68    3.86
  -7  -3  -5   20.87    2.34
   7   3   6   33.25    2.98
   7   3   6   28.81    3.05
   7   3   6   30.23    3.03
  -7  -3  -6   29.64    2.77
   7   3   7    3.96    2.30
   7   3   7    5.70    2.32
   7   3   7    5.92    2.17
  -7  -3  -7    6.03    2.18
   7   3   8   20.81    2.79
   7   3   8   21.49    3.15
   7   3   8   22.89    2.93
  -7  -3  -8   19.77    2.84
   7   3   9   89.00    4.67
   7   3   9   90.19    8.07
   7   3   9   91.18    7.02
  -7  -3  -9   86.72    5.27
  -7  -3  -9   82.31    1.64
   7   3  10  914.55   23.12
   7   3  10  908.64   22.25
   7   3  10  885.67   23.07
  -7  -3 -10  809.11   14.58
  -7  -3 -10  854.15   20.19
  -7  -3 -10  821.41   14.76
   7   3  11  127.31    9.49
   7   3  11  123.73    7.21
   7   3  11  119.50    7.47
  -7  -3 -11  118.38    5.79
   7   3  12   82.57    4.25
   7   3  12   86.32    5.77
   7   3  12   87.80    6.58
  -7  -3 -12   77.97    7.70
   7   3  13   12.06    4.56
   7   3  13   16.82    2.64
   7   3  13   16.71    4.10
  -7  -3 -13   14.54    5.73
   7   3  14   59.97    6.00
   7   3  14   56.62    3.78
   7   3  14   63.72    5.64
  -7  -3 -14   57.08    5.11
   7   3  15   16.38    2.80
   7   3  15   17.12    4.30
   7   3  15    0.13    4.13
  -7  -3 -15   12.41    3.83
   7   4  -9    1.22    1.86
   7   4  -9   -1.54    1.72
   7   4  -8   53.04    5.81
   7   4  -8   46.55    5.00
   7   4  -8   45.53    3.58
   7   4  -7   98.32    7.10
   7   4  -7   94.29    5.68
   7   4  -7   95.47    3.83
   7   4  -7   86.68    6.38
   7   4  -6    6.81    3.78
   7   4  -6    5.55    1.62
   7   4  -6    4.41    2.45
   7   4  -6   -0.04    2.18
   7   4  -5   13.88    4.17
   7   4  -5    9.90    2.63
   7   4  -5    4.21    2.47
   7   4  -5   15.66    2.55
   7   4  -4  151.60    7.91
   7   4  -4  138.23    4.98
   7   4  -4  141.67    4.74
   7   4  -4  143.34    5.60
   7   4  -3  189.47    8.65
   7   4  -3  170.97    3.62
   7   4  -3  180.71    4.09
   7   4  -3  174.69    3.73
   7   4  -3  183.87    4.01
   7   4  -3  182.22    6.36
   7   4  -2   48.56    3.70
   7   4  -2   41.50    1.74
   7   4  -2   45.15    1.53
   7   4  -2   45.18    2.05
   7   4  -2   42.70    3.66
   7   4  -2   44.25    2.62
   7   4  -1   60.43    3.94
   7   4  -1   51.78    1.29
   7   4  -1   52.58    1.25
   7   4  -1   54.55    5.83
   7   4  -1   54.48    2.21
  -7  -4   1   52.50    2.09
   7   4   0  449.90   11.68
   7   4   0  450.99   11.66
   7   4   0  448.33    9.32
  -7  -4   0  444.03    9.06
   7   4   1 1148.29   25.42
   7   4   1 1125.05   25.21
   7   4   1 1117.09   22.43
  -7  -4  -1 1089.30   21.54
   7   4   2  527.29   12.84
   7   4   2  515.90   15.16
   7   4   2  509.76   11.04
  -7  -4  -2  489.46   10.42
   7   4   3   58.21    5.62
   7   4   3   55.53    2.91
   7   4   3   54.41    3.77
  -7  -4  -3   53.55    3.92
   7   4   4   16.71    2.59
   7   4   4   12.65    2.13
   7   4   4   15.42    4.31
  -7  -4  -4   14.21    1.94
   7   4   5   70.48    4.00
   7   4   5   72.91    5.19
   7   4   5   71.80    4.03
  -7  -4  -5   66.84    3.28
   7   4   6  261.77    7.50
   7   4   6  259.60    7.39
   7   4   6  267.45    9.96
  -7  -4  -6  240.73    6.67
   7   4   7  178.36    6.07
   7   4   7  182.30    6.23
   7   4   7  180.14    6.13
  -7  -4  -7  168.50    7.45
   7   4   8  157.49    5.59
   7   4   8  152.50    8.19
   7   4   8  154.26    5.66
  -7  -4  -8  148.02    5.60
   7   4   9   29.73    3.11
   7   4   9   33.81    3.75
   7   4   9   31.46    3.26
  -7  -4  -9   33.12    3.49
   7   4  10  381.82    9.91
   7   4  10  380.66   13.97
   7   4  10  373.90   10.00
  -7  -4 -10  371.76   10.68
   7   4  11   -0.05    2.02
   7   4  11    2.70    2.83
   7   4  11    6.82    2.24
  -7  -4 -11    6.55    4.67
   7   4  12  177.25    6.08
   7   4  12  182.85    7.85
   7   4  12  172.16    6.20
  -7  -4 -12  171.02   10.22
   7   4  13  108.13    4.77
   7   4  13  103.09    6.63
   7   4  13  107.78    4.89
  -7  -4 -13  108.88    9.15
   7   4  14   -0.29    2.01
   7   4  14    2.56    1.86
   7   4  14    1.50    3.14
  -7  -4 -14    2.46    4.98
   7   4  15  107.28    4.97
   7   4  15  103.61    6.69
   7   4  15  110.35    7.51
  -7  -4 -15  114.32    7.14
   7   5  -8  137.99    6.50
   7   5  -8  125.17    7.55
  -7  -5   8    9.57    2.52
   7   5  -7   -0.39    2.34
   7   5  -7    3.55    1.80
   7   5  -7    0.11    2.10
  -7  -5   7    0.34    2.42
  -7  -5   7    4.74    1.86
   7   5  -6   63.64    4.57
   7   5  -6   63.96    3.42
  -7  -5   6   63.66    4.49
  -7  -5   6   64.25    3.27
   7   5  -5  130.49    6.04
   7   5  -5  122.44    4.16
  -7  -5   5  118.04    5.66
  -7  -5   5  125.76    5.48
   7   5  -4   42.90    3.96
   7   5  -4   38.44    2.36
  -7  -5   4   38.72    3.71
  -7  -5   4   37.33    3.17
   7   5  -3   20.15    3.20
   7   5  -3   17.03    1.58
  -7  -5   3   23.25    3.12
  -7  -5   3   19.05    2.38
   7   5  -2    4.94    3.73
   7   5  -2    1.89    1.45
  -7  -5   2   -0.35    2.27
  -7  -5   2    3.41    1.44
   7   5  -1  223.44    7.51
   7   5  -1  199.58    4.04
   7   5  -1  211.57    5.46
  -7  -5   1  216.98    7.44
  -7  -5   1  209.11    4.35
  -7  -5   1  202.85    4.59
   7   5   0  562.88   13.99
   7   5   0  525.37   11.62
   7   5   0  504.80    8.75
  -7  -5   0  533.80   11.30
  -7  -5   0  506.03    8.35
   7   5   1    9.46    4.03
   7   5   1    5.39    1.38
   7   5   1   -0.02    2.57
  -7  -5  -1    4.44    2.00
   7   5   2  218.87    5.54
   7   5   2  225.68    7.46
   7   5   2  228.50    7.36
  -7  -5  -2  212.90    5.27
   7   5   3   10.70    4.33
   7   5   3    9.10    1.84
   7   5   3   15.06    4.35
  -7  -5  -3   11.55    1.75
   7   5   4  221.93    7.08
   7   5   4  222.57    6.17
   7   5   4  216.03    7.17
  -7  -5  -4  210.43    7.09
   7   5   5  168.32    6.15
   7   5   5  163.76    5.43
   7   5   5  171.98    8.45
  -7  -5  -5  157.09    4.92
   7   5   6   37.84    5.28
   7   5   6   35.92    3.04
   7   5   6   32.06    3.39
  -7  -5  -6   31.54    2.81
   7   5   7  191.85    6.41
   7   5   7  196.62    6.58
   7   5   7  184.57    6.45
  -7  -5  -7  172.71    5.82
   7   5   8    0.15    1.74
   7   5   8    0.06    1.82
   7   5   8    1.19    2.78
  -7  -5  -8   -0.12    1.53
   7   5   9   56.35    6.52
   7   5   9   55.98    3.80
   7   5   9   56.01    3.81
  -7  -5  -9   51.26    3.77
   7   5  10   44.32    3.44
   7   5  10   44.09    4.23
   7   5  10   42.87    3.46
  -7  -5 -10   43.43    3.84
   7   5  11   54.02    4.67
   7   5  11   45.56    3.57
   7   5  11   47.49    3.73
  -7  -5 -11   46.38    4.14
   7   5  12    0.04    2.49
   7   5  12   16.35    3.49
   7   5  12   12.37    2.50
  -7  -5 -12   16.02    3.55
   7   5  13   39.25    3.45
   7   5  13   42.29    5.05
   7   5  13   45.70    3.59
  -7  -5 -13   44.01    4.61
   7   5  14   43.35    3.45
   7   5  14   33.82    8.16
   7   5  14   41.09    5.45
  -7  -5 -14   36.81    4.85
   7   5  15   25.04    5.06
   7   5  15   25.67    4.64
   7   5  15   20.60    5.21
  -7  -5 -15   19.87    4.62
   7   6  -6   -0.45    2.54
   7   6  -6    2.11    1.83
  -7  -6   6   -0.06    2.03
  -7  -6   6    0.45    2.26
   7   6  -5   77.27    7.89
   7   6  -5   71.87    3.65
  -7  -6   5   73.03    5.09
  -7  -6   5   75.43    3.54
   7   6  -4   21.23    5.78
   7   6  -4   19.01    3.26
  -7  -6   4   20.93    3.43
  -7  -6   4   18.33    2.08
   7   6  -3    3.98    2.74
  -7  -6   3   -0.03    2.20
  -7  -6   3    1.25    1.83
   7   6  -2    1.99    2.55
  -7  -6   2   -0.19    1.93
  -7  -6   2    0.27    0.89
   7   6  -1  142.34    9.14
  -7  -6   1  142.48    6.25
   7   6   0    1.56    0.96
   7   6   0    5.16    2.48
  -7  -6   0   -0.00    4.16
  -7  -6   0    4.70    1.55
   7   6   1   19.83    5.21
   7   6   1   16.81    1.62
  -7  -6  -1   17.69    1.47
  -7  -6  -1   -0.36    3.26
   7   6   2   31.14    3.79
   7   6   2   33.69    2.17
  -7  -6  -2   33.12    3.66
  -7  -6  -2   32.34    3.00
   7   6   3   72.32    6.84
   7   6   3   66.13    4.30
  -7  -6  -3   67.20    4.45
  -7  -6  -3   64.91    2.82
   7   6   4   55.23    4.06
   7   6   4   50.61    4.41
   7   6   4   50.36    4.22
  -7  -6  -4   48.54    2.72
   7   6   5   59.10    4.15
   7   6   5   55.15    3.28
   7   6   5   63.37    4.09
  -7  -6  -5   59.82    3.19
   7   6   6   16.84    3.08
   7   6   6   15.11    2.53
   7   6   6   16.10    3.13
  -7  -6  -6   14.38    3.58
   7   6   7   15.75    3.07
   7   6   7   14.41    2.69
   7   6   7    3.32    4.71
  -7  -6  -7   16.39    2.52
   7   6   8  104.55    5.15
   7   6   8  106.18    5.01
   7   6   8   97.96    5.05
  -7  -6  -8   98.97    6.51
   7   6   9   12.63    2.90
   7   6   9   18.47    4.96
   7   6   9   15.59    2.86
  -7  -6  -9   13.81    2.96
   7   6  10  135.03    5.61
   7   6  10  141.96    8.82
   7   6  10  125.88    5.54
  -7  -6 -10  126.40    5.96
   7   6  11   46.28    3.73
   7   6  11   50.89    4.62
   7   6  11   50.44    3.70
  -7  -6 -11   51.35    4.47
   7   6  12    4.77    2.30
   7   6  12    1.85    3.09
   7   6  12    3.29    2.36
  -7  -6 -12    3.05    2.91
   7   6  13  224.25    7.47
   7   6  13  217.93   13.03
   7   6  13  216.91    7.56
  -7  -6 -13  223.95    9.34
   7   6  14  224.27    7.54
   7   6  14  235.60   10.24
   7   6  14  226.15    7.55
  -7  -6 -14  242.04   10.09
   7   7  -4    0.12    2.25
  -7  -7   4   -0.02    3.12
   7   7  -3   42.09    7.42
  -7  -7   3   39.93    6.92
   7   7  -2   88.11    5.93
  -7  -7   2   83.94    8.14
   7   7  -1    0.77    2.65
  -7  -7   1   -0.23    3.47
   7   7   0   53.00    7.52
  -7  -7   0   50.38    4.49
   7   7   1   10.47    3.49
  -7  -7  -1    0.09    2.04
   7   7   2  211.21    6.55
   7   7   2  230.77   11.51
  -7  -7  -2  209.30    7.93
  -7  -7  -2  213.05    5.22
   7   7   3  174.44    5.04
   7   7   3  183.19    7.35
  -7  -7  -3  174.50    9.73
  -7  -7  -3  163.09    5.92
   7   7   4    3.91    1.72
   7   7   4    6.57    2.83
  -7  -7  -4    6.86    2.74
  -7  -7  -4    5.15    2.81
   7   7   5   51.09    3.22
   7   7   5   49.57    6.79
  -7  -7  -5   49.47    4.49
  -7  -7  -5   56.78    4.34
   7   7   6  393.67   11.35
   7   7   6  388.12   12.23
   7   7   6  367.60   10.89
  -7  -7  -6  347.41    9.08
   7   7   7  167.60    6.62
   7   7   7  162.08    6.08
   7   7   7  168.24    9.12
  -7  -7  -7  162.04    5.78
   7   7   8  104.95    5.28
   7   7   8  108.59    5.23
   7   7   8   99.99    5.26
  -7  -7  -8  103.31    4.84
   7   7   9  138.84    5.96
   7   7   9  142.30    6.07
   7   7   9  137.67    5.90
  -7  -7  -9  126.73    5.64
   7   7  10   39.07    3.75
   7   7  10   44.43    4.19
   7   7  10   33.65    3.69
  -7  -7 -10   47.19    6.37
   7   7  11  411.55   11.43
   7   7  11  404.49   16.16
   7   7  11  398.62   14.23
  -7  -7 -11  391.36   11.86
   7   7  12  137.40   10.78
   7   7  12  145.38    6.07
   7   7  12  151.37    8.66
  -7  -7 -12  151.71    7.23
   7   7  13    6.28    3.85
   7   7  13   10.56    2.65
   7   7  13    4.96    4.52
  -7  -7 -13    3.53    3.35
   7   8  -2   78.13    6.22
  -7  -8   2   69.26    5.63
   7   8  -1   13.75    4.07
  -7  -8   1   -0.02    2.17
   7   8   0   55.06    5.38
  -7  -8   0   52.30    5.01
   7   8   1  153.53    7.61
  -7  -8  -1  137.31    7.03
   7   8   2    2.02    3.10
  -7  -8  -2   -0.18    3.74
   7   8   3   64.26    5.45
  -7  -8  -3   66.95    5.31
   7   8   4  245.54   12.67
   7   8   4  225.19    6.32
  -7  -8  -4  244.56    8.97
  -7  -8  -4  227.79    6.38
   7   8   5   23.26    2.65
   7   8   5   25.63    4.14
  -7  -8  -5   21.46    2.43
  -7  -8  -5   25.54    6.25
   7   8   6    2.15    1.99
   7   8   6    3.64    2.84
  -7  -8  -6    4.06    3.14
  -7  -8  -6    2.44    2.79
   7   8   7   70.22    6.15
   7   8   7   61.29    5.03
   7   8   7   62.80    4.78
  -7  -8  -7   59.56    3.83
   7   8   8   54.76    4.07
   7   8   8   49.22    7.08
   7   8   8   47.57    4.42
  -7  -8  -8   46.37    5.87
   7   8   9   38.16    4.06
   7   8   9   41.63    6.47
   7   8   9   35.12    4.15
  -7  -8  -9   39.34    3.83
   7   8  10    8.24    3.22
   7   8  10    3.10    4.78
   7   8  10    7.27    2.97
  -7  -8 -10    4.27    2.82
   7   8  11   30.61    4.53
   7   8  11   27.06    5.95
   7   8  11   36.27    5.85
  -7  -8 -11   29.46    4.28
   7   8  12   39.29    5.04
   7   8  12   38.99    3.89
   7   8  12   34.40    5.90
  -7  -8 -12   29.89    4.50
   7   9   2    5.26    3.79
  -7  -9  -2    0.83    2.91
   7   9   3    6.89    6.20
  -7  -9  -3    7.00    5.79
   7   9   4    7.71    3.86
  -7  -9  -4    8.79    3.68
   7   9   5    9.51    3.72
   7   9   5    7.61    2.32
  -7  -9  -5    7.71    2.06
  -7  -9  -5    7.48    3.47
   7   9   6    5.10    5.45
   7   9   6    5.66    2.24
  -7  -9  -6    1.22    3.07
  -7  -9  -6    2.16    4.61
   7   9   7   62.19    8.05
   7   9   7   49.41    5.87
  -7  -9  -7   45.92    3.79
  -7  -9  -7   52.03    4.97
   7   9   8   14.51    3.94
   7   9   8   14.13    3.60
   7   9   8   13.08    3.11
  -7  -9  -8   16.43    3.10
   7   9   9  273.40   10.19
   7   9   9  257.65    9.47
   7   9   9  265.42    9.22
  -7  -9  -9  263.19    9.13
   8  -5  -5   43.36    6.43
   8  -5  -5   35.74    5.84
   8  -5  -5   39.29    5.10
   8  -5  -5   42.26    5.36
  -8   5   5   36.05    3.45
  -8   5   5   33.01    3.43
   8  -5  -4    0.31    2.98
   8  -5  -4    7.82    3.65
   8  -5  -4    7.81    3.97
   8  -5  -4   10.51    5.77
  -8   5   4    7.91    2.34
  -8   5   4    3.97    2.62
   8  -5  -3    0.10    3.09
   8  -5  -3    4.50    5.89
   8  -5  -3   11.50    4.02
   8  -5  -3    8.78    3.59
  -8   5   3    3.35    2.05
  -8   5   3    4.73    2.60
   8  -5  -2    0.49    2.25
   8  -5  -2    0.77    2.72
   8  -5  -2    3.37    4.11
   8  -5  -2   -2.25    2.72
  -8   5   2   -1.26    1.76
  -8   5   2   -0.40    3.74
   8  -5  -1   -0.55    2.73
   8  -5  -1    1.68    1.96
   8  -5  -1    0.62    3.07
   8  -5  -1    3.28    3.07
  -8   5   1    0.63    3.11
  -8   5   1    3.19    2.58
   8  -5   0    0.16    3.86
   8  -5   0   12.83    2.61
   8  -5   0   12.12    3.79
   8  -5   0   16.54    6.51
  -8   5   0   15.60    5.69
   8  -5   1    8.84    3.88
   8  -5   1    8.54    3.92
   8  -5   1    8.34    2.45
   8  -5   1    8.63    3.70
  -8   5  -1    7.11    3.39
   8  -5   2   13.07    3.96
   8  -5   2    7.52    2.41
   8  -5   2    2.86    6.14
   8  -5   2    4.80    3.63
  -8   5  -2    8.05    3.62
   8  -5   3   24.95    5.20
   8  -5   3   23.72    5.00
   8  -5   3   25.51    4.75
   8  -5   3   31.84    4.90
  -8   5  -3   20.41    4.55
  -8   5  -3   19.63    4.50
   8  -5   4   15.71    4.51
   8  -5   4   -0.09    4.12
   8  -5   4   12.85    6.52
   8  -5   4   14.82    6.65
  -8   5  -4   13.06    4.25
  -8   5  -4   13.97    6.93
   8  -5   5   14.84    7.71
   8  -5   5   -0.00    4.33
   8  -5   5   19.37    4.35
   8  -5   5   17.46    4.13
  -8   5  -5   21.34    4.67
  -8   5  -5   18.71    7.27
   8  -4  -7    2.19    2.15
   8  -4  -7    0.84    5.06
   8  -4  -7    1.69    3.80
   8  -4  -7    7.13    3.02
   8  -4  -6   17.17    3.00
   8  -4  -6   17.14    6.61
   8  -4  -6   20.04    4.66
   8  -4  -6   20.95    3.90
   8  -4  -5   27.65    5.22
   8  -4  -5   16.71    7.14
   8  -4  -5   29.85    4.72
   8  -4  -5   35.64    4.36
   8  -4  -5   30.48    2.96
   8  -4  -4   26.90    3.43
   8  -4  -4   33.37    4.47
   8  -4  -4   26.72    4.53
   8  -4  -4   27.36    4.26
  -8   4   4   21.88    2.70
  -8   4   4   27.79    3.05
   8  -4  -3   -0.15    2.18
   8  -4  -3   -0.07    2.78
   8  -4  -3    2.75    2.60
   8  -4  -3    1.23    2.75
  -8   4   3    1.66    1.69
  -8   4   3    3.06    2.19
   8  -4  -2   -0.06    2.61
   8  -4  -2    4.82    1.85
   8  -4  -2    4.87    2.98
   8  -4  -2    1.13    3.10
  -8   4   2    2.62    1.68
  -8   4   2    4.88    3.89
   8  -4  -1   -0.14    3.35
   8  -4  -1   11.08    3.79
   8  -4  -1   16.92    2.29
   8  -4  -1   15.93    3.63
  -8   4   1    8.20    3.24
  -8   4   1   12.83    3.15
   8  -4   0   21.86    3.87
   8  -4   0   27.87    4.15
   8  -4   0   23.14    4.02
   8  -4   0   23.51    4.10
  -8   4   0   23.97    3.67
  -8   4   0   20.32    5.75
   8  -4   1    0.95    2.10
   8  -4   1   -0.43    2.02
   8  -4   1   -1.26    3.49
   8  -4   1   -0.19    2.27
  -8   4  -1    0.07    1.15
  -8   4  -1   -0.05    1.98
   8  -4   2   55.88    5.36
   8  -4   2   68.97    8.35
   8  -4   2   52.55    3.36
   8  -4   2   59.95    5.31
  -8   4  -2   50.83    3.18
  -8   4  -2   51.25    4.97
   8  -4   3   74.62    9.31
   8  -4   3   87.22    5.78
   8  -4   3   90.76    6.31
   8  -4   3   92.13    6.22
  -8   4  -3   81.33    3.79
  -8   4  -3  101.59    8.96
   8  -4   4    4.50    3.29
   8  -4   4   -0.28    2.89
   8  -4   4    4.07    4.97
   8  -4   4    3.33    3.08
  -8   4  -4    1.94    2.76
  -8   4  -4    2.85    3.09
   8  -4   5    1.86    2.95
   8  -4   5   -0.01    1.60
   8  -4   5    1.06    2.77
   8  -4   5    1.40    2.64
  -8   4  -5    0.16    2.68
  -8   4  -5    2.74    3.04
   8  -4   6    4.86    3.41
   8  -4   6    0.24    1.92
   8  -4   6    2.98    3.06
   8  -4   6    2.05    2.85
  -8   4  -6   -2.29    2.48
  -8   4  -6    2.03    2.78
   8  -4   7    0.05    2.87
   8  -4   7   -0.06    1.56
   8  -4   7    0.78    2.49
  -8   4  -7    1.33    1.66
  -8   4  -7    1.05    2.67
  -8   4  -7   -1.39    2.99
   8  -3  -8    6.05    3.68
   8  -3  -8    2.19    2.87
   8  -3  -8    5.25    3.02
   8  -3  -7   37.58    3.33
   8  -3  -7   36.20    4.31
   8  -3  -7   37.79    3.27
   8  -3  -7   41.39    4.18
   8  -3  -7   36.11    4.87
   8  -3  -6   11.02    2.53
   8  -3  -6   10.55    3.31
   8  -3  -6    7.73    2.32
   8  -3  -6   10.10    4.86
   8  -3  -6    9.90    3.54
   8  -3  -6    9.57    3.46
   8  -3  -5    3.16    3.41
   8  -3  -5    2.41    2.80
   8  -3  -5    3.07    1.96
   8  -3  -5    3.56    1.86
   8  -3  -5    4.10    2.70
   8  -3  -5    3.63    2.79
   8  -3  -4    0.14    1.70
   8  -3  -4    0.03    1.61
   8  -3  -4    0.39    1.32
   8  -3  -4    0.51    2.08
   8  -3  -4   -0.60    2.06
   8  -3  -4    1.22    2.20
   8  -3  -3   31.74    3.41
   8  -3  -3   33.30    3.84
   8  -3  -3   31.84    6.03
   8  -3  -3   31.30    4.04
  -8   3   3   28.02    3.11
   8  -3  -2   -0.26    2.39
   8  -3  -2    4.04    2.80
   8  -3  -2    3.77    1.66
   8  -3  -2    5.95    2.71
  -8   3   2    4.91    1.53
  -8   3   2    3.38    3.78
   8  -3  -1   -0.09    2.38
   8  -3  -1    2.55    2.34
   8  -3  -1    4.08    2.57
   8  -3  -1    2.39    4.42
  -8   3   1    2.13    1.39
  -8   3   1    5.10    2.40
   8  -3   0    1.86    2.41
   8  -3   0    0.10    1.38
   8  -3   0    1.91    2.60
   8  -3   0    2.69    2.69
  -8   3   0   -0.04    2.15
  -8   3   0    4.00    3.79
   8  -3   1  427.87   12.56
   8  -3   1  419.12   11.38
   8  -3   1  454.11   13.57
   8  -3   1  449.21   13.12
  -8   3  -1  391.30   10.66
  -8   3  -1  430.85   12.66
   8  -3   2  391.04   15.43
   8  -3   2  376.40    8.96
   8  -3   2  380.41   11.90
   8  -3   2  407.48   15.85
  -8   3  -2  349.50    8.34
  -8   3  -2  394.99   15.24
   8  -3   3  217.08    8.80
   8  -3   3  203.66    7.23
   8  -3   3  225.03    9.00
   8  -3   3  203.15    8.53
  -8   3  -3  195.03    6.85
  -8   3  -3  208.24    8.29
   8  -3   4    2.74    3.01
   8  -3   4    0.72    1.40
   8  -3   4    4.28    2.80
  -8   3  -4    1.71    1.41
  -8   3  -4    2.93    2.82
  -8   3  -4    3.76    2.92
   8  -3   5    0.54    2.62
   8  -3   5    0.76    2.09
   8  -3   5   -0.20    2.51
  -8   3  -5   -0.56    1.25
  -8   3  -5    6.96    2.51
  -8   3  -5   -1.98    2.49
   8  -3   6    6.27    3.48
   8  -3   6    4.84    1.78
   8  -3   6    8.58    5.33
  -8   3  -6    4.93    2.72
  -8   3  -6    4.75    3.27
  -8   3  -6    7.78    3.26
   8  -3   7   -0.68    2.72
   8  -3   7   -0.13    1.39
   8  -3   7   -1.55    2.52
  -8   3  -7    0.26    2.24
  -8   3  -7   -0.42    2.66
  -8   3  -7    3.22    2.73
   8  -3   8    6.24    6.12
   8  -3   8    7.16    2.06
   8  -3   8    5.88    3.47
  -8   3  -8    2.62    2.76
  -8   3  -8    3.00    4.94
  -8   3  -8    3.81    3.27
   8  -3   9    0.49    1.78
   8  -3   9    5.60    3.28
   8  -3   9    1.56    2.97
  -8   3  -9    4.11    2.79
  -8   3  -9    1.81    2.97
  -8   3  -9   -1.13    3.14
   8  -2  -9  117.02    7.26
   8  -2  -9  131.62    8.03
   8  -2  -9  126.92    7.44
   8  -2  -9  115.56    8.09
   8  -2  -8   62.35    3.72
   8  -2  -8   60.14    5.18
   8  -2  -8   58.06    3.39
   8  -2  -8   67.53    6.67
   8  -2  -8   66.47    3.98
   8  -2  -8   68.59    4.70
   8  -2  -7  119.21    4.75
   8  -2  -7  124.66    4.88
   8  -2  -7  124.09    4.71
   8  -2  -7  122.16    5.95
   8  -2  -7  130.62    5.91
   8  -2  -7  124.77    4.84
   8  -2  -6   79.56    5.94
   8  -2  -6   93.40    5.13
   8  -2  -6   89.30    4.11
   8  -2  -6   87.91    4.90
   8  -2  -6   89.45    5.41
   8  -2  -6   85.10    5.30
   8  -2  -5    3.42    2.07
   8  -2  -5    4.23    2.48
   8  -2  -5   -0.04    1.85
   8  -2  -5    2.56    1.58
   8  -2  -5    5.64    2.36
   8  -2  -5    2.55    2.51
   8  -2  -4   37.05    3.27
   8  -2  -4   27.80    2.89
   8  -2  -4   32.26    3.52
   8  -2  -4   28.65    2.32
   8  -2  -4   32.72    5.77
   8  -2  -4   30.88    3.38
   8  -2  -3   44.53    3.65
   8  -2  -3   40.93    3.31
   8  -2  -3   40.25    3.45
   8  -2  -3   43.35    3.97
   8  -2  -3   50.00    6.12
   8  -2  -3   40.56    3.49
   8  -2  -2   32.34    3.44
   8  -2  -2   28.80    5.61
   8  -2  -2   33.02    3.22
   8  -2  -2   28.21    2.01
   8  -2  -2   31.10    3.44
   8  -2  -2   29.01    2.98
   8  -2  -1   26.75    3.34
   8  -2  -1   21.85    1.75
   8  -2  -1   21.84    3.39
   8  -2  -1   24.70    5.51
  -8   2   1   17.26    1.60
  -8   2   1   22.85    3.05
   8  -2   0   14.19    3.30
   8  -2   0   15.53    3.38
   8  -2   0   12.64    1.54
   8  -2   0   16.31    3.16
  -8   2   0   12.31    1.44
  -8   2   0   23.33    2.97
   8  -2   1  303.82    9.37
   8  -2   1  266.07    5.97
   8  -2   1  289.85    9.25
   8  -2   1  289.65   11.83
  -8   2  -1  256.15    6.70
  -8   2  -1  286.23    9.04
   8  -2   2   89.88    7.74
   8  -2   2   81.65    3.74
   8  -2   2   87.44    5.30
  -8   2  -2   77.87    3.45
  -8   2  -2   87.62    4.97
  -8   2  -2   86.94    5.17
   8  -2   3   62.15    4.56
   8  -2   3   50.21    3.10
   8  -2   3   58.33    4.45
  -8   2  -3   47.87    2.06
  -8   2  -3   55.91    6.59
  -8   2  -3   59.95    6.91
   8  -2   4    1.15    2.31
   8  -2   4    0.23    1.46
   8  -2   4    1.31    3.62
  -8   2  -4    0.38    1.43
  -8   2  -4    1.42    2.20
  -8   2  -4    0.22    2.32
   8  -2   5    1.72    4.03
   8  -2   5    0.90    1.05
   8  -2   5    1.87    2.56
  -8   2  -5    0.64    1.58
  -8   2  -5    0.89    3.72
  -8   2  -5    0.99    2.36
   8  -2   6   -0.66    2.24
   8  -2   6    0.61    0.96
   8  -2   6   -0.90    2.27
  -8   2  -6   -0.05    0.80
  -8   2  -6    0.72    1.84
  -8   2  -6   -0.62    1.91
   8  -2   7    0.94    3.92
   8  -2   7    0.70    1.78
   8  -2   7   -0.66    2.41
  -8   2  -7    0.78    1.74
  -8   2  -7   -0.99    3.88
  -8   2  -7    0.63    2.45
   8  -2   8  207.28    9.07
   8  -2   8  214.96   11.85
  -8   2  -8  177.71    6.57
  -8   2  -8  213.46    8.43
  -8   2  -8  210.02   11.61
   8  -2   9    1.49    3.69
   8  -2   9   -0.62    2.22
  -8   2  -9    0.10    1.15
  -8   2  -9    0.05    2.19
  -8   2  -9    0.34    3.69
   8  -2  10    5.52    3.68
   8  -2  10    9.39    3.60
  -8   2 -10    7.54    3.44
  -8   2 -10    5.97    3.50
   8  -2  11    1.57    3.19
   8  -2  11    2.72    3.27
  -8   2 -11    5.90    5.55
  -8   2 -11    3.84    3.34
   8  -1  -9   32.13    4.86
   8  -1  -9   33.44    4.96
   8  -1  -9   30.73    3.15
   8  -1  -9   26.75    3.20
   8  -1  -8  195.81    6.04
   8  -1  -8  185.62    6.16
   8  -1  -8  196.89    7.84
   8  -1  -8  207.97    8.96
   8  -1  -8  199.24    8.30
   8  -1  -8  197.65    9.06
   8  -1  -7   94.41    5.94
   8  -1  -7   97.54    5.57
   8  -1  -7  102.18    4.69
   8  -1  -7   91.24    4.82
   8  -1  -7  101.14    3.99
   8  -1  -7  101.56    4.18
   8  -1  -6   20.89    2.71
   8  -1  -6   18.12    2.08
   8  -1  -6   23.08    3.91
   8  -1  -6   20.31    2.99
   8  -1  -6   19.82    2.84
   8  -1  -6   21.56    2.13
   8  -1  -5   22.06    2.76
   8  -1  -5   20.28    1.90
   8  -1  -5   -0.09    3.90
   8  -1  -5   22.14    2.77
   8  -1  -5   19.31    1.88
   8  -1  -5   17.41    4.62
   8  -1  -4   -0.73    1.63
   8  -1  -4   -0.12    1.58
   8  -1  -4    0.06    2.41
   8  -1  -4    1.16    1.60
   8  -1  -4    0.25    1.55
   8  -1  -4    0.66    1.65
   8  -1  -3   17.56    2.81
   8  -1  -3   17.86    2.41
   8  -1  -3   17.21    2.84
   8  -1  -3   -0.03    4.14
   8  -1  -3   20.18    2.82
   8  -1  -3   16.54    2.42
   8  -1  -2   80.63    4.57
   8  -1  -2   83.82    4.27
   8  -1  -2   83.99    6.22
   8  -1  -2   79.93    2.53
   8  -1  -2   82.45    4.55
   8  -1  -2   78.49    3.35
   8  -1  -1   87.94    4.73
   8  -1  -1   90.86    4.68
   8  -1  -1   90.93    4.46
   8  -1  -1   82.03    3.18
   8  -1  -1   89.90    4.45
   8  -1  -1   83.95    3.14
   8  -1   0   12.27    2.92
   8  -1   0   11.82    1.05
   8  -1   0   12.55    2.79
   8  -1   0   13.84    2.77
   8  -1   0   13.87    2.73
   8  -1   0   11.91    1.54
   8  -1   1   -1.30    2.92
   8  -1   1    0.22    0.85
   8  -1   1    0.03    1.70
   8  -1   1    0.23    1.67
   8  -1   1    0.10    0.52
  -8   1  -1   -0.13    1.82
  -8   1  -1   -1.12    1.96
   8  -1   2    1.02    1.70
   8  -1   2   -0.11    0.72
   8  -1   2   -0.19    1.55
  -8   1  -2   -0.30    1.50
  -8   1  -2    0.16    0.67
  -8   1  -2   -0.71    1.59
   8  -1   3    5.06    2.54
   8  -1   3    1.53    1.07
   8  -1   3    4.09    3.78
  -8   1  -3    4.53    3.70
  -8   1  -3    2.07    0.63
  -8   1  -3    3.32    2.37
   8  -1   4   -0.52    2.13
   8  -1   4    1.23    2.12
  -8   1  -4    0.39    0.53
  -8   1  -4   -0.61    1.95
  -8   1  -4   -0.96    3.32
   8  -1   5    4.07    2.81
   8  -1   5    4.86    2.73
  -8   1  -5    0.35    1.07
  -8   1  -5    5.00    2.26
  -8   1  -5    1.90    2.41
   8  -1   6   68.84    5.24
   8  -1   6   72.15    7.47
  -8   1  -6   65.86    4.64
  -8   1  -6   68.16    5.02
   8  -1   7    2.04    2.67
   8  -1   7    1.09    2.65
  -8   1  -7    1.20    2.57
  -8   1  -7    1.16    2.58
   8  -1   8    2.61    2.78
   8  -1   8    1.35    2.77
  -8   1  -8    1.45    2.54
  -8   1  -8   -0.01    2.52
   8  -1   9  129.05    6.70
   8  -1   9  127.96    6.82
  -8   1  -9  138.84    9.72
  -8   1  -9  137.89    6.75
   8  -1  10   13.25    6.16
   8  -1  10   10.57    5.92
  -8   1 -10   15.03    3.69
  -8   1 -10   13.73    3.61
   8  -1  11    4.28    5.90
   8  -1  11    9.31    3.57
  -8   1 -11    9.55    3.48
  -8   1 -11    4.24    3.27
   8  -1  12    5.19    3.39
   8  -1  12    5.98    3.61
  -8   1 -12    4.43    3.35
  -8   1 -12    4.96    3.19
   8   0  -9   21.22    4.11
   8   0  -9   15.01    4.13
   8   0  -8   -0.03    1.70
   8   0  -8    2.44    1.74
   8   0  -8    2.40    1.64
   8   0  -8    3.80    1.71
   8   0  -8    0.68    1.71
   8   0  -8    2.90    1.77
   8   0  -7   -0.02    1.77
   8   0  -7   11.85    3.10
   8   0  -7    7.16    1.86
   8   0  -7    4.50    3.20
   8   0  -7    5.64    2.71
   8   0  -7    6.16    3.22
   8   0  -6    4.98    2.48
   8   0  -6    1.54    3.10
   8   0  -6    5.09    1.97
   8   0  -6    7.10    2.92
   8   0  -6    3.98    2.41
   8   0  -6    4.42    2.09
   8   0  -5    0.81    1.13
   8   0  -5   -0.12    1.69
   8   0  -5    1.95    1.52
   8   0  -5    1.17    1.74
   8   0  -5    1.92    2.74
   8   0  -5    1.24    1.77
   8   0  -4    4.88    2.03
   8   0  -4   -0.24    2.15
   8   0  -4    5.52    2.00
   8   0  -4    9.27    1.22
   8   0  -4    8.08    2.13
   8   0  -4    7.61    2.32
   8   0  -3  126.77    4.08
   8   0  -3  142.95    6.94
   8   0  -3  141.17    5.38
   8   0  -3  139.20    6.79
   8   0  -3  134.79    3.32
   8   0  -3  146.14    5.66
   8   0  -2   18.28    1.10
   8   0  -2   17.53    2.61
   8   0  -2    0.17    4.30
   8   0  -2   19.35    2.64
   8   0  -2   18.70    1.62
   8   0  -2   18.98    2.96
   8   0  -1   84.84    1.94
   8   0  -1  101.31    6.43
   8   0  -1   98.02    4.37
   8   0  -1  101.41    4.35
   8   0  -1   88.30    2.43
   8   0  -1   95.77    4.77
   8   0   0   30.38    2.93
   8   0   0   27.33    3.11
   8   0   0   28.34    3.37
  -8   0   0   31.63    2.91
   8   0   1   82.09    4.32
   8   0   1   79.57    4.13
   8   0   1   82.95    6.78
  -8   0  -1   73.10    3.96
   8   0   2    2.09    2.07
   8   0   2    1.91    2.06
   8   0   2    1.65    2.28
  -8   0  -2    0.88    1.78
   8   0   3    8.65    3.97
   8   0   3    4.64    2.56
   8   0   3    7.38    2.70
  -8   0  -3    4.19    2.26
   8   0   4   -0.96    1.96
   8   0   4    0.91    1.97
   8   0   4    2.85    3.38
  -8   0  -4    0.13    2.74
   8   0   5   16.93    3.39
   8   0   5   14.06    3.19
  -8   0  -5   14.28    2.77
  -8   0  -5    0.95    2.88
   8   0   6  149.40    9.52
   8   0   6  149.94    9.08
  -8   0  -6  149.27    8.80
  -8   0  -6  152.63    6.49
   8   0   7  205.34    7.76
   8   0   7  203.90    7.79
  -8   0  -7  202.69    7.44
  -8   0  -7  196.95    7.54
   8   0   8   18.44    5.69
   8   0   8   16.56    3.65
  -8   0  -8   19.85    5.72
  -8   0  -8   20.21    3.51
   8   0   9   21.09    3.78
   8   0   9   16.65    3.87
  -8   0  -9   14.00    3.72
  -8   0  -9   20.73    3.50
   8   0  10   85.06    8.60
   8   0  10   75.57    5.30
  -8   0 -10   81.55    5.50
  -8   0 -10   77.98    5.27
   8   0  11   16.97    5.77
   8   0  11   16.79    4.11
  -8   0 -11   20.99    4.04
  -8   0 -11   25.95    3.68
   8   0  12   11.96    3.33
   8   0  12    9.16    4.08
  -8   0 -12    9.35    3.63
  -8   0 -12    9.72    3.31
   8   0  13    0.82    2.58
   8   0  13   -0.25    4.78
  -8   0 -13    2.63    3.09
  -8   0 -13    1.75    2.65
   8   1  -9   33.18    2.92
   8   1  -9   27.47    2.76
   8   1  -9   32.22    2.91
   8   1  -9   32.46    2.91
   8   1  -8   19.41    3.61
   8   1  -8   23.67    2.64
   8   1  -8   18.13    2.33
   8   1  -8   22.74    4.07
   8   1  -7   -0.00    2.81
   8   1  -7   10.32    3.40
   8   1  -7    3.47    2.68
   8   1  -7    6.18    1.80
   8   1  -7    6.41    1.73
   8   1  -7    9.29    2.18
   8   1  -6   33.04    2.26
   8   1  -6   35.45    2.94
   8   1  -6   31.51    3.84
   8   1  -6   31.45    3.61
   8   1  -6   31.98    3.26
   8   1  -6   33.26    3.05
   8   1  -5   55.34    4.39
   8   1  -5   50.52    2.34
   8   1  -5   54.92    3.58
   8   1  -5   55.10    4.08
   8   1  -5   51.11    3.24
   8   1  -5   54.65    3.63
   8   1  -4   30.86    2.89
   8   1  -4   29.37    2.36
   8   1  -4   25.53    2.43
   8   1  -4   32.32    3.05
   8   1  -3   24.59    2.40
   8   1  -3   30.32    2.90
   8   1  -3   30.74    3.04
   8   1  -3   27.02    2.46
   8   1  -2   -0.56    1.43
   8   1  -2   -1.11    2.27
   8   1  -2   -0.17    1.75
   8   1  -2   -1.10    1.86
   8   1  -1   97.09    4.02
   8   1  -1  108.86    6.53
   8   1  -1   92.54    4.69
   8   1   0    0.73    1.51
   8   1   0    0.82    1.76
   8   1   0   -0.40    1.82
  -8  -1   0    1.46    1.58
   8   1   1    5.12    2.05
   8   1   1    5.22    2.28
   8   1   1    5.91    3.94
  -8  -1  -1    4.93    1.90
   8   1   2  144.95    5.29
   8   1   2  141.76    7.82
   8   1   2  140.33    5.80
  -8  -1  -2  126.99    4.81
   8   1   3  132.04    5.26
   8   1   3  141.38    5.57
   8   1   3  136.63    5.90
  -8  -1  -3  134.71    5.15
   8   1   4  133.29    7.65
   8   1   4  138.69    8.00
   8   1   4  128.64    5.93
   8   1   5  163.13    6.23
   8   1   5  162.33    6.31
   8   1   5  158.79    6.61
  -8  -1  -5  155.81    5.90
   8   1   6  106.95    5.33
   8   1   6  108.06    5.24
   8   1   6  107.85    5.46
  -8  -1  -6  100.03    4.98
   8   1   7    0.52    2.13
   8   1   7    1.98    2.08
   8   1   7   -1.31    2.16
  -8  -1  -7   -2.98    2.47
   8   1   8  364.44   11.11
   8   1   8  361.81   11.30
   8   1   8  365.69   13.49
  -8  -1  -8  352.52   10.59
   8   1   9   64.38    7.29
   8   1   9   58.76    6.74
   8   1   9   58.06    7.66
  -8  -1  -9   57.41    4.77
   8   1  10   29.20    3.81
   8   1  10   27.93    5.69
   8   1  10   25.13    4.23
  -8  -1 -10   31.91    4.22
   8   1  11   21.84    3.95
   8   1  11   24.27    5.62
   8   1  11   28.70    4.51
  -8  -1 -11   35.21    6.98
   8   1  12   26.77    3.89
   8   1  12   23.03    3.65
   8   1  12   23.59    4.60
  -8  -1 -12   26.14    7.07
   8   1  13   60.38    7.30
   8   1  13   65.65    4.77
   8   1  13   63.80    5.91
  -8  -1 -13   62.08    8.82
   8   2  -8   23.95    2.84
   8   2  -8   22.86    4.52
   8   2  -7   20.31    2.76
   8   2  -7   20.23    4.22
   8   2  -6   13.14    2.73
   8   2  -6   20.22    2.71
   8   2  -5    0.17    1.05
   8   2  -5    0.63    1.01
   8   2  -5   -0.73    1.63
   8   2  -5   -0.08    1.57
   8   2  -4   26.34    2.07
   8   2  -4   27.95    2.97
   8   2  -4   25.66    2.12
   8   2  -4   25.06    2.99
   8   2  -3   30.40    3.36
   8   2  -3   35.21    3.18
   8   2  -3   33.44    3.18
   8   2  -3   27.90    2.27
   8   2  -2   18.80    3.21
   8   2  -2   23.36    2.82
   8   2  -2   22.89    3.26
   8   2  -2   17.90    2.93
   8   2  -1    5.13    1.70
   8   2  -1    5.80    2.37
   8   2  -1    7.26    2.41
  -8  -2   1    5.34    1.62
   8   2   0  110.96    4.09
   8   2   0  117.39    7.07
   8   2   0  110.54    7.18
  -8  -2   0  111.50    5.49
   8   2   1  108.26    5.88
   8   2   1  112.83    4.98
   8   2   1  108.33    5.22
  -8  -2  -1  101.16    3.95
   8   2   2   -1.23    1.45
   8   2   2    1.21    1.75
   8   2   2   -0.09    1.86
  -8  -2  -2    0.43    1.45
   8   2   3   11.80    3.26
   8   2   3    0.27    2.40
   8   2   3    0.96    4.14
  -8  -2  -3    1.63    1.72
   8   2   4   65.71    3.89
   8   2   4   66.23    4.28
   8   2   4   69.30    4.45
  -8  -2  -4   62.64    5.29
   8   2   5   65.07    5.87
   8   2   5   60.90    4.08
   8   2   5   58.12    4.24
  -8  -2  -5   56.71    3.58
   8   2   6   75.81    4.53
   8   2   6   75.17    4.61
   8   2   6   76.11    4.78
  -8  -2  -6   68.37    4.23
   8   2   7    0.13    3.34
   8   2   7    0.79    3.54
   8   2   7    0.80    3.44
  -8  -2  -7   -0.48    3.12
   8   2   8   94.86    5.19
   8   2   8   98.13    5.27
   8   2   8   97.58    5.37
  -8  -2  -8   93.22    5.15
   8   2   9   43.25    3.91
   8   2   9   40.52    4.62
   8   2   9   43.22    4.11
  -8  -2  -9   48.97    4.30
   8   2  10    3.53    4.43
   8   2  10    3.39    2.57
   8   2  10    2.59    3.03
  -8  -2 -10    1.85    4.47
   8   2  11   32.74    6.36
   8   2  11   35.90    3.85
   8   2  11   28.27    4.72
  -8  -2 -11   29.64    7.03
   8   2  12   51.23    4.56
   8   2  12   52.93    4.37
   8   2  12   49.96    8.64
  -8  -2 -12   47.79    5.26
   8   2  13   40.14    4.40
   8   2  13   40.66    5.99
   8   2  13   42.54    5.48
  -8  -2 -13   42.39    5.26
   8   2  14   25.86    3.93
   8   2  14   33.14    5.78
   8   2  14   36.07    5.22
  -8  -2 -14   29.35    5.00
   8   3  -8    3.77    2.40
   8   3  -7   35.18    5.44
   8   3  -7   33.98    3.35
   8   3  -6   46.00    5.60
   8   3  -6   42.17    5.43
   8   3  -5   66.71    6.02
   8   3  -5   58.57    3.97
   8   3  -4   16.77    4.67
   8   3  -4   17.19    2.88
   8   3  -3   23.50    2.85
   8   3  -3   26.27    5.08
   8   3  -3   25.13    3.16
   8   3  -3   27.25    2.91
   8   3  -2   12.09    2.63
   8   3  -2   16.54    2.75
   8   3  -2    9.56    2.58
   8   3  -2    0.19    4.38
   8   3  -1   18.89    3.08
   8   3  -1   22.42    3.13
   8   3  -1    0.09    4.98
  -8  -3   1   19.52    3.00
   8   3   0  298.91    9.07
   8   3   0  304.74    8.95
   8   3   0  304.11    9.11
  -8  -3   0  281.38    6.91
   8   3   1    7.62    1.91
   8   3   1   11.41    2.64
   8   3   1    0.29    2.75
  -8  -3  -1    8.12    2.89
   8   3   2   22.62    2.42
   8   3   2   19.42    3.21
   8   3   2   20.48    3.31
  -8  -3  -2   19.84    3.53
   8   3   3   27.22    4.33
   8   3   3   26.88    5.30
   8   3   3   29.19    3.46
  -8  -3  -3   25.42    3.87
   8   3   4    3.53    2.44
   8   3   4    3.82    2.56
   8   3   4    5.60    2.13
  -8  -3  -4    4.97    3.19
   8   3   5   18.54    3.16
   8   3   5   17.59    3.26
   8   3   5   17.66    2.81
  -8  -3  -5   16.77    2.63
   8   3   6  192.04    9.30
   8   3   6  187.46    8.99
   8   3   6  192.48    7.10
  -8  -3  -6  178.55    6.19
   8   3   7  119.61    5.49
   8   3   7  113.66    5.49
   8   3   7  112.52    5.64
  -8  -3  -7  116.99    7.40
   8   3   8    1.29    2.17
   8   3   8    2.07    3.69
   8   3   8    0.34    3.70
  -8  -3  -8   -1.56    2.25
   8   3   9    1.08    2.36
   8   3   9    2.58    2.68
   8   3   9    2.29    2.50
  -8  -3  -9    2.76    2.53
   8   3  10  513.28   13.81
   8   3  10  522.66   18.60
   8   3  10  508.74   14.04
  -8  -3 -10  498.66   17.08
   8   3  11   59.61    4.48
   8   3  11   62.18    5.61
   8   3  11   58.01    4.65
  -8  -3 -11   53.49    4.90
   8   3  12   17.88    3.47
   8   3  12   18.66    3.23
   8   3  12   18.13    4.36
  -8  -3 -12   16.87    3.93
   8   3  13   32.75    6.04
   8   3  13   35.65    3.72
   8   3  13   39.10    5.20
  -8  -3 -13   29.34    4.65
   8   3  14    3.71    4.95
   8   3  14    8.82    2.84
   8   3  14   12.26    4.25
  -8  -3 -14   13.35    4.02
   8   4  -7    2.46    2.44
   8   4  -6   11.11    2.75
   8   4  -6    0.17    2.64
   8   4  -5    3.63    2.30
   8   4  -5    0.20    2.25
   8   4  -4   26.95    3.49
   8   4  -4   27.98    3.49
   8   4  -3   20.25    2.90
   8   4  -3   -0.16    2.96
   8   4  -2  206.17    9.79
   8   4  -2  185.01    5.73
   8   4  -2  188.55    4.70
   8   4  -2  195.51    7.20
   8   4  -1   12.73    2.89
   8   4  -1    9.62    2.45
   8   4  -1    0.21    2.92
  -8  -4   1    9.68    2.37
   8   4   0  102.83    5.29
   8   4   0   99.40    5.25
   8   4   0  102.17    4.95
  -8  -4   0   97.38    4.58
   8   4   1    6.01    4.31
   8   4   1    0.09    4.34
   8   4   1    5.68    2.69
  -8  -4  -1    7.33    1.67
   8   4   2   21.33    3.46
   8   4   2   23.58    3.42
   8   4   2   19.86    3.71
  -8  -4  -2   23.28    2.28
   8   4   3  240.63   10.52
   8   4   3  240.00    8.53
   8   4   3  232.27    7.94
  -8  -4  -3  221.10    7.78
   8   4   4  216.02    7.36
   8   4   4  204.06    6.35
   8   4   4  212.47    7.41
  -8  -4  -4  194.99    7.65
   8   4   5   87.14    4.80
   8   4   5   84.87    4.21
   8   4   5   87.60    5.00
  -8  -4  -5   80.14    3.94
   8   4   6   14.05    2.89
   8   4   6   12.64    4.21
   8   4   6   10.58    3.06
  -8  -4  -6    8.49    2.35
   8   4   7  212.51    7.33
   8   4   7  216.18    7.46
   8   4   7  204.52    7.40
  -8  -4  -7  196.35    8.86
   8   4   8  265.22    8.59
   8   4   8  254.30    8.77
   8   4   8  265.02    8.80
  -8  -4  -8  249.65    8.00
   8   4   9   58.43    4.47
   8   4   9   70.70    7.44
   8   4   9   59.80    4.67
  -8  -4  -9   54.35    4.51
   8   4  10    0.06    2.12
   8   4  10    1.46    2.53
   8   4  10    1.39    3.67
  -8  -4 -10    3.15    4.32
   8   4  11   -0.03    4.61
   8   4  11   13.08    5.81
   8   4  11   14.44    3.06
  -8  -4 -11   12.32    3.47
   8   4  12    0.10    2.41
   8   4  12    6.26    3.29
   8   4  12    4.96    2.57
  -8  -4 -12    4.14    3.02
   8   4  13    0.09    1.91
   8   4  13    0.69    2.78
   8   4  13    0.44    2.06
  -8  -4 -13    2.97    3.05
   8   4  14  102.56    5.67
   8   4  14   94.08    5.26
   8   4  14  107.78    7.83
  -8  -4 -14   98.47    6.68
   8   5  -6   12.01    4.54
   8   5  -6    0.20    2.77
   8   5  -5    4.72    4.01
   8   5  -5   -0.11    2.41
   8   5  -4   19.52    3.25
   8   5  -4    0.12    3.21
   8   5  -3   45.01    4.27
   8   5  -3   43.90    4.41
   8   5  -2    8.36    2.84
   8   5  -2    0.48    2.86
   8   5  -1    1.72    3.60
   8   5  -1   -0.01    2.23
   8   5   0  133.98    6.19
   8   5   0  123.22    3.84
   8   5   0  120.81    6.15
  -8  -5   0  125.15    4.73
   8   5   1   91.18    5.43
   8   5   1   82.31    4.68
   8   5   1   89.84    5.30
  -8  -5  -1   81.76    4.43
   8   5   2    6.62    3.02
   8   5   2    7.44    1.87
   8   5   2    0.66    4.83
  -8  -5  -2    8.15    1.72
   8   5   3    0.16    2.13
   8   5   3   -0.94    1.46
   8   5   3    0.02    2.20
  -8  -5  -3    0.86    1.39
   8   5   4    8.40    2.92
   8   5   4    5.93    2.11
   8   5   4    8.61    3.01
  -8  -5  -4    6.38    1.93
   8   5   5   10.14    4.84
   8   5   5    9.18    2.37
   8   5   5    7.27    3.07
  -8  -5  -5    8.42    2.17
   8   5   6   13.29    3.31
   8   5   6   14.07    4.45
   8   5   6   15.47    3.20
  -8  -5  -6   14.47    2.57
   8   5   7   29.53    3.93
   8   5   7   26.92    5.43
   8   5   7   27.40    3.96
  -8  -5  -7   25.56    4.88
   8   5   8  312.49    9.89
   8   5   8  319.86    9.76
   8   5   8  307.85   12.69
  -8  -5  -8  288.48    8.76
   8   5   9   12.86    4.93
   8   5   9   11.70    3.26
   8   5   9   11.57    3.02
  -8  -5  -9   10.49    2.90
   8   5  10   -0.19    3.25
   8   5  10    0.30    3.82
   8   5  10   -0.78    2.15
  -8  -5 -10    1.89    3.83
   8   5  11    0.14    4.57
   8   5  11   16.52    3.78
   8   5  11   15.74    3.21
  -8  -5 -11   11.87    5.43
   8   5  12   -0.12    3.32
   8   5  12   -0.22    2.84
   8   5  12    1.37    2.17
  -8  -5 -12    0.08    2.18
   8   5  13   61.64    6.88
   8   5  13   71.95    9.59
   8   5  13   61.17    4.72
  -8  -5 -13   60.93    5.82
   8   6  -4   28.48    3.85
   8   6  -4    0.48    3.52
   8   6  -3   18.07    5.20
   8   6  -3    0.12    3.10
   8   6  -2    3.72    2.79
   8   6  -2   -0.54    2.61
   8   6  -1    7.22    2.97
   8   6  -1    0.46    2.92
   8   6   0  105.08    8.79
   8   6   0   98.00    5.84
   8   6   1   20.69    3.98
   8   6   1   26.87    3.83
  -8  -6  -1   22.72    2.83
   8   6   2    2.66    3.98
   8   6   2    0.88    1.36
   8   6   2   -0.21    4.10
  -8  -6  -2    1.17    1.29
   8   6   3  107.31    6.09
   8   6   3  109.10    4.15
   8   6   3  118.88    6.16
  -8  -6  -3  110.79    5.44
   8   6   4   23.70    3.68
   8   6   4   22.31    3.96
   8   6   4   21.69    3.75
  -8  -6  -4   22.14    2.45
   8   6   5   80.49    5.43
   8   6   5   81.21    6.09
   8   6   5   73.82    5.32
  -8  -6  -5   68.92    3.68
   8   6   6  524.09   14.58
   8   6   6  504.55   15.36
   8   6   6  486.52   13.90
  -8  -6  -6  456.05   13.70
   8   6   7   37.28    4.23
   8   6   7   37.63    5.69
   8   6   7   36.05    4.17
  -8  -6  -7   33.95    3.28
   8   6   8   20.01    5.59
   8   6   8   20.11    5.21
   8   6   8   19.17    5.59
  -8  -6  -8   13.90    4.60
   8   6   9   86.36    7.35
   8   6   9   77.92    5.15
   8   6   9   79.44    5.14
  -8  -6  -9   79.11    4.79
   8   6  10  112.68    5.68
   8   6  10  120.68    6.32
   8   6  10  117.15    5.76
  -8  -6 -10  112.63    5.98
   8   6  11   83.67    5.16
   8   6  11   97.54    6.10
   8   6  11   93.35    8.08
  -8  -6 -11   81.42    5.58
   8   6  12  295.31   12.33
   8   6  12  306.30   14.89
   8   6  12  302.25   13.00
  -8  -6 -12  304.52   14.29
   8   6  13   -0.61    3.47
   8   6  13   -0.11    3.33
   8   6  13    2.40    2.93
   8   6  13   -0.10    3.57
  -8  -6 -13   -2.70    4.97
   8   7  -2  113.44    7.05
  -8  -7   2  109.42    6.59
   8   7  -1   40.14    5.04
  -8  -7   1   37.37    4.73
   8   7   0    8.53    3.74
  -8  -7   0    0.02    2.15
   8   7   1  129.06    8.11
   8   7   1    0.38    4.32
   8   7   2  108.63    6.49
   8   7   2  100.86    6.29
   8   7   3   31.78    2.50
   8   7   3   29.06    4.51
   8   7   3   23.38    4.35
  -8  -7  -3   30.35    2.43
   8   7   4  273.58    9.79
   8   7   4  259.79    7.34
   8   7   4  272.49   12.92
  -8  -7  -4  259.01    7.07
   8   7   5   39.64    4.54
   8   7   5   34.08    3.13
   8   7   5   34.35    4.50
  -8  -7  -5   32.73    2.87
   8   7   6    5.70    3.14
   8   7   6    7.01    2.36
   8   7   6    4.12    3.14
  -8  -7  -6    9.89    2.29
   8   7   7   16.33    6.08
   8   7   7   19.16    5.01
   8   7   7   28.93    3.87
  -8  -7  -7   19.56    4.59
   8   7   8  103.40    5.84
   8   7   8  106.71    7.77
   8   7   8  113.45    6.00
  -8  -7  -8  102.37    5.18
   8   7   9   57.74    4.79
   8   7   9   60.54    7.24
   8   7   9   54.79    4.77
  -8  -7  -9   59.07    6.62
   8   7  10   43.46    4.31
   8   7  10   42.12    4.78
   8   7  10   50.26    4.55
  -8  -7 -10   43.29    4.32
   8   7  11   24.88    3.68
   8   7  11   23.34    4.41
   8   7  11   17.39    6.02
  -8  -7 -11   15.75    3.69
   8   8   1   -2.20    3.46
  -8  -8  -1   -0.44    2.77
   8   8   2   59.14    6.12
  -8  -8  -2   66.40    5.93
   8   8   3   43.46    4.68
   8   8   3   -1.00    4.02
  -8  -8  -3   35.26    5.08
   8   8   4   -1.63    2.94
   8   8   4   -0.39    2.78
   8   8   5   21.29    4.47
   8   8   5   26.50    4.51
   8   8   5   22.86    4.22
  -8  -8  -5   25.46    4.13
   8   8   6   25.25    3.15
   8   8   6   24.15    6.90
   8   8   6   23.97    6.58
  -8  -8  -6   23.91    2.83
   8   8   7   -1.42    2.07
   8   8   7    0.95    2.63
   8   8   7   -0.76    2.65
  -8  -8  -7    3.80    2.33
   8   8   8   65.08    7.06
   8   8   8   60.82    5.47
   8   8   8   60.82    8.28
  -8  -8  -8   63.71    6.59
   8   8   9  102.22    8.47
   8   8   9  106.09    6.42
   8   8   9  106.00    6.40
  -8  -8  -9   90.80    5.33
   9  -4  -2    0.19    3.06
   9  -4  -2    7.38    3.32
   9  -4  -2    7.35    5.81
  -9   4   2    4.87    2.83
   9  -4  -1    0.20    2.32
   9  -4  -1   -0.54    3.90
   9  -4  -1    0.45    2.60
  -9   4   1    1.87    2.72
   9  -4   0   -0.12    3.05
   9  -4   0    6.39    3.28
   9  -4   0    0.19    3.21
  -9   4   0    5.07    3.24
   9  -4   1    2.03    3.16
   9  -4   1    2.31    5.17
   9  -4   1    0.25    5.57
  -9   4  -1    1.65    4.77
   9  -4   2   67.65    6.26
   9  -4   2   70.67    6.49
   9  -4   2   70.98    6.51
  -9   4  -2   74.00    6.13
   9  -4   3   18.22    7.78
   9  -4   3   22.29    7.48
   9  -4   3   20.95    7.84
  -9   4  -3   17.25    4.55
   9  -3  -5   17.71    6.21
   9  -3  -5   13.56    3.86
   9  -3  -4   -0.04    4.84
   9  -3  -4    7.71    5.17
   9  -3  -4   15.62    5.75
   9  -3  -3    0.28    4.11
   9  -3  -3    3.72    2.91
   9  -3  -3    3.37    5.15
   9  -3  -2   20.92    3.73
   9  -3  -2   23.75    3.97
   9  -3  -2   21.03    4.34
   9  -3  -2   25.18    3.68
   9  -3  -1   -0.36    2.00
   9  -3  -1    0.91    2.26
   9  -3  -1   -0.20    2.20
  -9   3   1    3.14    2.64
   9  -3   0   75.03    8.28
   9  -3   0   75.95    5.86
   9  -3   0   71.95    6.19
  -9   3   0   68.92    5.19
   9  -3   1    9.76    5.82
   9  -3   1    9.75    3.94
   9  -3   1    5.70    6.46
  -9   3  -1    9.29    3.72
   9  -3   2   93.86    6.69
   9  -3   2   89.93    6.62
   9  -3   2   93.58    6.52
  -9   3  -2   86.98    6.14
   9  -3   3    3.07    3.39
   9  -3   3    1.38    3.15
   9  -3   3    1.08    3.09
  -9   3  -3    3.45    5.41
   9  -3   4   58.44    6.20
   9  -3   4   63.40    9.31
   9  -3   4   66.97    5.63
  -9   3  -4   56.52    5.52
   9  -3   5    2.48    5.81
   9  -3   5    2.50    3.43
  -9   3  -5    1.01    3.05
   9  -3   6    5.97    3.89
   9  -3   6    2.33    3.65
  -9   3  -6    2.94    3.37
  -9   3  -6    4.39    3.67
   9  -2  -6   47.59    3.89
   9  -2  -6   53.02    4.67
   9  -2  -6   48.89    3.74
   9  -2  -6   49.55    6.81
   9  -2  -5    1.59    2.22
   9  -2  -5    2.09    2.59
   9  -2  -5    1.85    2.43
   9  -2  -4    0.19    4.26
   9  -2  -4    6.90    2.77
   9  -2  -4    6.98    3.11
   9  -2  -3    0.48    3.61
   9  -2  -3    0.11    2.04
   9  -2  -3    2.50    3.74
   9  -2  -3    1.84    2.48
   9  -2  -2   -0.08    3.74
   9  -2  -2    1.32    2.39
   9  -2  -2    0.03    2.11
   9  -2  -2    0.75    2.28
   9  -2  -1    0.72    5.53
   9  -2  -1   14.70    3.38
   9  -2  -1    0.01    5.17
   9  -2  -1   16.08    3.69
   9  -2   0  186.53   11.03
   9  -2   0  190.00   11.33
   9  -2   0  186.02    8.14
   9  -2   0  187.94    7.86
   9  -2   1    9.43    3.56
   9  -2   1    8.68    3.63
   9  -2   1    9.24    3.63
  -9   2  -1    8.79    3.32
   9  -2   2    0.98    2.84
   9  -2   2    2.24    2.74
   9  -2   2    1.11    2.73
  -9   2  -2    0.47    2.35
   9  -2   3   13.94    3.96
   9  -2   3   15.65    5.91
  -9   2  -3   14.24    3.62
  -9   2  -3   12.13    5.83
   9  -2   4    0.99    4.11
   9  -2   4   -0.78    2.51
  -9   2  -4    0.96    2.37
  -9   2  -4   -0.52    2.50
   9  -2   5   72.73    5.80
   9  -2   5   80.01    5.95
  -9   2  -5   66.81    5.64
  -9   2  -5   68.63    5.70
   9  -2   6   21.98    4.50
   9  -2   6   20.37    7.09
  -9   2  -6   29.40    4.68
  -9   2  -6   27.27    4.77
   9  -2   7   33.03    8.32
   9  -2   7   34.10    4.98
  -9   2  -7   40.91    7.55
  -9   2  -7   30.31    5.24
   9  -2   8    0.09    3.40
   9  -2   8    2.77    3.10
  -9   2  -8    0.89    2.98
  -9   2  -8    1.29    3.12
   9  -1  -6   14.23    2.79
   9  -1  -6   14.39    2.69
   9  -1  -6   10.92    3.04
   9  -1  -6   11.14    4.51
   9  -1  -5    7.13    2.54
   9  -1  -5    2.96    2.67
   9  -1  -5    5.61    2.30
   9  -1  -5    5.39    2.49
   9  -1  -4    0.04    1.95
   9  -1  -4    0.04    1.84
   9  -1  -4    0.68    1.88
   9  -1  -4    2.09    3.37
   9  -1  -3   -0.51    4.25
   9  -1  -3   -0.09    4.02
   9  -1  -3    8.26    4.08
   9  -1  -3    9.57    4.31
   9  -1  -2  179.93    9.93
   9  -1  -2  177.46    7.15
   9  -1  -2  180.53    9.64
   9  -1  -2  170.59    9.88
   9  -1  -1   77.37    7.57
   9  -1  -1   73.08    5.10
   9  -1  -1   73.56    4.85
   9  -1  -1   67.26    4.96
   9  -1   0   60.36    4.83
   9  -1   0   57.84    6.71
   9  -1   0   56.10    7.08
   9  -1   0   54.33    4.51
   9  -1   1    2.37    2.89
   9  -1   1    4.04    2.69
   9  -1   1    3.92    2.66
   9  -1   1    5.42    2.72
   9  -1   2   -2.15    2.52
   9  -1   2   -2.32    4.02
   9  -1   2    0.78    2.40
  -9   1  -2    1.64    2.39
   9  -1   3    7.09    5.15
   9  -1   3    4.62    2.96
   9  -1   3    4.70    3.01
  -9   1  -3    4.15    2.88
   9  -1   4   27.28    4.40
   9  -1   4   26.28    4.14
  -9   1  -4   24.63    3.90
  -9   1  -4   17.64    3.95
   9  -1   5   33.64    4.61
   9  -1   5   28.56    6.94
  -9   1  -5   30.07    4.22
  -9   1  -5   32.20    4.44
   9  -1   6   19.99    7.01
   9  -1   6   25.76    4.18
  -9   1  -6   23.20    4.18
  -9   1  -6   23.85    4.17
   9  -1   7   21.30    4.52
   9  -1   7   28.93    4.31
  -9   1  -7   22.36    4.13
  -9   1  -7   26.02    4.23
   9  -1   8    6.87    5.72
   9  -1   8    5.72    3.55
  -9   1  -8    4.20    3.37
  -9   1  -8    5.85    3.25
   9  -1   9    5.53    3.72
   9  -1   9   10.21    3.78
  -9   1  -9    5.96    5.68
  -9   1  -9    7.75    3.44
   9  -1  10   -1.00    3.23
   9  -1  10   -2.51    5.25
  -9   1 -10    1.09    2.68
  -9   1 -10   -1.27    2.42
   9   0  -7    7.66    2.22
   9   0  -7    4.01    2.22
   9   0  -7    3.48    3.67
   9   0  -7    2.17    3.82
   9   0  -6    2.28    1.98
   9   0  -6    2.07    1.91
   9   0  -6   -1.56    1.84
   9   0  -6    1.13    2.02
   9   0  -5    4.52    2.12
   9   0  -5    0.10    2.15
   9   0  -5    5.17    2.06
   9   0  -5    0.30    2.31
   9   0  -4    0.31    1.92
   9   0  -4    1.34    1.83
   9   0  -4    1.21    2.96
   9   0  -4   -0.28    2.04
   9   0  -3  100.86    6.85
   9   0  -3   98.69    4.88
   9   0  -3  106.09    5.18
   9   0  -3   99.45    5.41
   9   0  -2   38.41    3.66
   9   0  -2   38.58    3.49
   9   0  -2   38.07    3.84
   9   0  -2   39.13    4.02
   9   0  -1    0.69    1.89
   9   0  -1    1.21    1.92
   9   0  -1   -0.01    3.28
   9   0  -1   -0.06    2.16
   9   0   0    2.77    2.49
   9   0   0    5.61    2.62
   9   0   0    3.23    2.43
   9   0   0    6.05    2.77
   9   0   1   48.66    4.01
   9   0   1   45.78    4.18
   9   0   1   47.90    4.47
  -9   0  -1   44.47    3.77
   9   0   2   48.69    6.46
   9   0   2   49.08    4.37
   9   0   2   58.20    7.21
  -9   0  -2   55.36    4.18
   9   0   3   50.49    4.79
   9   0   3   48.53    4.38
   9   0   3   48.55    4.34
  -9   0  -3   45.36    6.23
   9   0   4    0.92    3.00
   9   0   4    2.65    2.77
   9   0   4    6.97    2.86
  -9   0  -4    3.33    2.63
   9   0   5  116.55    9.61
   9   0   5  112.73    6.13
   9   0   5  122.67    9.00
  -9   0  -5  109.04    5.77
   9   0   6   26.73    4.26
   9   0   6   25.73    3.94
   9   0   6   23.55    4.03
  -9   0  -6   17.72    5.72
   9   0   7    8.86    5.50
   9   0   7    9.69    5.23
   9   0   7    4.40    3.21
  -9   0  -7    5.62    3.15
   9   0   8   -0.24    2.61
   9   0   8    1.00    2.53
   9   0   8    0.60    2.43
  -9   0  -8    2.51    3.01
   9   0   9    0.89    4.23
   9   0   9   -1.20    2.66
   9   0   9    1.68    2.43
  -9   0  -9    0.99    4.41
   9   0  10    0.46    5.06
   9   0  10    1.74    2.83
   9   0  10    0.98    2.82
  -9   0 -10   -0.01    2.14
   9   0  11   51.57    5.23
   9   0  11   55.81    5.23
   9   0  11   58.13    5.90
  -9   0 -11   42.62    5.33
   9   1  -6    4.44    3.93
   9   1  -6    7.09    2.57
   9   1  -5   41.44    3.25
   9   1  -5   44.37    3.16
   9   1  -5   49.48    3.90
   9   1  -5   46.11    3.96
   9   1  -4   22.12    2.66
   9   1  -4   25.13    3.21
   9   1  -4   14.72    4.19
   9   1  -4   21.37    3.39
   9   1  -3    9.92    2.19
   9   1  -3   -0.38    4.11
   9   1  -3    5.63    2.09
   9   1  -3    0.35    2.77
   9   1  -2    0.11    2.53
   9   1  -2    0.97    2.56
   9   1  -2    0.35    3.02
   9   1  -2   -0.15    1.97
   9   1  -1   63.12    5.58
   9   1  -1   55.87    4.30
   9   1  -1   57.24    5.34
   9   1  -1   54.81    4.55
   9   1   0   27.08    3.19
   9   1   0   30.35    3.67
   9   1   0   28.59    3.88
  -9  -1   0   22.78    2.88
   9   1   1   14.17    4.37
   9   1   1   13.35    3.27
   9   1   1   11.27    5.26
  -9  -1  -1   10.91    2.60
   9   1   2    1.57    2.13
   9   1   2    1.13    2.41
   9   1   2    1.15    2.53
  -9  -1  -2    2.62    2.19
   9   1   3   93.62    5.08
   9   1   3   96.18    5.54
   9   1   3   99.48    5.85
  -9  -1  -3   92.15    7.06
   9   1   4  244.21    8.23
   9   1   4  250.49    8.83
   9   1   4  251.18   12.26
  -9  -1  -4  233.49    7.92
   9   1   5   40.48    3.96
   9   1   5   38.02    4.25
   9   1   5   36.52    4.44
  -9  -1  -5   36.53    3.94
   9   1   6    1.62    2.42
   9   1   6    2.22    2.40
   9   1   6   -1.00    2.61
   9   1   7    3.07    3.08
   9   1   7    1.78    4.65
   9   1   7    6.03    4.54
  -9  -1  -7    4.39    2.78
   9   1   8    3.11    3.02
   9   1   8    1.56    2.97
   9   1   8    3.11    2.74
  -9  -1  -8   -1.75    4.32
   9   1   9   21.85    4.16
   9   1   9   26.05    3.95
   9   1   9   21.19    4.59
  -9  -1  -9   17.63    3.97
   9   1  10   51.30    8.18
   9   1  10   45.68    4.77
   9   1  10   47.62    5.55
  -9  -1 -10   44.22    5.06
   9   1  11   11.85    4.02
   9   1  11   11.46    3.67
   9   1  11   15.77    4.68
  -9  -1 -11   12.96    4.09
   9   2  -6   18.10    3.11
   9   2  -6   21.69    5.09
   9   2  -5   37.14    4.00
   9   2  -5   40.84    6.13
   9   2  -4   18.09    2.18
   9   2  -4   -0.12    3.12
   9   2  -4   19.17    3.20
   9   2  -4   12.79    3.57
   9   2  -3    4.10    1.69
   9   2  -3   -0.32    2.48
   9   2  -3    3.89    1.71
   9   2  -3   -0.05    2.55
   9   2  -2    4.34    1.75
   9   2  -2    0.65    2.38
   9   2  -2    1.75    2.80
   9   2  -2   -0.02    2.54
   9   2  -1    7.80    3.26
   9   2  -1    6.00    4.35
   9   2  -1    4.44    1.95
   9   2  -1    5.30    4.70
   9   2   0   25.52    2.88
   9   2   0   25.97    3.77
   9   2   0   35.67    6.09
  -9  -2   0   27.15    2.70
   9   2   1   28.44    3.08
   9   2   1   32.99    3.79
   9   2   1   35.67    4.02
  -9  -2  -1   23.68    4.38
   9   2   2   23.65    4.61
   9   2   2   23.41    3.67
   9   2   2   26.88    3.84
  -9  -2  -2    8.69    3.86
   9   2   3   21.95    3.08
   9   2   3   21.82    3.59
   9   2   3   23.00    5.97
  -9  -2  -3   22.00    4.55
   9   2   4    1.96    2.25
   9   2   4    2.78    2.58
   9   2   4    3.18    2.77
  -9  -2  -4    0.10    1.67
   9   2   5    8.81    2.92
   9   2   5    5.22    5.00
   9   2   5   11.00    3.16
  -9  -2  -5    7.18    2.66
   9   2   6   29.32    3.82
   9   2   6   32.64    3.93
   9   2   6   27.20    4.07
  -9  -2  -6   28.92    5.65
   9   2   7    1.37    2.69
   9   2   7    2.60    2.81
   9   2   7    4.00    4.36
  -9  -2  -7    3.47    2.65
   9   2   8    3.90    3.06
   9   2   8    2.62    3.09
   9   2   8    6.81    3.16
  -9  -2  -8    6.25    4.97
   9   2   9   73.70    5.49
   9   2   9   71.60    6.16
   9   2   9   84.80    8.78
  -9  -2  -9   84.57    5.93
   9   2  10    0.77    2.94
   9   2  10    1.79    2.77
   9   2  10    0.25    3.17
  -9  -2 -10   -0.99    2.97
   9   2  11  599.05   17.52
   9   2  11  615.30   17.11
   9   2  11  622.18   18.94
  -9  -2 -11  622.23   18.15
   9   2  12   32.23    7.33
   9   2  12   38.88    4.50
   9   2  12   32.64    8.82
  -9  -2 -12   32.11    8.06
   9   3  -5   -0.13    2.73
   9   3  -5    0.08    1.72
   9   3  -4   10.96    5.21
   9   3  -4   19.10    3.34
   9   3  -3   36.37    4.15
   9   3  -3   38.88    4.05
   9   3  -2   83.94    3.65
   9   3  -2   84.75    5.13
   9   3  -2   80.13    5.03
   9   3  -2   86.25    5.17
   9   3  -1   15.07    2.32
   9   3  -1   15.16    3.52
   9   3  -1   15.14    2.17
   9   3  -1   22.57    3.50
   9   3   0    0.15    1.56
   9   3   0    1.74    3.48
   9   3   0   -0.03    2.25
  -9  -3   0    1.02    2.57
   9   3   1  498.78   12.41
   9   3   1  509.24   14.07
   9   3   1  490.96   13.90
  -9  -3  -1  474.20   11.64
   9   3   2  242.12    7.54
   9   3   2  246.26   11.59
   9   3   2  242.30   12.07
  -9  -3  -2  221.93    6.83
   9   3   3   87.02    6.55
   9   3   3   97.73    5.54
   9   3   3   90.73    5.68
  -9  -3  -3   82.49    4.32
   9   3   4   35.45    6.12
   9   3   4   32.63    4.23
   9   3   4   32.86    3.43
  -9  -3  -4   31.04    3.11
   9   3   5    7.67    3.07
   9   3   5    8.12    3.29
   9   3   5    7.74    2.67
  -9  -3  -5    7.90    2.50
   9   3   6   10.28    3.31
   9   3   6   13.48    4.91
   9   3   6   10.31    3.52
  -9  -3  -6   10.44    2.74
   9   3   7  149.70    9.72
   9   3   7  154.23    6.89
   9   3   7  143.19    6.95
  -9  -3  -7  145.80    6.44
   9   3   8  250.16   12.20
   9   3   8  238.60   12.41
   9   3   8  235.39    9.26
  -9  -3  -8  201.83    7.79
   9   3   9  135.41    6.96
   9   3   9  133.78    7.15
   9   3   9  139.96    7.20
  -9  -3  -9  135.69    7.00
   9   3  10  131.49    6.90
   9   3  10  137.00   10.69
   9   3  10  140.81   10.07
  -9  -3 -10  135.94    7.23
   9   3  11   53.81    4.99
   9   3  11   60.61    5.86
   9   3  11   57.62    5.13
  -9  -3 -11   62.25    5.61
   9   3  12   10.62    3.65
   9   3  12    7.98    3.40
   9   3  12   14.08    6.94
  -9  -3 -12   13.27    6.65
   9   4  -4   26.96    3.69
   9   4  -4    0.15    5.63
   9   4  -3   15.38    3.28
   9   4  -3   -0.19    5.28
   9   4  -2   21.71    5.46
   9   4  -2    0.14    5.32
   9   4  -1   32.08    4.14
   9   4  -1   24.20    2.28
   9   4  -1   27.40    3.61
   9   4  -1   34.52    6.41
   9   4   0  194.43    8.02
   9   4   0  190.40    7.88
   9   4   0  183.41    7.41
  -9  -4   0  183.78    5.49
   9   4   1  243.44   11.96
   9   4   1  236.65    9.00
   9   4   1  236.09    8.74
  -9  -4  -1  223.70    8.05
   9   4   2   27.10    4.30
   9   4   2   40.12    4.26
   9   4   2   28.93    4.50
  -9  -4  -2   24.28    4.18
   9   4   3  102.75    8.64
   9   4   3  102.79    6.53
   9   4   3   97.44    8.69
  -9  -4  -3   93.31    4.17
   9   4   4   10.30    3.25
   9   4   4    8.92    2.61
   9   4   4   10.35    3.37
  -9  -4  -4    8.28    3.68
   9   4   5  101.80    5.83
   9   4   5   88.70    4.93
   9   4   5   91.60    5.80
  -9  -4  -5   87.51    6.52
   9   4   6   79.08    8.45
   9   4   6   83.09    4.85
   9   4   6   77.96    5.85
  -9  -4  -6   75.76    4.55
   9   4   7   29.35    4.28
   9   4   7   27.17    6.21
   9   4   7   31.23    4.43
  -9  -4  -7   20.90    3.52
   9   4   8   28.41    4.17
   9   4   8   27.89    4.17
   9   4   8   28.37    4.27
  -9  -4  -8   22.80    3.72
   9   4   9   37.66    4.26
   9   4   9   39.57    4.51
   9   4   9   21.00    6.88
  -9  -4  -9   34.45    6.52
   9   4  10    1.87    2.49
   9   4  10    0.34    2.89
   9   4  10    1.42    2.64
  -9  -4 -10    2.99    2.89
   9   4  11    0.09    2.96
   9   4  11    6.50    3.55
   9   4  11    8.77    3.13
  -9  -4 -11    8.39    3.61
   9   4  12    0.14    2.53
   9   4  12    3.21    5.21
   9   4  12    2.08    2.69
  -9  -4 -12    6.25    3.50
   9   5  -3   27.80    4.12
   9   5  -3   24.40    4.03
   9   5  -2    1.44    2.61
   9   5  -2    0.25    4.24
   9   5  -1    2.96    4.34
   9   5  -1   -0.09    4.38
   9   5   0    1.00    2.46
   9   5   0   -0.08    4.11
   9   5   1   27.39    4.25
   9   5   1   23.91    2.46
   9   5   1   21.84    4.20
  -9  -5  -1   23.63    3.46
   9   5   2   15.34    3.69
   9   5   2   16.12    2.36
   9   5   2    0.14    3.66
  -9  -5  -2   15.40    2.32
   9   5   3    1.74    2.52
   9   5   3    0.14    1.70
   9   5   3    0.32    2.61
  -9  -5  -3    0.82    1.63
   9   5   4    0.51    2.49
   9   5   4   -0.76    1.76
   9   5   4   -0.22    2.53
  -9  -5  -4   -0.96    1.75
   9   5   5  137.57   10.30
   9   5   5  126.07    5.65
   9   5   5  131.64    6.94
  -9  -5  -5  119.98    5.21
   9   5   6  235.48    8.93
   9   5   6  227.09    7.86
   9   5   6  209.79   11.97
  -9  -5  -6  219.34    7.40
   9   5   7   96.84    5.98
   9   5   7   93.43    5.44
   9   5   7   94.19    5.96
  -9  -5  -7   92.47    7.22
   9   5   8   55.38    5.02
   9   5   8   59.89    7.13
   9   5   8   58.72    7.92
  -9  -5  -8   52.51    4.31
   9   5   9   42.16    6.97
   9   5   9   36.70    4.47
   9   5   9   40.89    4.74
  -9  -5  -9   37.13    4.11
   9   5  10    8.42    5.40
   9   5  10   14.88    3.81
   9   5  10   11.64    3.71
  -9  -5 -10   11.84    3.33
   9   5  11   55.46    7.21
   9   5  11   60.85    8.65
   9   5  11   59.42    7.70
  -9  -5 -11   55.80    5.03
   9   6  -1   68.46    5.52
   9   6  -1   59.65    8.57
   9   6   0    0.33    2.34
   9   6   0   -0.53    3.86
   9   6   1   68.65    5.87
   9   6   1   76.95    5.83
   9   6   2   53.03    5.30
   9   6   2   53.15    5.37
  -9  -6  -2   51.22    3.04
   9   6   3  203.25    8.69
   9   6   3  187.18    8.23
   9   6   3  198.25    8.67
  -9  -6  -3  191.47    7.65
   9   6   4  196.26   12.27
   9   6   4  185.23    6.48
   9   6   4  184.61   11.66
  -9  -6  -4  179.41    7.73
   9   6   5    3.13    2.85
   9   6   5    0.08    2.03
   9   6   5    0.34    2.79
  -9  -6  -5    0.77    2.92
   9   6   6   15.53    4.07
   9   6   6   22.63    3.24
   9   6   6   13.76    6.30
  -9  -6  -6   16.58    4.52
   9   6   7   66.05    8.50
   9   6   7   75.92    4.86
   9   6   7   71.59    5.63
  -9  -6  -7   61.92    4.26
   9   6   8   68.59    7.90
   9   6   8   63.91    4.99
   9   6   8   61.59    8.26
  -9  -6  -8   58.76    6.44
   9   6   9   37.30    4.44
   9   6   9   40.41    7.05
   9   6   9   39.61    4.56
  -9  -6  -9   33.97    3.87
   9   6  10    0.17    3.33
   9   6  10   12.78    5.62
   9   6  10   14.85    3.55
  -9  -6 -10   12.30    5.27
   9   7   2   35.69    5.05
   9   7   2   26.79    4.96
   9   7   3   23.29    6.80
   9   7   3   -0.32    6.72
   9   7   4   13.31    4.20
   9   7   4   16.22    2.58
   9   7   4   13.83    4.23
  -9  -7  -4   12.99    2.41
   9   7   5   31.66    4.76
   9   7   5   27.15    4.98
   9   7   5   34.77    4.78
  -9  -7  -5   33.17    3.17
   9   7   6   15.19    6.22
   9   7   6   15.74    2.88
   9   7   6    4.14    6.38
  -9  -7  -6   15.33    2.84
   9   7   7    0.81    3.27
   9   7   7    7.28    2.55
   9   7   7    2.59    3.28
  -9  -7  -7   -0.75    3.12
   9   7   8    1.20    2.68
   9   7   8    1.35    2.29
   9   7   8   -0.95    4.58
  -9  -7  -8    1.34    2.17
  10  -2   1   95.66    6.65
  10  -2   1   96.11    6.84
  10  -2   1   93.79   10.26
  10  -2   1   92.95    9.60
  10  -2   2    9.64    6.55
  10  -2   2    9.68    4.05
  10  -2   2    8.78    4.07
  10  -2   2    7.70    3.95
  10  -1  -2  206.18   12.21
  10  -1  -2  202.96    8.38
  10  -1  -2  205.07    8.55
  10  -1  -1   37.93    4.69
  10  -1  -1   37.55    7.45
  10  -1  -1   31.43    4.59
  10  -1   0   72.46    8.56
  10  -1   0   69.89    8.47
  10  -1   0   64.58    5.41
  10  -1   0   65.99    8.26
  10  -1   1   57.56    8.64
  10  -1   1   60.36    5.27
  10  -1   1   60.62    5.16
  10  -1   1   52.69    7.95
  10  -1   2   -1.09    2.80
  10  -1   2    1.37    4.19
  10  -1   2    1.60    2.54
  10  -1   2    0.78    2.49
  10  -1   3    1.69    2.73
  10  -1   3   -0.53    2.53
  10  -1   3   -0.01    2.48
 -10   1  -3    1.17    2.62
  10  -1   4    0.63    3.06
  10  -1   4    1.17    4.49
  10  -1   4    0.60    4.41
 -10   1  -4    2.44    2.96
  10  -1   5    6.68    6.29
  10  -1   5    7.30    3.80
  10  -1   5    8.35    3.82
 -10   1  -5    7.65    3.73
  10  -1   6   -0.43    2.37
  10  -1   6    1.78    3.72
  10  -1   6   -0.36    2.39
 -10   1  -6   -0.14    4.12
  10   0  -3   67.92    5.25
  10   0  -3   51.80    4.64
  10   0  -3   65.43    7.63
  10   0  -2    0.26    2.81
  10   0  -2    1.21    2.42
  10   0  -2    0.82    2.57
  10   0  -2    1.83    2.39
  10   0  -1  135.83    6.99
  10   0  -1  124.29    6.47
  10   0  -1  128.58    6.39
  10   0  -1  129.98    6.65
  10   0   0   -0.42    3.32
  10   0   0    7.75    4.70
  10   0   0   -0.04    5.00
  10   0   0    9.37    2.95
  10   0   1    3.82    3.24
  10   0   1    4.38    2.84
  10   0   1    2.62    3.00
  10   0   1    5.01    2.77
  10   0   2    1.36    2.93
  10   0   2    0.65    2.57
  10   0   2    4.40    4.37
 -10   0  -2    0.32    2.13
  10   0   3   25.80    7.34
  10   0   3   24.16    4.06
  10   0   3   24.26    4.18
 -10   0  -3   21.65    6.08
  10   0   4    1.92    2.86
  10   0   4   -0.32    2.53
  10   0   4    0.71    2.61
 -10   0  -4    1.70    2.75
  10   0   5    9.69    3.85
  10   0   5    5.72    3.43
  10   0   5    6.62    5.65
 -10   0  -5    7.60    3.40
  10   0   6   18.25    7.43
  10   0   6   24.95    4.31
  10   0   6   26.88    4.53
 -10   0  -6   16.53    4.04
  10   0   7    1.49    3.47
  10   0   7    3.14    3.19
  10   0   7    0.84    3.15
 -10   0  -7    1.04    2.86
  10   1  -3  140.78    6.07
  10   1  -3  149.17    6.80
  10   1  -3  144.75    7.07
  10   1  -2    0.19    1.72
  10   1  -2   -0.49    2.06
  10   1  -2   -0.04    2.15
  10   1  -1   38.21    5.59
  10   1  -1   40.15    6.73
  10   1  -1   36.31    3.68
  10   1  -1   38.33    4.57
  10   1   0    6.02    2.61
  10   1   0    4.98    2.90
  10   1   0    3.50    2.45
  10   1   0    3.69    3.15
  10   1   1    2.42    2.46
  10   1   1    1.84    4.59
  10   1   1    3.88    4.83
 -10  -1  -1    1.27    2.17
  10   1   2    1.66    3.26
  10   1   2   -0.81    2.32
  10   1   2    1.18    3.95
 -10  -1  -2   -2.49    3.97
  10   1   3   23.34    3.66
  10   1   3   24.56    6.58
  10   1   3   25.58    4.37
 -10  -1  -3   20.30    5.57
  10   1   4    2.22    2.86
  10   1   4    3.28    3.17
  10   1   4    6.16    3.33
 -10  -1  -4    0.66    2.30
  10   1   5    0.64    4.79
  10   1   5    1.75    2.55
  10   1   5   -0.05    2.73
 -10  -1  -5   -1.80    2.62
  10   1   6   37.04    5.41
  10   1   6   44.74    4.81
  10   1   6   50.06    7.56
 -10  -1  -6   35.72    4.52
  10   1   7    8.15    3.90
  10   1   7    4.35    3.69
  10   1   7    6.66    3.51
 -10  -1  -7    9.59    3.81
  10   1   8    3.25    3.58
  10   1   8    3.19    3.57
  10   1   8    3.61    3.29
 -10  -1  -8    2.65    3.43
  10   2  -3   14.28    2.49
  10   2  -3   -0.24    5.77
  10   2  -2   15.99    2.74
  10   2  -2   26.50    3.82
  10   2  -2    0.46    6.04
  10   2  -1   13.20    2.49
  10   2  -1    0.29    3.22
  10   2  -1    0.20    5.51
  10   2   0    6.74    3.67
  10   2   0    2.78    2.98
  10   2   0    2.97    2.06
  10   2   0    2.35    3.11
  10   2   1   88.66    6.86
  10   2   1   88.91    5.79
  10   2   1   83.62    6.04
 -10  -2  -1   81.22    4.42
  10   2   2    0.96    2.31
  10   2   2    2.42    2.74
  10   2   2    2.57    3.07
 -10  -2  -2    1.36    2.22
  10   2   3   23.91    3.60
  10   2   3   28.31    4.28
  10   2   3   28.26    7.21
 -10  -2  -3   23.26    3.39
  10   2   4    2.22    4.01
  10   2   4    0.34    4.57
  10   2   4    0.93    2.99
 -10  -2  -4    1.82    2.40
  10   2   5   69.64    5.44
  10   2   5   73.03    5.78
  10   2   5   72.37    5.85
 -10  -2  -5   72.70    7.63
  10   2   6   16.62    6.16
  10   2   6   17.37    4.17
  10   2   6   15.02    6.97
 -10  -2  -6   20.69    3.91
  10   2   7   40.94    7.55
  10   2   7   37.37    4.77
  10   2   7   39.21    5.13
 -10  -2  -7   28.48    6.78
  10   2   8   21.13    6.95
  10   2   8   21.15    4.55
  10   2   8   26.18    7.41
 -10  -2  -8   25.69    4.34
  10   2   9    6.28    3.94
  10   2   9    6.63    3.64
  10   2   9    5.27    3.86
 -10  -2  -9    3.16    5.31
  10   3  -2    0.31    2.18
  10   3  -2    0.01    2.35
  10   3  -1   19.04    2.70
  10   3  -1   -0.14    6.38
  10   3  -1   22.59    4.00
  10   3   0   24.97    3.06
  10   3   0   31.07    4.29
  10   3   0   21.14    4.42
  10   3   1    8.38    3.88
  10   3   1    4.05    3.32
  10   3   1    4.40    5.66
 -10  -3  -1    9.98    4.00
  10   3   2   21.68    3.95
  10   3   2   12.04    4.09
  10   3   2   10.93    4.80
 -10  -3  -2    8.71    2.66
  10   3   3   55.24    5.30
  10   3   3   51.74    5.45
  10   3   3   56.67    4.31
 -10  -3  -3   52.12    3.96
  10   3   4   74.34    5.64
  10   3   4   73.40    6.00
  10   3   4   66.16    4.82
 -10  -3  -4   69.43    6.93
  10   3   5    7.72    6.01
  10   3   5    9.82    3.95
  10   3   5    9.36    5.11
 -10  -3  -5    9.31    3.07
  10   3   6   34.11    4.54
  10   3   6   27.91    4.09
  10   3   6   25.01    4.90
 -10  -3  -6   28.99    3.85
  10   3   7    3.38    3.51
  10   3   7    8.84    3.37
  10   3   7    8.57    6.02
 -10  -3  -7    5.96    4.98
  10   3   8    2.00    3.05
  10   3   8    1.87    4.89
  10   3   8    2.40    3.26
 -10  -3  -8    2.92    2.93
  10   3   9   32.42    4.68
  10   3   9   28.51    4.92
  10   3   9   28.81    7.80
 -10  -3  -9   32.29    4.44
  10   4   0    0.08    2.54
  10   4   0    0.47    2.59
  10   4   0    0.86    2.57
  10   4   1   63.46    5.62
  10   4   1   61.88    5.71
  10   4   1   60.40    5.59
 -10  -4  -1   60.38    3.85
  10   4   2   48.73    5.35
  10   4   2   38.75    5.58
  10   4   2   45.92    8.12
 -10  -4  -2   37.22    3.40
  10   4   3   70.95    5.89
  10   4   3   60.91    6.42
  10   4   3   66.65    6.04
 -10  -4  -3   51.41    3.88
  10   4   4    3.07    5.41
  10   4   4    4.52    2.56
  10   4   4    4.97    3.70
 -10  -4  -4    3.35    2.43
  10   4   5    2.75    3.07
  10   4   5    1.93    2.45
  10   4   5   -0.71    5.31
 -10  -4  -5   -0.42    1.99
  10   4   6    2.51    3.35
  10   4   6    5.77    2.83
  10   4   6    5.78    3.59
 -10  -4  -6    3.54    4.13
  10   4   7   36.29    7.33
  10   4   7   30.98    6.88
  10   4   7   39.71    5.12
 -10  -4  -7   32.11    3.96
  10   4   8   17.33    4.24
  10   4   8   23.96    4.20
  10   4   8   18.81    4.49
 -10  -4  -8   20.92    6.04
  10   5   2   19.92    4.93
  10   5   2   24.56    2.98
  10   5   2   25.18    4.69
 -10  -5  -2   26.55    4.47
  10   5   3    0.70    2.11
  10   5   3    0.30    1.43
  10   5   3   -3.44    3.36
 -10  -5  -3    3.06    3.54
  10   5   4  106.91    6.88
  10   5   4   98.33    5.20
  10   5   4  101.68    6.76
  10   5   5   52.26    8.19
  10   5   5   44.31    4.11
  10   5   5   42.98    5.20
 -10  -5  -5   38.92    5.68
  10   5   6   -0.72    2.66
  10   5   6    0.48    2.04
  10   5   6   -0.79    2.69
 -10  -5  -6   -0.20    1.86
  10   5   7   81.55    6.41
  10   5   7   85.06    5.40
  10   5   7   79.53    6.53
 -10  -5  -7   67.75    4.89
;
_shelx_hkl_checksum              29286
_shelx_res_file
;
TITL 10041210
CELL  0.71075 7.59160 7.76073 13.04560 74.836 80.174 80.364
ZERR  2 0.00023 0.00026 0.00037 0.001 0.001 0.001
LATT 1
SFAC C H O N CL
UNIT 32 22 8 4 2
SHEL 99999.000000 0.000000
OMIT     2   1   1
OMIT    -2   1   3
OMIT     4  -1   5
OMIT     1   1   7
OMIT     0   3   4
OMIT     2   0   2
OMIT     0   1   3
L.S. 20
FMAP 2
PLAN -28
WPDB -2
HTAB
BOND $H
CONF
LIST 4
TEMP -83.0
ACTA
SIZE 0.390 0.320 0.230
WGHT    0.069900    0.126000
FVAR       1.46162
CL1   5    0.893041    0.832716    0.989412    11.00000    0.05833    0.04930 =
         0.03860   -0.01675   -0.00558   -0.02822
O1    3    0.491555    0.480770    0.692707    11.00000    0.03120    0.04857 =
         0.03412   -0.01660   -0.00418   -0.01195
O2    3    0.256491    0.509874    0.819713    11.00000    0.02598    0.06259 =
         0.04279   -0.01547   -0.00219   -0.01250
O3    3    0.787359    0.254078    0.806572    11.00000    0.06477    0.03201 =
         0.05751   -0.01866   -0.01386    0.00250
O4    3    0.910336    0.461768    0.683166    11.00000    0.03417    0.06699 =
         0.04590   -0.03109    0.00577   -0.01056
N1    4    0.812822    0.409536    0.766672    11.00000    0.02732    0.03765 =
         0.03858   -0.01848   -0.00865    0.00042
N2    4    0.319897    0.268092    0.636935    11.00000    0.02506    0.03611 =
         0.03646   -0.01458   -0.00510   -0.00365
C1    1    0.536275    0.583842    0.839818    11.00000    0.02553    0.02503 =
         0.02499   -0.00443   -0.00374   -0.00442
C2    1    0.723358    0.543070    0.827311    11.00000    0.02603    0.02651 =
         0.02578   -0.00849   -0.00289   -0.00397
C3    1    0.836713    0.615817    0.872136    11.00000    0.02780    0.03396 =
         0.02863   -0.00905   -0.00395   -0.00854
AFIX  43
H3    2    0.963949    0.586152    0.860789    11.00000   -1.20000
AFIX   0
C4    1    0.755169    0.734297    0.934505    11.00000    0.04043    0.02853 =
         0.02805   -0.00777   -0.00547   -0.01312
C5    1    0.569302    0.774360    0.953674    11.00000    0.04356    0.02741 =
         0.03169   -0.01144   -0.00243   -0.00416
AFIX  43
H5    2    0.516575    0.852183    0.999154    11.00000   -1.20000
AFIX   0
C6    1    0.461229    0.699724    0.905815    11.00000    0.02951    0.02866 =
         0.02983   -0.00696   -0.00209   -0.00130
AFIX  43
H6    2    0.333935    0.728054    0.918222    11.00000   -1.20000
AFIX   0
C7    1    0.415837    0.518059    0.781023    11.00000    0.02568    0.02890 =
         0.03042   -0.00448   -0.00703   -0.00611
C8    1    0.249743    0.140320    0.719972    11.00000    0.03188    0.04816 =
         0.02866   -0.01333   -0.00287   -0.00395
AFIX  43
H8    2    0.236783    0.155051    0.791025    11.00000   -1.20000
AFIX   0
C9    1    0.198246   -0.007412    0.702527    11.00000    0.03106    0.04169 =
         0.02743   -0.00284   -0.00137   -0.00737
AFIX  43
H9    2    0.149701   -0.095677    0.761027    11.00000   -1.20000
AFIX   0
C10   1    0.217054   -0.029545    0.597083    11.00000    0.02200    0.03075 =
         0.03090   -0.00524   -0.00537   -0.00209
C11   1    0.170733   -0.181696    0.572481    11.00000    0.02960    0.03115 =
         0.04905   -0.00822   -0.00982   -0.00391
AFIX  43
H11   2    0.125663   -0.276052    0.628226    11.00000   -1.20000
AFIX   0
C12   1    0.191012   -0.192461    0.468416    11.00000    0.03494    0.03907 =
         0.06016   -0.02473   -0.01748    0.00204
AFIX  43
H12   2    0.158552   -0.294644    0.452436    11.00000   -1.20000
AFIX   0
C13   1    0.259027   -0.055519    0.383919    11.00000    0.03597    0.05275 =
         0.03809   -0.02266   -0.01282    0.00523
AFIX  43
H13   2    0.271880   -0.066441    0.312084    11.00000   -1.20000
AFIX   0
C14   1    0.306291    0.092022    0.404718    11.00000    0.02984    0.04296 =
         0.02777   -0.00799   -0.00625    0.00018
AFIX  43
H14   2    0.352763    0.183940    0.347794    11.00000   -1.20000
AFIX   0
C15   1    0.285664    0.107469    0.511862    11.00000    0.02065    0.03125 =
         0.02671   -0.00631   -0.00477   -0.00121
C16   1    0.336455    0.255788    0.536818    11.00000    0.02277    0.03277 =
         0.03233   -0.00684   -0.00439   -0.00355
AFIX  43
H16   2    0.383435    0.348645    0.480771    11.00000   -1.20000
AFIX   0
H2    2    0.369364    0.354192    0.654549    11.00000    0.06040
HKLF 4
REM  10041210
REM R1 =  0.0392 for    3559 Fo > 4sig(Fo)  and  0.0455 for all    4224 data
REM    212 parameters refined using      0 restraints
END
WGHT      0.0699      0.1260
REM Instructions for potential hydrogen bonds
EQIV $1 x+1, y, z
HTAB C3 O2_$1
EQIV $2 -x+1, -y+1, -z+2
HTAB C8 Cl1_$2
EQIV $3 -x+1, -y+1, -z+1
HTAB C16 O1_$3
HTAB N2 O1
REM Highest difference peak  0.415,  deepest hole -0.161,  1-sigma level  0.057
Q1    1   0.4784  0.5444  0.8175  11.00000  0.05    0.41
Q2    1   0.2103 -0.0043  0.6433  11.00000  0.05    0.40
Q3    1   0.2533  0.0344  0.5528  11.00000  0.05    0.39
Q4    1   0.3064  0.1761  0.5201  11.00000  0.05    0.39
Q5    1   0.2961  0.1086  0.4624  11.00000  0.05    0.38
Q6    1   0.6265  0.5560  0.8330  11.00000  0.05    0.38
Q7    1   0.6604  0.7759  0.9237  11.00000  0.05    0.37
Q8    1   0.7744  0.6005  0.8442  11.00000  0.05    0.37
Q9    1   0.7897  0.6764  0.9013  11.00000  0.05    0.36
Q10   1   0.2605  0.0195  0.3999  11.00000  0.05    0.36
Q11   1   0.5078  0.6318  0.8744  11.00000  0.05    0.35
Q12   1   0.7672  0.4787  0.7981  11.00000  0.05    0.35
Q13   1   0.2200 -0.1031  0.4343  11.00000  0.05    0.35
Q14   1   0.5235  0.7417  0.9204  11.00000  0.05    0.31
Q15   1   0.1874 -0.0943  0.5898  11.00000  0.05    0.31
Q16   1   0.8229  0.7865  0.9598  11.00000  0.05    0.30
Q17   1   0.1787 -0.1865  0.5174  11.00000  0.05    0.29
Q18   1   0.2538  0.0547  0.7050  11.00000  0.05    0.29
Q19   1   0.2924  0.1879  0.6775  11.00000  0.05    0.27
Q20   1   0.3410  0.2403  0.5947  11.00000  0.05    0.27
Q21   1   0.4924  0.4036  0.7368  11.00000  0.05    0.24
Q22   1   0.8334  0.2141  0.7650  11.00000  0.05    0.23
Q23   1   0.7872  0.3233  0.7835  11.00000  0.05    0.22
Q24   1   0.9487  0.7486  0.9651  11.00000  0.05    0.22
Q25   1   0.4555  0.5230  0.7200  11.00000  0.05    0.21
Q26   1   0.4363  0.4178  0.6773  11.00000  0.05    0.20
Q27   1   0.9574  0.8006  0.9412  11.00000  0.05    0.19
Q28   1   0.8330  0.8938  1.0327  11.00000  0.05    0.19
;
_shelx_res_checksum              68269
_shelxl_version_number           2.014
#END Tags that were not found in dictionaries
loop_
_symmetry_equiv_pos_site_id
_symmetry_equiv_pos_as_xyz
1 +X,+Y,+Z
2 -X,-Y,-Z
loop_
_atom_site_type_symbol
_atom_site_label
_atom_site_fract_x
_atom_site_fract_y
_atom_site_fract_z
_atom_site_U_iso_or_equiv
_atom_site_adp_type
_atom_site_calc_flag
_atom_site_occupancy
Cl Cl1 0.89304(5) 0.83272(5) 0.98941(3) 0.04513(12) Uani d 1
O O1 0.49156(12) 0.48077(13) 0.69271(7) 0.0359(2) Uani d 1
O O2 0.25649(12) 0.50987(15) 0.81971(8) 0.0427(2) Uani d 1
O O3 0.78736(17) 0.25408(13) 0.80657(10) 0.0503(3) Uani d 1
O O4 0.91034(13) 0.46177(16) 0.68317(9) 0.0465(3) Uani d 1
N N1 0.81282(13) 0.40954(14) 0.76667(9) 0.0328(2) Uani d 1
N N2 0.31990(13) 0.26809(14) 0.63693(8) 0.0313(2) Uani d 1
C C1 0.53627(14) 0.58384(14) 0.83982(8) 0.0253(2) Uani d 1
C C2 0.72336(14) 0.54307(14) 0.82731(8) 0.0257(2) Uani d 1
C C3 0.83671(15) 0.61582(16) 0.87214(9) 0.0293(2) Uani d 1
H H3 0.9639 0.5862 0.8608 0.035 Uiso calc 1
C C4 0.75517(17) 0.73430(15) 0.93451(9) 0.0310(2) Uani d 1
C C5 0.56930(18) 0.77436(16) 0.95367(10) 0.0338(2) Uani d 1
H H5 0.5166 0.8522 0.9992 0.041 Uiso calc 1
C C6 0.46123(16) 0.69972(15) 0.90582(9) 0.0299(2) Uani d 1
H H6 0.3339 0.7281 0.9182 0.036 Uiso calc 1
C C7 0.41584(15) 0.51806(15) 0.78102(9) 0.0281(2) Uani d 1
C C8 0.24974(17) 0.14032(19) 0.71997(10) 0.0357(3) Uani d 1
H H8 0.2368 0.1551 0.7910 0.043 Uiso calc 1
C C9 0.19825(16) -0.00741(18) 0.70253(10) 0.0344(2) Uani d 1
H H9 0.1497 -0.0957 0.7610 0.041 Uiso calc 1
C C10 0.21705(14) -0.02954(15) 0.59708(9) 0.0282(2) Uani d 1
C C11 0.17073(17) -0.18170(17) 0.57248(12) 0.0363(3) Uani d 1
H H11 0.1257 -0.2761 0.6282 0.044 Uiso calc 1
C C12 0.19101(18) -0.19246(19) 0.46842(13) 0.0417(3) Uani d 1
H H12 0.1586 -0.2946 0.4524 0.050 Uiso calc 1
C C13 0.25903(18) -0.0555(2) 0.38392(11) 0.0404(3) Uani d 1
H H13 0.2719 -0.0664 0.3121 0.048 Uiso calc 1
C C14 0.30629(16) 0.09202(18) 0.40472(9) 0.0339(2) Uani d 1
H H14 0.3528 0.1839 0.3478 0.041 Uiso calc 1
C C15 0.28566(14) 0.10747(15) 0.51186(9) 0.0264(2) Uani d 1
C C16 0.33645(15) 0.25579(16) 0.53682(9) 0.0294(2) Uani d 1
H H16 0.3834 0.3486 0.4808 0.035 Uiso calc 1
H H2 0.369(3) 0.354(3) 0.6545(17) 0.060(6) Uiso d 1
loop_
_atom_site_aniso_label
_atom_site_aniso_U_11
_atom_site_aniso_U_22
_atom_site_aniso_U_33
_atom_site_aniso_U_12
_atom_site_aniso_U_13
_atom_site_aniso_U_23
Cl1 0.0583(2) 0.0493(2) 0.03860(18) -0.02822(16) -0.00558(14) -0.01675(14)
O1 0.0312(4) 0.0486(5) 0.0341(4) -0.0119(4) -0.0042(3) -0.0166(4)
O2 0.0260(4) 0.0626(6) 0.0428(5) -0.0125(4) -0.0022(3) -0.0155(4)
O3 0.0648(7) 0.0320(5) 0.0575(6) 0.0025(4) -0.0139(5) -0.0187(4)
O4 0.0342(5) 0.0670(7) 0.0459(5) -0.0106(4) 0.0058(4) -0.0311(5)
N1 0.0273(4) 0.0377(5) 0.0386(5) 0.0004(4) -0.0087(4) -0.0185(4)
N2 0.0251(4) 0.0361(5) 0.0365(5) -0.0036(4) -0.0051(4) -0.0146(4)
C1 0.0255(5) 0.0250(5) 0.0250(5) -0.0044(4) -0.0037(4) -0.0044(4)
C2 0.0260(5) 0.0265(5) 0.0258(5) -0.0040(4) -0.0029(4) -0.0085(4)
C3 0.0278(5) 0.0340(5) 0.0286(5) -0.0085(4) -0.0039(4) -0.0090(4)
C4 0.0404(6) 0.0285(5) 0.0281(5) -0.0131(4) -0.0055(4) -0.0078(4)
C5 0.0436(6) 0.0274(5) 0.0317(5) -0.0042(4) -0.0024(5) -0.0114(4)
C6 0.0295(5) 0.0287(5) 0.0298(5) -0.0013(4) -0.0021(4) -0.0070(4)
C7 0.0257(5) 0.0289(5) 0.0304(5) -0.0061(4) -0.0070(4) -0.0045(4)
C8 0.0319(6) 0.0482(7) 0.0287(5) -0.0040(5) -0.0029(4) -0.0133(5)
C9 0.0311(5) 0.0417(6) 0.0274(5) -0.0074(5) -0.0014(4) -0.0028(4)
C10 0.0220(5) 0.0308(5) 0.0309(5) -0.0021(4) -0.0054(4) -0.0052(4)
C11 0.0296(5) 0.0312(5) 0.0491(7) -0.0039(4) -0.0098(5) -0.0082(5)
C12 0.0349(6) 0.0391(6) 0.0602(8) 0.0020(5) -0.0175(6) -0.0247(6)
C13 0.0360(6) 0.0527(8) 0.0381(6) 0.0052(5) -0.0128(5) -0.0227(6)
C14 0.0298(5) 0.0430(6) 0.0278(5) 0.0002(5) -0.0062(4) -0.0080(4)
C15 0.0207(4) 0.0313(5) 0.0267(5) -0.0012(4) -0.0048(4) -0.0063(4)
C16 0.0228(5) 0.0328(5) 0.0323(5) -0.0035(4) -0.0044(4) -0.0068(4)
loop_
_atom_type_symbol
_atom_type_description
_atom_type_scat_dispersion_real
_atom_type_scat_dispersion_imag
_atom_type_scat_source
C C 0.0033 0.0016
;
International Tables for Crystallography
(1992, Vol. C, Tables 4.2.6.8 and 6.1.1.4)
;
H H 0.0000 0.0000
;
International Tables for Crystallography
(1992, Vol. C, Table 6.1.1.4)
;
O O 0.0106 0.0060
;
International Tables for Crystallography
(1992, Vol. C, Tables 4.2.6.8 and 6.1.1.4)
;
N N 0.0061 0.0033
;
International Tables for Crystallography
(1992, Vol. C, Tables 4.2.6.8 and 6.1.1.4)
;
Cl Cl 0.1484 0.1585
;
International Tables for Crystallography
(1992, Vol. C, Tables 4.2.6.8 and 6.1.1.4)
;
loop_
_geom_angle_atom_site_label_1
_geom_angle_atom_site_label_2
_geom_angle_atom_site_label_3
_geom_angle
O3 N1 O4 125.41(11)
O3 N1 C2 116.47(10)
O4 N1 C2 118.08(10)
C16 N2 C8 121.77(11)
C16 N2 H2 121.1(13)
C8 N2 H2 116.6(13)
C6 C1 C2 116.80(10)
C6 C1 C7 119.68(10)
C2 C1 C7 123.42(10)
C3 C2 C1 124.21(10)
C3 C2 N1 115.37(9)
C1 C2 N1 120.38(9)
C2 C3 C4 116.52(10)
C2 C3 H3 121.7
C4 C3 H3 121.7
C3 C4 C5 121.97(10)
C3 C4 Cl1 117.91(9)
C5 C4 Cl1 120.12(9)
C6 C5 C4 119.35(11)
C6 C5 H5 120.3
C4 C5 H5 120.3
C5 C6 C1 121.06(11)
C5 C6 H6 119.5
C1 C6 H6 119.5
O2 C7 O1 126.47(11)
O2 C7 C1 118.47(11)
O1 C7 C1 115.02(9)
C9 C8 N2 120.89(11)
C9 C8 H8 119.6
N2 C8 H8 119.6
C8 C9 C10 119.69(11)
C8 C9 H9 120.2
C10 C9 H9 120.2
C9 C10 C11 123.14(11)
C9 C10 C15 118.36(11)
C11 C10 C15 118.50(11)
C12 C11 C10 119.70(12)
C12 C11 H11 120.2
C10 C11 H11 120.2
C11 C12 C13 121.55(12)
C11 C12 H12 119.2
C13 C12 H12 119.2
C14 C13 C12 120.33(12)
C14 C13 H13 119.8
C12 C13 H13 119.8
C13 C14 C15 119.39(12)
C13 C14 H14 120.3
C15 C14 H14 120.3
C16 C15 C14 121.11(11)
C16 C15 C10 118.34(10)
C14 C15 C10 120.53(11)
N2 C16 C15 120.90(11)
N2 C16 H16 119.6
C15 C16 H16 119.6
loop_
_geom_bond_atom_site_label_1
_geom_bond_atom_site_label_2
_geom_bond_distance
Cl1 C4 1.7326(12)
O1 C7 1.2784(15)
O2 C7 1.2340(14)
O3 N1 1.2162(15)
O4 N1 1.2220(15)
N1 C2 1.4734(14)
N2 C16 1.3176(16)
N2 C8 1.3632(17)
N2 H2 0.91(2)
C1 C6 1.3931(15)
C1 C2 1.3933(15)
C1 C7 1.5118(15)
C2 C3 1.3814(15)
C3 C4 1.3855(16)
C3 H3 0.9500
C4 C5 1.3869(18)
C5 C6 1.3862(17)
C5 H5 0.9500
C6 H6 0.9500
C8 C9 1.3550(19)
C8 H8 0.9500
C9 C10 1.4108(17)
C9 H9 0.9500
C10 C11 1.4131(17)
C10 C15 1.4168(15)
C11 C12 1.363(2)
C11 H11 0.9500
C12 C13 1.410(2)
C12 H12 0.9500
C13 C14 1.3590(19)
C13 H13 0.9500
C14 C15 1.4140(16)
C14 H14 0.9500
C15 C16 1.4025(16)
C16 H16 0.9500
loop_
_geom_hbond_atom_site_label_D
_geom_hbond_atom_site_label_H
_geom_hbond_atom_site_label_A
_geom_hbond_site_symmetry_A
_geom_hbond_distance_DH
_geom_hbond_distance_HA
_geom_hbond_distance_DA
_geom_hbond_angle_DHA
_geom_hbond_publ_flag
N2 H2 O1 . 0.91(2) 1.67(2) 2.5738(14) 169(2) y
C3 H3 O2 1_655 0.95 2.21 3.1580(15) 174 y
C13 H13 O3 2_656 0.95 2.52 3.3405(19) 145 y
C16 H16 O1 2_666 0.95 2.43 3.3477(15) 163 y
loop_
_geom_torsion_atom_site_label_1
_geom_torsion_atom_site_label_2
_geom_torsion_atom_site_label_3
_geom_torsion_atom_site_label_4
_geom_torsion
C6 C1 C2 C3 -2.85(16)
C7 C1 C2 C3 173.44(10)
C6 C1 C2 N1 174.65(10)
C7 C1 C2 N1 -9.05(16)
O3 N1 C2 C3 110.00(12)
O4 N1 C2 C3 -67.61(14)
O3 N1 C2 C1 -67.71(14)
O4 N1 C2 C1 114.67(12)
C1 C2 C3 C4 1.06(17)
N1 C2 C3 C4 -176.56(10)
C2 C3 C4 C5 1.76(17)
C2 C3 C4 Cl1 -178.43(8)
C3 C4 C5 C6 -2.62(18)
Cl1 C4 C5 C6 177.57(9)
C4 C5 C6 C1 0.69(18)
C2 C1 C6 C5 1.91(16)
C7 C1 C6 C5 -174.53(10)
C6 C1 C7 O2 -26.60(16)
C2 C1 C7 O2 157.21(11)
C6 C1 C7 O1 151.51(11)
C2 C1 C7 O1 -24.68(15)
C16 N2 C8 C9 1.66(18)
N2 C8 C9 C10 -0.10(19)
C8 C9 C10 C11 178.39(11)
C8 C9 C10 C15 -1.62(17)
C9 C10 C11 C12 179.31(11)
C15 C10 C11 C12 -0.68(17)
C10 C11 C12 C13 0.57(19)
C11 C12 C13 C14 -0.04(19)
C12 C13 C14 C15 -0.36(19)
C13 C14 C15 C16 178.64(11)
C13 C14 C15 C10 0.24(17)
C9 C10 C15 C16 1.85(15)
C11 C10 C15 C16 -178.16(10)
C9 C10 C15 C14 -179.71(10)
C11 C10 C15 C14 0.28(16)
C8 N2 C16 C15 -1.40(17)
C14 C15 C16 N2 -178.81(10)
C10 C15 C16 N2 -0.38(16)
