#------------------------------------------------------------------------------
#$Date: 2016-02-21 11:56:54 +0200 (Sun, 21 Feb 2016) $
#$Revision: 176809 $
#$URL: svn://www.crystallography.net/cod/cif/2/24/02/2240205.cif $
#------------------------------------------------------------------------------
#
# This file is available in the Crystallography Open Database (COD),
# http://www.crystallography.net/. The original data for this entry
# were provided by IUCr Journals, http://journals.iucr.org/.
#
# The file may be used within the scientific community so long as
# proper attribution is given to the journal article from which the
# data were obtained.
#
data_2240205
loop_
_publ_author_name
'Hennings, Erik'
'Schmidt, Horst'
'Voigt, Wolfgang'
_publ_section_title
;
 Crystal structures of Sr(ClO~4~)~2~&#x00B7;3H~2~O,
 Sr(ClO~4~)~2~&#x00B7;4H~2~O and Sr(ClO~4~)~2~&#x00B7;9H~2~O
;
_journal_issue                   12
_journal_name_full               'Acta Crystallographica Section E'
_journal_page_first              510
_journal_page_last               514
_journal_paper_doi               10.1107/S1600536814024726
_journal_volume                  70
_journal_year                    2014
_chemical_formula_iupac          '[Sr (Cl O4)2 (H2 O)4]'
_chemical_formula_moiety         '2(Cl O4), 4(H2 O), Sr'
_chemical_formula_sum            'Cl2 H8 O12 Sr'
_chemical_formula_weight         358.58
_chemical_name_common            'strontium perchlorate tetrahydrate'
_chemical_name_systematic
;
Di-\m-aqua-bis(triaquadiperchloratostrontium)
;
_space_group_crystal_system      triclinic
_space_group_IT_number           2
_space_group_name_Hall           '-P 1'
_space_group_name_H-M_alt        'P -1'
_symmetry_space_group_name_Hall  '-P 1'
_symmetry_space_group_name_H-M   'P -1'
_atom_sites_solution_hydrogens   difmap
_audit_creation_method           SHELXL-2012
_cell_angle_alpha                86.674(7)
_cell_angle_beta                 86.291(7)
_cell_angle_gamma                72.027(6)
_cell_formula_units_Z            2
_cell_length_a                   7.1571(6)
_cell_length_b                   7.3942(6)
_cell_length_c                   10.0231(9)
_cell_measurement_reflns_used    16929
_cell_measurement_temperature    150
_cell_measurement_theta_max      29.63
_cell_measurement_theta_min      2.14
_cell_volume                     503.09(8)
_computing_cell_refinement
;
X-AREA (Stoe & Cie, 2009)
;
_computing_data_collection
;
X-AREA (Stoe & Cie, 2009)
;
_computing_data_reduction
;
X-RED (Stoe & Cie, 2009)
;
_computing_molecular_graphics
;
DIAMOND (Brandenburg, 2006)
;
_computing_publication_material
;
publCIF (Westrip, 2010)
;
_computing_structure_refinement
;
SHELXL2012 (Sheldrick, 2008)
;
_computing_structure_solution
;
SHELXS97 (Sheldrick, 2008)
;
_diffrn_ambient_temperature      150
_diffrn_detector_area_resol_mean 6.67
_diffrn_measured_fraction_theta_full 0.996
_diffrn_measured_fraction_theta_max 0.991
_diffrn_measurement_device_type  'Stoe IPDS 2T'
_diffrn_measurement_method       'rotation method'
_diffrn_radiation_monochromator  graphite
_diffrn_radiation_source         'fine-focus sealed tube'
_diffrn_radiation_type           MoK\a
_diffrn_radiation_wavelength     0.71073
_diffrn_reflns_av_R_equivalents  0.0650
_diffrn_reflns_av_sigmaI/netI    0.0070
_diffrn_reflns_limit_h_max       9
_diffrn_reflns_limit_h_min       -9
_diffrn_reflns_limit_k_max       10
_diffrn_reflns_limit_k_min       -10
_diffrn_reflns_limit_l_max       13
_diffrn_reflns_limit_l_min       -13
_diffrn_reflns_number            10691
_diffrn_reflns_theta_full        25.242
_diffrn_reflns_theta_max         29.580
_diffrn_reflns_theta_min         2.898
_exptl_absorpt_coefficient_mu    5.944
_exptl_absorpt_correction_T_max  0.3832
_exptl_absorpt_correction_T_min  0.1874
_exptl_absorpt_correction_type   integration
_exptl_absorpt_process_details
;
(Coppens, 1970)
;
_exptl_crystal_colour            colourless
_exptl_crystal_density_diffrn    2.367
_exptl_crystal_description       prism
_exptl_crystal_F_000             352
_exptl_crystal_size_max          0.333
_exptl_crystal_size_mid          0.247
_exptl_crystal_size_min          0.162
_refine_diff_density_max         0.834
_refine_diff_density_min         -1.151
_refine_ls_extinction_coef       0.034(2)
_refine_ls_extinction_expression Fc^*^=kFc[1+0.001xFc^2^\l^3^/sin(2\q)]^-1/4^
_refine_ls_extinction_method     SHELXL
_refine_ls_goodness_of_fit_ref   1.096
_refine_ls_hydrogen_treatment    refall
_refine_ls_matrix_type           full
_refine_ls_number_parameters     169
_refine_ls_number_reflns         2795
_refine_ls_number_restraints     12
_refine_ls_restrained_S_all      1.094
_refine_ls_R_factor_all          0.0287
_refine_ls_R_factor_gt           0.0275
_refine_ls_shift/su_max          0.001
_refine_ls_shift/su_mean         0.000
_refine_ls_structure_factor_coef Fsqd
_refine_ls_weighting_details
;
 w=1/[\s^2^(Fo^2^)+(0.0332P)^2^+1.7614P]
 where P=(Fo^2^+2Fc^2^)/3
;
_refine_ls_weighting_scheme      calc
_refine_ls_wR_factor_gt          0.0753
_refine_ls_wR_factor_ref         0.0760
_reflns_number_gt                2650
_reflns_number_total             2818
_reflns_threshold_expression     I>2\s(I)
_cod_data_source_file            wm5080sup1.cif
_cod_data_source_block           SrClO4_4H2O_150K
_cod_database_code               2240205
_cod_database_fobs_code          2240205
#BEGIN Tags that were not found in dictionaries:
_shelx_space_group_comment
;
The symmetry employed for this shelxl refinement is uniquely defined
by the following loop, which should always be used as a source of
symmetry information in preference to the above space-group names.
They are only intended as comments.
;
_shelx_hkl_file
;
   1   0   0 2310.25   13.61   0
   2   0   0 2943.42   11.23   0
   3   0   0 2600.13    9.71   0
   4   0   0 1168.16    6.47   0
   5   0   0    7.06    3.22   0
   6   0   0  687.61    5.60   0
   7   0   0   15.17    3.12   0
   8   0   0   18.23    3.78   0
   9   0   0  243.03    4.37   0
  -9   1   0   51.96    3.74   0
  -8   1   0 1231.80    5.67   0
  -7   1   0  715.11    6.14   0
  -6   1   0  168.98    4.78   0
  -5   1   0   82.86    3.64   0
  -4   1   0  515.80    5.11   0
  -3   1   0 1603.85    7.37   0
  -2   1   0 2150.99    9.00   0
  -1   1   0   23.84    3.05   0
   0   1   0 1512.49   11.85   0
   1   1   0  532.55    6.20   0
   2   1   0 7103.16   14.91   0
   3   1   0  633.53    5.20   0
   4   1   0 4480.41   10.45   0
   5   1   0  332.23    4.30   0
   6   1   0  481.88    4.87   0
   7   1   0  366.93    3.98   0
   8   1   0    3.79    3.68   0
   9   1   0  276.45    4.48   0
  -8   2   0  349.10    4.61   0
  -7   2   0   38.01    4.55   0
  -6   2   0  416.18    5.04   0
  -5   2   0    9.17    4.03   0
  -4   2   0 1703.96    7.54   0
  -3   2   0    3.63    3.50   0
  -2   2   0  178.63    3.70   0
  -1   2   0 3459.77   12.16   0
   0   2   0 1833.05   10.09   0
   1   2   0 3901.34   12.52   0
   2   2   0  136.46    3.25   0
   3   2   0  115.15    2.96   0
   4   2   0 1154.08    5.98   0
   5   2   0 1272.30    6.13   0
   6   2   0 1754.83    6.87   0
   7   2   0  243.12    5.01   0
   8   2   0  784.26    4.72   0
   9   2   0   26.36    3.78   0
  -8   3   0  570.75    6.68   0
  -7   3   0  969.63    6.90   0
  -6   3   0 1228.95    7.02   0
  -5   3   0   82.01    4.24   0
  -4   3   0 1117.81    6.13   0
  -3   3   0   24.34    3.79   0
  -2   3   0  221.60    4.53   0
  -1   3   0    3.53    2.97   0
   0   3   0  135.28    3.61   0
   1   3   0   49.22    3.00   0
   2   3   0   89.08    3.09   0
   3   3   0 9670.26   14.25   0
   4   3   0  258.56    3.81   0
   5   3   0 1288.91    5.50   0
   6   3   0 1000.53    5.42   0
   7   3   0  238.23    4.74   0
   8   3   0   80.21    4.33   0
   9   3   0  422.92    4.32   0
  -7   4   0  618.16    6.53   0
  -6   4   0  500.14    5.80   0
  -5   4   0 1769.77    7.63   0
  -4   4   0 3885.23   10.12   0
  -3   4   0  912.82    5.68   0
  -2   4   0  937.09    5.80   0
  -1   4   0  497.65    5.27   0
   0   4   0  606.72    5.43   0
   1   4   0  465.71    4.67   0
   2   4   0  676.20    4.76   0
   3   4   0  451.21    4.23   0
   4   4   0  882.10    5.09   0
   5   4   0 3481.53    8.41   0
   6   4   0  344.66    4.03   0
   7   4   0 2955.39    8.26   0
   8   4   0  688.85    5.32   0
   9   4   0  125.24    5.63   0
  -6   5   0  223.95    5.46   0
  -5   5   0  815.15    6.01   0
  -4   5   0  257.39    4.84   0
  -3   5   0  889.74    5.83   0
  -2   5   0  568.15    5.00   0
  -1   5   0 1352.64    6.37   0
   0   5   0 2255.63    8.22   0
   1   5   0  408.18    4.42   0
   2   5   0  386.86    4.46   0
   3   5   0  870.29    5.21   0
   4   5   0  873.57    4.82   0
   5   5   0 1360.97    5.63   0
   6   5   0   33.95    3.60   0
   7   5   0 1059.50    5.34   0
   8   5   0  455.38    4.77   0
   9   5   0 1144.02    6.95   0
  -5   6   0  699.66    6.19   0
  -4   6   0  594.32    6.01   0
  -3   6   0 1653.21    6.86   0
  -2   6   0   99.45    4.62   0
  -1   6   0 1138.78    6.17   0
   0   6   0  270.35    4.25   0
   1   6   0 1253.32    5.93   0
   2   6   0  918.36    5.15   0
   3   6   0 1505.83    6.12   0
   4   6   0  247.67    3.79   0
   5   6   0   29.55    3.58   0
   6   6   0  145.70    4.01   0
   7   6   0  153.90    4.31   0
   8   6   0  194.21    4.20   0
   9   6   0  292.52    5.10   0
  -4   7   0   12.10    4.62   0
  -3   7   0  143.35    4.74   0
  -2   7   0  121.11    4.85   0
  -1   7   0 2126.02    7.52   0
   0   7   0  470.42    5.46   0
   1   7   0 1969.53    7.48   0
   2   7   0   24.82    3.86   0
   3   7   0   70.36    3.68   0
   4   7   0   10.21    3.91   0
   5   7   0  770.04    5.04   0
   6   7   0   65.33    4.13   0
   7   7   0   66.40    4.27   0
   8   7   0  195.21    4.48   0
  -3   8   0  142.42    5.28   0
  -2   8   0  374.48    5.55   0
  -1   8   0  177.49    4.83   0
   0   8   0  485.54    5.29   0
   1   8   0 1518.64    7.11   0
   2   8   0  668.63    5.10   0
   3   8   0 2692.76    7.66   0
   4   8   0  466.04    4.76   0
   5   8   0  251.71    4.21   0
   6   8   0    8.40    3.84   0
   7   8   0   68.25    4.23   0
   8   8   0  237.76    4.56   0
  -1   9   0  252.21    5.14   0
   0   9   0 1186.93    6.72   0
   1   9   0  234.37    4.80   0
   2   9   0  392.22    5.12   0
   3   9   0  209.46    4.32   0
   4   9   0  644.93    5.13   0
   5   9   0  793.80    5.39   0
   6   9   0  737.00    5.31   0
   7   9   0  311.54    4.76   0
   1  10   0    5.75    4.24   0
   2  10   0  591.27    5.85   0
   3  10   0  188.96    4.80   0
   4  10   0  915.96    6.13   0
   5  10   0   12.56    4.06   0
  -4 -10   1  183.73    4.76   0
  -3 -10   1  101.75    4.65   0
  -2 -10   1   16.51    4.46   0
  -7  -9   1   96.08    4.57   0
  -6  -9   1   75.47    4.07   0
  -5  -9   1  501.95    5.10   0
  -4  -9   1   50.24    4.14   0
  -3  -9   1   85.57    4.02   0
  -2  -9   1  369.30    5.00   0
  -1  -9   1  172.43    4.83   0
   0  -9   1  712.75    5.87   0
   1  -9   1  241.49    5.56   0
  -8  -8   1  521.25    5.24   0
  -7  -8   1 1557.42    7.18   0
  -6  -8   1  641.01    5.25   0
  -5  -8   1  315.40    4.47   0
  -4  -8   1   34.83    4.09   0
  -3  -8   1  665.10    5.15   0
  -2  -8   1   36.39    4.11   0
  -1  -8   1  500.98    5.47   0
   0  -8   1  130.37    4.87   0
   1  -8   1   16.27    4.07   0
   2  -8   1  991.15    6.87   0
   3  -8   1  276.23    5.71   0
  -8  -7   1  166.33    4.46   0
  -7  -7   1  233.05    4.40   0
  -6  -7   1  893.50    5.35   0
  -5  -7   1 1611.68    5.98   0
  -4  -7   1 2107.26    6.85   0
  -3  -7   1 1490.84    6.33   0
  -2  -7   1  395.67    4.90   0
  -1  -7   1   45.87    3.94   0
   0  -7   1   98.55    4.44   0
   1  -7   1  272.01    4.55   0
   2  -7   1  427.45    5.50   0
   3  -7   1   17.69    4.76   0
   4  -7   1  317.84    5.63   0
  -9  -6   1   15.45    4.36   0
  -8  -6   1 1165.19    5.91   0
  -7  -6   1   76.25    3.93   0
  -6  -6   1  623.98    4.67   0
  -5  -6   1  696.14    4.71   0
  -4  -6   1  416.45    4.46   0
  -3  -6   1  118.70    3.38   0
  -2  -6   1 4232.91    9.14   0
  -1  -6   1 1002.37    5.87   0
   0  -6   1  215.57    4.11   0
   1  -6   1  258.26    4.63   0
   2  -6   1    4.98    4.55   0
   3  -6   1   98.52    4.39   0
   4  -6   1  395.99    5.37   0
   5  -6   1   36.12    5.08   0
  -9  -5   1  178.12    4.61   0
  -8  -5   1    0.34    4.15   0
  -7  -5   1   18.01    3.31   0
  -6  -5   1  348.84    4.32   0
  -5  -5   1  350.71    4.19   0
  -4  -5   1 4664.99    9.19   0
  -3  -5   1  632.10    4.58   0
  -2  -5   1  315.01    4.05   0
  -1  -5   1   31.11    3.60   0
   0  -5   1 1506.02    7.16   0
   1  -5   1  616.63    5.04   0
   2  -5   1 1404.71    6.59   0
   3  -5   1  488.75    5.15   0
   4  -5   1  144.11    4.68   0
   5  -5   1   96.93    4.91   0
   6  -5   1  177.47    5.22   0
  -9  -4   1   20.18    4.19   0
  -8  -4   1  111.10    4.21   0
  -7  -4   1    1.63    3.70   0
  -6  -4   1    6.39    3.65   0
  -5  -4   1   15.30    3.37   0
  -4  -4   1  376.95    3.99   0
  -3  -4   1   28.24    3.04   0
  -2  -4   1 4968.21   10.74   0
  -1  -4   1 1149.64    6.06   0
   0  -4   1 2530.96    9.08   0
   1  -4   1  787.49    5.88   0
   2  -4   1  578.17    5.30   0
   3  -4   1   18.50    3.76   0
   4  -4   1  753.60    5.86   0
   5  -4   1   47.44    4.26   0
   6  -4   1  304.47    5.61   0
   7  -4   1   10.33    5.02   0
  -9  -3   1  437.65    5.24   0
  -8  -3   1 1586.43    7.17   0
  -7  -3   1   35.13    3.90   0
  -6  -3   1  449.28    4.27   0
  -5  -3   1 2049.35    6.53   0
  -4  -3   1  808.32    5.00   0
  -3  -3   1  902.67    5.07   0
  -2  -3   1 4755.20   10.92   0
  -1  -3   1   60.63    2.93   0
   0  -3   1 4731.79   12.50   0
   2  -3   1 5591.63   13.04   0
   3  -3   1  734.55    5.65   0
   4  -3   1 3520.54    9.76   0
   5  -3   1   57.32    4.31   0
   6  -3   1  132.90    5.02   0
   7  -3   1   96.68    5.36   0
   8  -3   1  259.88    5.44   0
  -9  -2   1  254.19    4.65   0
  -8  -2   1  603.84    5.66   0
  -7  -2   1  159.31    4.32   0
  -6  -2   1 3333.52    8.44   0
  -5  -2   1    8.25    3.07   0
  -4  -2   1 2195.91    7.10   0
  -3  -2   1  325.31    3.63   0
  -2  -2   1    4.55    2.41   0
   0  -2   1  185.84    4.08   0
   1  -2   1  953.83    6.72   0
   2  -2   1 1748.68    7.90   0
   3  -2   1 1633.27    7.78   0
   4  -2   1  290.97    4.52   0
   5  -2   1 1801.54    7.99   0
   6  -2   1 2333.90    9.40   0
   7  -2   1   74.83    4.18   0
   8  -2   1  125.28    4.42   0
  -9  -1   1  761.55    5.09   0
  -8  -1   1  802.28    6.15   0
  -7  -1   1  525.31    5.25   0
  -6  -1   1  360.56    4.37   0
  -5  -1   1   64.06    3.26   0
  -4  -1   1  145.68    3.49   0
  -3  -1   1  183.23    3.29   0
  -2  -1   1 6843.18   14.17   0
  -1  -1   1   10.72    2.63   0
   0  -1   1  749.10    8.57   0
   1  -1   1 6402.10   18.89   0
   2  -1   1   25.06    3.00   0
   3  -1   1 2550.07    9.59   0
   4  -1   1  206.90    4.28   0
   5  -1   1 1728.04    7.58   0
   6  -1   1  108.65    3.38   0
   7  -1   1  824.80    5.02   0
   8  -1   1  288.25    4.27   0
   9  -1   1  435.73    4.74   0
  -9   0   1  405.96    4.95   0
  -8   0   1   34.99    4.78   0
  -7   0   1  563.30    5.19   0
  -6   0   1 1216.16    6.21   0
  -5   0   1 3515.71    9.20   0
  -4   0   1  551.17    4.71   0
  -3   0   1 6566.01   11.61   0
  -2   0   1  108.60    3.11   0
  -1   0   1  157.51    3.98   0
   1   0   1   21.28    3.50   0
   2   0   1 4262.31   12.41   0
   3   0   1  655.51    4.51   0
   4   0   1  732.24    4.62   0
   5   0   1 2580.46    6.77   0
   6   0   1  754.01    4.42   0
   7   0   1 2514.13    6.65   0
   8   0   1   56.82    3.65   0
   9   0   1  325.24    4.53   0
  -9   1   1  631.32    5.05   0
  -8   1   1  348.72    6.09   0
  -7   1   1  847.31    5.57   0
  -6   1   1  337.53    4.72   0
  -5   1   1 1785.03    6.95   0
  -4   1   1  986.19    5.43   0
  -3   1   1 9003.51   13.32   0
  -2   1   1 1481.33    7.85   0
   0   1   1  145.79    4.45   0
   1   1   1   95.82    3.79   0
   2   1   1 1543.74    9.01   0
   3   1   1   28.75    3.18   0
   4   1   1   81.68    3.65   0
   5   1   1 1349.05    5.51   0
   6   1   1  462.76    3.70   0
   7   1   1  121.49    3.55   0
   8   1   1 1094.11    5.35   0
   9   1   1 1914.51    6.48   0
  -8   2   1    0.24    4.76   0
  -7   2   1   71.74    4.48   0
  -6   2   1  378.99    4.76   0
  -5   2   1 2272.69    7.68   0
  -4   2   1 2071.99    6.90   0
  -3   2   1 1992.73    7.61   0
  -2   2   1  541.00    4.77   0
  -1   2   1  516.95    5.22   0
   0   2   1   47.16    3.23   0
   1   2   1 9925.37   18.98   0
   2   2   1  431.46    4.50   0
   3   2   1   52.98    2.90   0
   4   2   1  864.80    5.76   0
   5   2   1  395.40    4.19   0
   6   2   1 2824.43    8.99   0
   7   2   1  260.67    4.14   0
   8   2   1  445.49    4.30   0
   9   2   1  263.78    4.21   0
  -8   3   1    7.24    4.94   0
  -7   3   1  168.69    4.96   0
  -6   3   1   40.55    4.59   0
  -5   3   1    9.88    3.91   0
  -4   3   1  143.86    3.85   0
  -3   3   1 1911.54    7.65   0
  -2   3   1 2719.44    9.08   0
  -1   3   1 2650.48    8.93   0
   0   3   1 3650.95   10.60   0
   1   3   1 2348.30    8.60   0
   2   3   1 1326.91    6.53   0
   3   3   1 2254.72    7.47   0
   4   3   1  671.84    4.74   0
   5   3   1 1886.18    6.56   0
   6   3   1    3.23    3.23   0
   7   3   1  215.26    4.94   0
   8   3   1  397.40    4.29   0
   9   3   1  264.15    4.15   0
  -7   4   1  831.63    6.51   0
  -6   4   1   39.78    4.67   0
  -5   4   1    5.53    4.34   0
  -4   4   1  103.07    4.46   0
  -3   4   1  233.75    4.27   0
  -2   4   1   44.49    3.73   0
  -1   4   1   87.71    4.04   0
   0   4   1  866.69    6.15   0
   1   4   1 2796.03    8.42   0
   2   4   1 5838.63   11.71   0
   3   4   1  455.75    4.40   0
   4   4   1  174.48    3.47   0
   5   4   1  636.35    4.41   0
   6   4   1    5.83    3.54   0
   7   4   1  610.52    5.20   0
   8   4   1    4.72    4.48   0
   9   4   1   79.24    3.97   0
  -6   5   1  243.04    5.28   0
  -5   5   1  516.19    5.68   0
  -4   5   1   73.26    4.72   0
  -3   5   1   72.57    4.42   0
  -2   5   1 1438.02    6.23   0
  -1   5   1 1280.33    6.00   0
   0   5   1 1045.32    6.13   0
   1   5   1  480.40    4.54   0
   2   5   1 1985.50    6.97   0
   3   5   1  252.81    3.84   0
   4   5   1 3966.64    8.83   0
   5   5   1 1718.39    6.27   0
   6   5   1  652.61    4.80   0
   7   5   1  689.76    4.99   0
   8   5   1    3.31    4.19   0
   9   5   1  100.49    5.08   0
  -5   6   1  138.65    4.93   0
  -4   6   1   15.77    4.46   0
  -3   6   1  493.94    5.23   0
  -2   6   1  195.42    4.48   0
  -1   6   1   11.87    3.97   0
   0   6   1 1767.41    7.23   0
   1   6   1  769.97    5.05   0
   2   6   1 3328.25    8.35   0
   3   6   1  342.28    4.24   0
   4   6   1 1315.23    5.80   0
   5   6   1  177.04    3.92   0
   6   6   1 1318.26    5.85   0
   7   6   1  265.91    4.50   0
   8   6   1  904.14    5.77   0
   9   6   1   92.32    4.69   0
  -4   7   1 1208.78    7.51   0
  -3   7   1   45.65    4.56   0
  -2   7   1  130.16    4.53   0
  -1   7   1   20.22    3.93   0
   0   7   1  178.63    4.60   0
   1   7   1  207.68    4.51   0
   2   7   1   15.35    3.90   0
   3   7   1    9.69    3.58   0
   4   7   1 1432.78    6.33   0
   5   7   1 1190.23    5.52   0
   6   7   1 1035.54    6.10   0
   7   7   1   92.80    4.09   0
   8   7   1  504.99    5.16   0
  -3   8   1  426.98    5.92   0
  -2   8   1 1970.00    7.90   0
  -1   8   1   17.63    4.48   0
   0   8   1  715.48    5.82   0
   1   8   1   50.92    4.50   0
   2   8   1    2.51    3.95   0
   3   8   1    8.29    3.73   0
   4   8   1   22.33    4.03   0
   5   8   1  254.27    4.37   0
   6   8   1  161.10    4.20   0
   7   8   1  713.15    5.75   0
   8   8   1  701.54    6.15   0
  -1   9   1   39.88    4.54   0
   0   9   1 1340.66    6.86   0
   1   9   1  686.03    5.53   0
   2   9   1  881.70    5.81   0
   3   9   1   14.30    4.03   0
   4   9   1   42.77    4.10   0
   5   9   1  425.98    4.88   0
   6   9   1   11.22    3.99   0
   7   9   1  121.64    4.32   0
   1  10   1   50.03    4.38   0
   2  10   1  167.55    4.73   0
   3  10   1   30.20    4.56   0
   4  10   1  142.81    4.32   0
   5  10   1   25.32    4.02   0
  -3 -10   2  340.46    5.09   0
  -6  -9   2  332.10    4.83   0
  -5  -9   2  206.17    4.72   0
  -4  -9   2 1205.71    6.21   0
  -3  -9   2   40.17    4.45   0
  -2  -9   2  306.19    5.03   0
  -1  -9   2  286.17    4.91   0
   0  -9   2  823.16    6.25   0
   1  -9   2   80.53    4.76   0
  -7  -8   2    1.55    4.03   0
  -6  -8   2   55.35    4.09   0
  -5  -8   2   15.28    3.91   0
  -4  -8   2   90.28    4.01   0
  -3  -8   2 1583.12    7.17   0
  -2  -8   2 1107.88    6.65   0
  -1  -8   2  291.53    5.11   0
   0  -8   2  559.87    5.30   0
   1  -8   2  173.14    5.01   0
   2  -8   2  320.07    5.66   0
   3  -8   2   79.73    5.16   0
  -8  -7   2  813.90    5.89   0
  -7  -7   2   23.21    3.95   0
  -6  -7   2   62.82    3.94   0
  -5  -7   2  128.40    3.79   0
  -4  -7   2    3.95    3.61   0
  -3  -7   2   42.63    4.10   0
  -2  -7   2  106.16    4.38   0
  -1  -7   2 1086.78    6.89   0
   0  -7   2  357.65    5.01   0
   1  -7   2 1044.10    5.91   0
   2  -7   2 1649.38    7.52   0
   3  -7   2  334.40    5.53   0
   4  -7   2   77.61    4.94   0
  -9  -6   2   34.72    4.10   0
  -8  -6   2  861.04    5.51   0
  -7  -6   2  372.60    4.51   0
  -6  -6   2  994.11    5.17   0
  -5  -6   2  235.35    4.20   0
  -4  -6   2   40.25    3.55   0
  -3  -6   2 1378.99    5.86   0
  -2  -6   2  216.59    3.95   0
  -1  -6   2 2250.15    7.34   0
   0  -6   2   99.50    4.41   0
   1  -6   2 1394.20    6.74   0
   2  -6   2 1012.74    6.36   0
   3  -6   2 1595.58    7.56   0
   4  -6   2  778.72    6.74   0
   5  -6   2 1101.44    7.25   0
  -9  -5   2 1006.79    6.80   0
  -8  -5   2  500.86    5.21   0
  -7  -5   2  785.68    5.20   0
  -6  -5   2  270.96    4.33   0
  -5  -5   2  503.34    4.43   0
  -4  -5   2  583.52    4.22   0
  -3  -5   2  509.77    4.17   0
  -2  -5   2 1892.57    6.76   0
  -1  -5   2   93.95    3.57   0
   0  -5   2  737.43    5.58   0
   1  -5   2 2361.13    9.05   0
   2  -5   2  139.39    4.04   0
   3  -5   2 2401.68    8.55   0
   4  -5   2  138.77    4.54   0
   5  -5   2  160.57    5.16   0
   6  -5   2  254.64    5.83   0
  -9  -4   2  122.15    4.59   0
  -8  -4   2   48.77    4.01   0
  -7  -4   2 2275.42    6.60   0
  -6  -4   2  336.22    4.15   0
  -5  -4   2 2593.46    7.10   0
  -4  -4   2  353.78    3.85   0
  -3  -4   2  308.91    3.84   0
  -2  -4   2  182.84    3.68   0
  -1  -4   2 1287.27    6.38   0
   0  -4   2  832.42    5.93   0
   1  -4   2    5.83    3.75   0
   2  -4   2    4.23    3.46   0
   3  -4   2  231.89    4.30   0
   4  -4   2  433.22    5.11   0
   5  -4   2 2219.81    8.27   0
   6  -4   2  227.64    5.39   0
   7  -4   2  553.15    6.79   0
  -9  -3   2   79.04    4.56   0
  -8  -3   2  335.17    4.74   0
  -7  -3   2  442.80    4.56   0
  -6  -3   2  206.64    3.57   0
  -5  -3   2 2623.59    7.23   0
  -4  -3   2  389.14    3.91   0
  -3  -3   2 7170.00   12.33   0
  -2  -3   2 3031.75    8.50   0
  -1  -3   2 2663.08    8.72   0
   0  -3   2  205.90    3.98   0
   1  -3   2  453.87    4.72   0
   2  -3   2  106.61    4.31   0
   3  -3   2  527.89    5.37   0
   4  -3   2   96.76    3.68   0
   5  -3   2   15.79    4.29   0
   6  -3   2  411.14    5.91   0
   7  -3   2 1337.71    6.69   0
   8  -3   2  449.11    5.63   0
  -9  -2   2  222.12    5.01   0
  -8  -2   2  283.50    4.67   0
  -7  -2   2  700.63    5.20   0
  -6  -2   2 1739.90    5.97   0
  -5  -2   2 1412.14    5.37   0
  -4  -2   2 1444.12    6.12   0
  -3  -2   2 4617.35   10.16   0
  -2  -2   2  626.47    4.67   0
  -1  -2   2 7562.11   13.91   0
   0  -2   2 3182.27   11.16   0
   1  -2   2 3281.31   11.37   0
   2  -2   2   69.34    3.56   0
   3  -2   2 1022.09    6.75   0
   4  -2   2 1330.59    7.12   0
   5  -2   2   38.95    3.98   0
   6  -2   2 1532.73    8.81   0
   7  -2   2   21.73    4.07   0
   8  -2   2   30.27    4.39   0
  -9  -1   2  137.89    5.26   0
  -8  -1   2    2.94    4.20   0
  -7  -1   2  455.53    4.77   0
  -6  -1   2   99.32    3.65   0
  -5  -1   2  141.45    3.21   0
  -4  -1   2 4387.23    9.42   0
  -3  -1   2 3573.02    9.17   0
  -2  -1   2 6088.81   13.40   0
  -1  -1   2  820.22    6.13   0
   0  -1   2  203.19    4.26   0
   1  -1   2   83.64    3.53   0
   2  -1   2 2494.87   10.36   0
   3  -1   2 1359.19    7.32   0
   4  -1   2  204.40    4.73   0
   5  -1   2  523.35    4.06   0
   6  -1   2  391.65    4.24   0
   7  -1   2  364.77    4.42   0
   8  -1   2 1289.64    5.82   0
   9  -1   2   20.63    3.88   0
  -9   0   2  336.33    6.06   0
  -8   0   2   54.95    4.60   0
  -7   0   2  236.74    4.27   0
  -6   0   2   73.25    3.98   0
  -5   0   2    4.46    3.08   0
  -4   0   2  130.92    3.79   0
  -3   0   2  372.16    3.93   0
  -2   0   2 4480.88   11.46   0
  -1   0   2  190.78    3.67   0
   1   0   2 4237.02   15.97   0
   3   0   2 2265.95    7.87   0
   4   0   2 1047.68    5.35   0
   5   0   2   85.02    3.17   0
   6   0   2  623.74    4.40   0
   7   0   2  349.22    3.99   0
   8   0   2  104.80    3.99   0
   9   0   2   21.22    4.00   0
  -8   1   2  755.29    5.63   0
  -7   1   2  892.59    6.69   0
  -6   1   2 2301.59    7.62   0
  -5   1   2  817.24    4.81   0
  -4   1   2   20.47    3.20   0
  -3   1   2  225.05    3.72   0
  -2   1   2  595.00    4.96   0
  -1   1   2 1118.77    6.87   0
   0   1   2 1931.94   10.93   0
   1   1   2 1293.16    9.20   0
   2   1   2 6165.43   16.21   0
   3   1   2 4994.35   11.14   0
   4   1   2 1864.84    6.51   0
   5   1   2 1048.73    4.98   0
   6   1   2 2205.43    6.34   0
   7   1   2   20.86    3.28   0
   8   1   2  246.87    3.86   0
   9   1   2    1.10    3.95   0
  -8   2   2 1099.50    6.93   0
  -7   2   2  186.30    4.34   0
  -6   2   2  140.68    4.20   0
  -5   2   2  409.56    4.37   0
  -4   2   2 1659.25    6.54   0
  -3   2   2    8.55    3.36   0
  -2   2   2 1077.47    5.85   0
  -1   2   2  147.78    3.59   0
   0   2   2 7194.07   16.22   0
   1   2   2 2121.00    9.45   0
   2   2   2 2661.87    9.62   0
   3   2   2 1208.79    6.56   0
   4   2   2  499.58    4.98   0
   5   2   2  783.92    5.89   0
   6   2   2 2176.36    6.18   0
   7   2   2  660.22    4.64   0
   8   2   2 1845.60    6.18   0
   9   2   2    8.03    3.87   0
  -7   3   2  722.58    6.21   0
  -6   3   2 1446.08    6.75   0
  -5   3   2  264.91    4.66   0
  -4   3   2  799.45    5.09   0
  -3   3   2  181.26    3.71   0
  -2   3   2  198.27    4.21   0
  -1   3   2  606.30    4.93   0
   0   3   2    3.21    2.95   0
   1   3   2 1650.16    7.48   0
   2   3   2  793.17    5.35   0
   3   3   2 2523.48    8.20   0
   4   3   2 2179.50    7.60   0
   5   3   2 1196.68    6.00   0
   6   3   2 1326.07    6.58   0
   7   3   2  253.25    3.90   0
   8   3   2  271.45    4.30   0
   9   3   2  136.06    3.98   0
  -7   4   2  148.86    5.31   0
  -6   4   2  584.31    5.63   0
  -5   4   2  103.02    4.58   0
  -4   4   2 3200.31    9.20   0
  -3   4   2 2633.16    8.47   0
  -2   4   2 2439.14    7.75   0
  -1   4   2   41.55    3.45   0
   0   4   2  240.94    4.17   0
   1   4   2   14.88    3.46   0
   2   4   2  468.80    4.62   0
   3   4   2   79.14    3.40   0
   4   4   2  734.58    4.99   0
   5   4   2  660.46    4.75   0
   6   4   2 1231.39    6.26   0
   7   4   2 1038.42    6.21   0
   8   4   2  797.25    6.68   0
   9   4   2  300.30    4.65   0
  -6   5   2   33.71    4.94   0
  -5   5   2  500.58    5.71   0
  -4   5   2  302.02    4.68   0
  -3   5   2   39.81    4.48   0
  -2   5   2 2491.33    7.51   0
  -1   5   2 2569.39    7.99   0
   0   5   2 1272.12    6.00   0
   1   5   2 1208.55    5.93   0
   2   5   2 1842.38    7.01   0
   3   5   2  533.92    4.47   0
   4   5   2  192.19    3.78   0
   5   5   2  613.67    4.65   0
   6   5   2    8.16    3.57   0
   7   5   2  536.30    4.87   0
   8   5   2   83.65    4.58   0
   9   5   2  830.39    5.17   0
  -5   6   2  459.50    5.51   0
  -4   6   2  589.65    5.63   0
  -3   6   2 2240.21    7.79   0
  -2   6   2  536.67    5.10   0
  -1   6   2 1204.73    6.22   0
   0   6   2  171.85    4.09   0
   1   6   2 1132.97    6.03   0
   2   6   2 2446.85    7.29   0
   3   6   2 1743.41    6.25   0
   4   6   2  859.20    5.05   0
   5   6   2   29.24    3.49   0
   6   6   2   35.56    3.60   0
   7   6   2  846.69    5.41   0
   8   6   2   32.74    4.25   0
   9   6   2  232.12    5.23   0
  -4   7   2    7.40    5.02   0
  -3   7   2  283.82    5.25   0
  -2   7   2   36.08    4.39   0
  -1   7   2 2225.11    7.37   0
   0   7   2  672.91    5.36   0
   1   7   2 1092.44    6.50   0
   2   7   2   44.24    3.83   0
   3   7   2  803.27    5.22   0
   4   7   2   56.16    3.92   0
   5   7   2   81.16    3.76   0
   6   7   2   85.36    4.35   0
   7   7   2  208.85    4.59   0
   8   7   2    9.70    4.16   0
  -3   8   2  117.71    5.09   0
  -2   8   2   59.27    4.95   0
  -1   8   2   33.47    4.53   0
   0   8   2   24.36    4.18   0
   1   8   2 1670.01    6.86   0
   2   8   2  591.76    5.30   0
   3   8   2 1460.59    6.52   0
   4   8   2  613.18    5.15   0
   5   8   2  828.48    5.26   0
   6   8   2   65.48    3.90   0
   7   8   2  238.65    4.94   0
   8   8   2   18.03    4.45   0
  -1   9   2   46.41    4.70   0
   0   9   2  402.03    5.05   0
   1   9   2  217.31    4.67   0
   2   9   2  284.40    4.96   0
   3   9   2  302.29    4.57   0
   4   9   2  266.57    4.31   0
   5   9   2  879.47    5.53   0
   6   9   2  942.37    5.99   0
   7   9   2  882.02    6.49   0
   2  10   2  344.31    5.04   0
   3  10   2  179.23    4.80   0
   4  10   2  350.63    4.91   0
   5  10   2  100.69    4.36   0
  -6  -9   3   29.67    4.07   0
  -5  -9   3  423.17    5.14   0
  -4  -9   3  241.87    4.69   0
  -3  -9   3   49.47    4.51   0
  -2  -9   3   36.54    4.82   0
  -1  -9   3  160.34    5.02   0
   0  -9   3  255.44    5.15   0
   1  -9   3  376.26    6.16   0
  -7  -8   3 1400.68    6.85   0
  -6  -8   3  507.00    4.92   0
  -5  -8   3  925.99    5.40   0
  -4  -8   3   15.69    3.97   0
  -3  -8   3  328.93    4.67   0
  -2  -8   3   54.59    4.33   0
  -1  -8   3  581.87    5.91   0
   0  -8   3   47.12    4.63   0
   1  -8   3   12.53    4.42   0
   2  -8   3  431.86    5.94   0
   3  -8   3  210.46    6.02   0
  -8  -7   3    7.57    4.17   0
  -7  -7   3  154.42    4.48   0
  -6  -7   3  247.90    4.36   0
  -5  -7   3  997.50    5.74   0
  -4  -7   3 1144.91    5.44   0
  -3  -7   3 2082.55    6.98   0
  -2  -7   3  240.75    4.41   0
  -1  -7   3  741.16    5.69   0
   0  -7   3    4.74    4.76   0
   1  -7   3  370.41    5.77   0
   2  -7   3   40.64    4.49   0
   3  -7   3  147.48    5.04   0
   4  -7   3    2.79    5.32   0
  -8  -6   3  156.07    4.51   0
  -7  -6   3  415.60    4.52   0
  -6  -6   3  433.75    4.41   0
  -5  -6   3   25.06    3.42   0
  -4  -6   3  315.03    4.41   0
  -3  -6   3  441.68    4.58   0
  -2  -6   3 1720.70    6.56   0
  -1  -6   3 2830.97    8.25   0
   0  -6   3  847.82    6.05   0
   1  -6   3 1498.30    7.82   0
   2  -6   3   13.56    4.19   0
   3  -6   3  105.30    4.95   0
   4  -6   3  123.15    5.10   0
   5  -6   3    9.17    5.46   0
  -9  -5   3  106.10    4.52   0
  -8  -5   3    3.00    4.06   0
  -7  -5   3  370.12    4.39   0
  -6  -5   3  834.38    5.01   0
  -5  -5   3  528.14    4.35   0
  -4  -5   3 1999.91    6.33   0
  -3  -5   3 1083.33    5.46   0
  -2  -5   3 4278.70    9.54   0
  -1  -5   3   70.26    3.72   0
   0  -5   3 1155.00    6.54   0
   1  -5   3 1271.41    6.61   0
   2  -5   3  441.68    5.14   0
   3  -5   3 1557.16    7.47   0
   4  -5   3  351.05    5.73   0
   5  -5   3   13.38    4.93   0
   6  -5   3  174.35    5.87   0
  -9  -4   3  219.55    5.05   0
  -8  -4   3   40.20    3.75   0
  -7  -4   3   41.27    3.85   0
  -6  -4   3    5.84    3.64   0
  -5  -4   3  331.83    3.67   0
  -4  -4   3  162.33    3.25   0
  -3  -4   3   14.72    3.16   0
  -2  -4   3 4553.52   10.31   0
  -1  -4   3  864.48    5.86   0
   0  -4   3 3411.16   10.40   0
   1  -4   3  108.03    4.38   0
   2  -4   3  975.74    6.34   0
   3  -4   3   22.52    3.85   0
   4  -4   3  410.73    5.71   0
   5  -4   3   12.74    4.86   0
   6  -4   3  252.87    5.79   0
   7  -4   3   29.94    5.89   0
  -9  -3   3  156.54    4.83   0
  -8  -3   3 1510.57    6.52   0
  -7  -3   3  303.29    3.92   0
  -6  -3   3 1138.43    5.53   0
  -5  -3   3   12.07    3.10   0
  -4  -3   3  451.65    4.00   0
  -3  -3   3   19.20    2.90   0
  -2  -3   3  591.39    4.42   0
  -1  -3   3   95.02    3.15   0
   0  -3   3  781.85    6.00   0
   1  -3   3 1536.93    7.93   0
   2  -3   3 5388.55   12.51   0
   3  -3   3 1568.74    7.55   0
   4  -3   3 5424.25   12.26   0
   5  -3   3   42.09    4.52   0
   6  -3   3  393.29    5.80   0
   7  -3   3    4.89    4.39   0
  -9  -2   3  123.27    4.68   0
  -8  -2   3 1076.74    6.13   0
  -7  -2   3   79.29    3.41   0
  -6  -2   3 3118.69    8.07   0
  -5  -2   3 1708.59    6.25   0
  -4  -2   3 5882.60   10.70   0
  -3  -2   3   63.22    2.96   0
  -2  -2   3   33.66    2.54   0
  -1  -2   3  382.72    4.33   0
   0  -2   3  134.83    3.51   0
   1  -2   3 3827.18   10.41   0
   2  -2   3   82.48    3.61   0
   3  -2   3 1167.38    7.02   0
   4  -2   3 2581.97    9.39   0
   5  -2   3  498.02    5.88   0
   6  -2   3 2796.07    8.07   0
   7  -2   3  679.91    5.58   0
   8  -2   3  623.06    5.35   0
  -9  -1   3  279.19    5.34   0
  -8  -1   3  561.81    5.48   0
  -7  -1   3 1776.36    6.73   0
  -6  -1   3 2089.26    6.55   0
  -5  -1   3  274.65    4.01   0
  -4  -1   3 1128.86    5.59   0
  -3  -1   3  913.06    4.99   0
  -2  -1   3  509.10    4.21   0
  -1  -1   3  596.29    5.13   0
   0  -1   3 5860.07   13.19   0
   1  -1   3 4786.16   12.96   0
   2  -1   3  686.13    5.88   0
   3  -1   3 3522.16   10.94   0
   4  -1   3  501.79    5.61   0
   5  -1   3 1194.12    5.70   0
   6  -1   3  133.42    3.96   0
   7  -1   3  412.15    4.95   0
   8  -1   3  871.37    5.68   0
  -9   0   3  187.84    5.77   0
  -8   0   3    8.51    4.23   0
  -7   0   3  296.14    4.60   0
  -6   0   3 1233.35    5.58   0
  -5   0   3 2397.39    7.30   0
  -4   0   3  768.73    4.96   0
  -3   0   3 1317.40    5.79   0
  -2   0   3   74.84    2.87   0
  -1   0   3  617.08    5.08   0
   0   0   3  719.24    6.10   0
   1   0   3  542.71    5.63   0
   2   0   3  351.79    4.95   0
   3   0   3  154.28    3.96   0
   4   0   3    9.05    3.00   0
   5   0   3 2061.97    6.60   0
   6   0   3  601.24    4.54   0
   7   0   3 2041.48    6.74   0
   8   0   3  165.29    4.07   0
   9   0   3  192.80    4.61   0
  -8   1   3   63.34    4.66   0
  -7   1   3  490.33    5.17   0
  -6   1   3  396.89    4.68   0
  -5   1   3  586.17    4.88   0
  -4   1   3   55.20    3.14   0
  -3   1   3 5013.85   10.50   0
  -2   1   3 6040.49   12.01   0
  -1   1   3 6808.60   14.18   0
   0   1   3 2147.72    9.93   0
   1   1   3  368.59    5.19   0
   2   1   3  695.99    6.12   0
   3   1   3  153.42    4.05   0
   4   1   3    5.11    2.78   0
   5   1   3  169.52    3.45   0
   6   1   3    8.82    2.91   0
   7   1   3  601.27    4.53   0
   8   1   3  146.77    3.70   0
   9   1   3 1190.46    5.96   0
  -8   2   3  352.04    5.24   0
  -7   2   3    5.87    4.35   0
  -6   2   3   10.65    3.56   0
  -5   2   3  636.13    5.04   0
  -4   2   3 1011.85    5.59   0
  -3   2   3 2199.62    7.60   0
  -2   2   3  121.39    3.52   0
  -1   2   3 6321.45   12.81   0
   0   2   3 4374.28   11.95   0
   1   2   3  604.91    5.66   0
   2   2   3 4620.00   12.60   0
   3   2   3 4665.41   11.60   0
   4   2   3  275.41    4.70   0
   5   2   3   61.46    2.98   0
   6   2   3  347.95    3.76   0
   7   2   3  287.69    4.01   0
   8   2   3  278.14    4.07   0
   9   2   3  172.35    4.27   0
  -7   3   3   41.62    4.51   0
  -6   3   3   13.81    4.27   0
  -5   3   3   76.28    4.13   0
  -4   3   3  201.55    4.03   0
  -3   3   3 2855.67    7.93   0
  -2   3   3 3023.99    8.69   0
  -1   3   3 3680.48    9.82   0
   0   3   3 1690.32    7.11   0
   1   3   3 6180.75   13.03   0
   2   3   3  243.69    3.92   0
   3   3   3 3410.93    9.81   0
   4   3   3 2334.61    8.28   0
   5   3   3 1416.26    6.80   0
   6   3   3  277.76    4.65   0
   7   3   3  512.85    4.37   0
   8   3   3  320.34    4.30   0
   9   3   3  140.81    4.42   0
  -7   4   3  701.65    6.29   0
  -6   4   3   10.50    4.56   0
  -5   4   3    9.62    4.26   0
  -4   4   3   65.45    4.55   0
  -3   4   3   64.83    3.96   0
  -2   4   3   18.47    3.41   0
  -1   4   3   24.94    3.49   0
   0   4   3  161.79    3.93   0
   1   4   3 2526.99    8.17   0
   2   4   3  487.34    4.67   0
   3   4   3 2553.86    8.14   0
   4   4   3  436.52    4.50   0
   5   4   3  549.98    4.81   0
   6   4   3  462.23    5.05   0
   7   4   3  446.47    5.18   0
   8   4   3   51.62    3.69   0
   9   4   3  186.56    4.45   0
  -6   5   3  113.56    5.09   0
  -5   5   3 1199.11    6.86   0
  -4   5   3   77.03    4.79   0
  -3   5   3  153.41    4.51   0
  -2   5   3  956.80    5.70   0
  -1   5   3  147.39    3.98   0
   0   5   3  131.46    3.87   0
   1   5   3   38.72    3.25   0
   2   5   3 2036.78    7.03   0
   3   5   3  249.25    3.84   0
   4   5   3  468.56    4.55   0
   5   5   3 2602.24    7.72   0
   6   5   3  634.02    5.13   0
   7   5   3  715.86    5.43   0
   8   5   3    9.36    4.74   0
   9   5   3   69.54    4.16   0
  -5   6   3  456.48    5.49   0
  -4   6   3   73.53    4.37   0
  -3   6   3 1017.00    6.32   0
  -2   6   3  612.79    4.99   0
  -1   6   3 1282.66    6.13   0
   0   6   3  344.60    4.82   0
   1   6   3   41.39    3.59   0
   2   6   3 2192.90    6.97   0
   3   6   3  370.16    4.23   0
   4   6   3 2711.75    7.63   0
   5   6   3   31.84    3.95   0
   6   6   3  724.48    4.97   0
   7   6   3 1236.49    6.58   0
   8   6   3 1046.73    6.48   0
   9   6   3  605.89    5.00   0
  -4   7   3 1006.72    6.78   0
  -3   7   3  499.90    5.56   0
  -2   7   3  181.30    4.36   0
  -1   7   3  309.04    4.90   0
   0   7   3  555.09    4.93   0
   1   7   3  403.84    4.81   0
   2   7   3    1.44    4.21   0
   3   7   3  105.93    4.36   0
   4   7   3  998.05    5.65   0
   5   7   3  291.91    4.31   0
   6   7   3 1740.01    6.88   0
   7   7   3  388.81    4.88   0
   8   7   3  693.03    5.94   0
  -3   8   3  101.35    4.94   0
  -2   8   3 1379.01    7.34   0
  -1   8   3  327.65    5.03   0
   0   8   3  368.90    4.72   0
   1   8   3   55.67    4.41   0
   2   8   3    6.66    4.69   0
   3   8   3    6.29    4.22   0
   4   8   3    9.38    3.98   0
   5   8   3   31.53    3.83   0
   6   8   3   15.24    4.09   0
   7   8   3  167.21    4.54   0
   8   8   3 1126.84    7.32   0
  -1   9   3   28.60    4.52   0
   0   9   3 1035.52    6.11   0
   1   9   3  469.20    5.14   0
   2   9   3  693.86    5.35   0
   3   9   3   98.21    4.27   0
   4   9   3  285.48    4.48   0
   5   9   3   90.26    4.55   0
   6   9   3   -0.79    4.15   0
   7   9   3   27.65    4.23   0
   2  10   3  259.01    4.84   0
   3  10   3  256.66    4.63   0
   4  10   3  429.71    5.37   0
  -5  -9   4   45.22    4.31   0
  -4  -9   4  603.50    5.55   0
  -3  -9   4   21.96    4.40   0
  -2  -9   4  358.68    5.70   0
  -1  -9   4  247.67    5.51   0
   0  -9   4  685.23    6.61   0
  -7  -8   4    1.57    3.96   0
  -6  -8   4  102.60    4.16   0
  -5  -8   4   24.63    3.93   0
  -4  -8   4  304.21    4.71   0
  -3  -8   4   61.07    4.31   0
  -2  -8   4 1483.23    7.07   0
  -1  -8   4 1148.62    6.90   0
   0  -8   4  659.97    6.74   0
   1  -8   4   85.10    5.04   0
   2  -8   4  463.90    6.43   0
  -8  -7   4  924.31    6.25   0
  -7  -7   4   19.83    4.09   0
  -6  -7   4   47.43    3.89   0
  -5  -7   4    5.55    4.09   0
  -4  -7   4   12.11    3.96   0
  -3  -7   4   56.03    3.87   0
  -2  -7   4   35.95    3.88   0
  -1  -7   4  112.89    4.35   0
   0  -7   4  741.74    5.87   0
   1  -7   4  342.41    5.79   0
   2  -7   4 1116.90    7.28   0
   3  -7   4  274.12    6.20   0
   4  -7   4  253.54    5.84   0
  -8  -6   4  437.47    4.92   0
  -7  -6   4  317.94    4.28   0
  -6  -6   4 1311.33    5.82   0
  -5  -6   4  559.90    4.35   0
  -4  -6   4  945.71    5.51   0
  -3  -6   4  435.89    4.66   0
  -2  -6   4    3.19    3.79   0
  -1  -6   4 1207.79    6.67   0
   0  -6   4   13.76    4.55   0
   1  -6   4  192.99    4.83   0
   2  -6   4  267.56    4.72   0
   3  -6   4  529.82    5.75   0
   4  -6   4 1092.23    8.31   0
   5  -6   4 1119.94    9.05   0
  -9  -5   4  195.81    6.80   0
  -8  -5   4  902.96    5.71   0
  -7  -5   4  561.37    4.72   0
  -6  -5   4  678.54    4.68   0
  -5  -5   4  906.97    5.02   0
  -4  -5   4 1896.85    6.36   0
  -3  -5   4 1374.70    5.76   0
  -2  -5   4 2577.56    7.74   0
  -1  -5   4   41.69    3.68   0
   0  -5   4 1545.39    7.18   0
   1  -5   4 1055.81    6.68   0
   2  -5   4  518.99    6.03   0
   3  -5   4  967.36    6.90   0
   4  -5   4  141.83    5.32   0
   5  -5   4  735.62    7.16   0
   6  -5   4  132.69    6.47   0
  -9  -4   4  125.69    4.28   0
  -8  -4   4   12.46    3.96   0
  -7  -4   4  767.30    5.29   0
  -6  -4   4 1707.61    6.04   0
  -5  -4   4 3743.27    8.31   0
  -4  -4   4   68.99    3.13   0
  -3  -4   4  777.41    4.64   0
  -2  -4   4 1167.42    5.82   0
  -1  -4   4   62.84    3.56   0
   0  -4   4  732.55    6.19   0
   1  -4   4  931.54    5.46   0
   2  -4   4  426.44    5.44   0
   3  -4   4 1130.61    7.70   0
   4  -4   4  124.36    4.76   0
   5  -4   4 1482.82    8.10   0
   6  -4   4  376.55    6.46   0
   7  -4   4  525.63    6.09   0
  -9  -3   4   83.78    4.48   0
  -8  -3   4   78.60    4.04   0
  -7  -3   4  471.97    4.58   0
  -6  -3   4  408.48    4.36   0
  -5  -3   4 1645.47    5.87   0
  -4  -3   4  489.94    4.12   0
  -3  -3   4 1043.39    5.37   0
  -2  -3   4  624.94    4.73   0
  -1  -3   4 4130.95   10.73   0
   0  -3   4  150.36    3.53   0
   1  -3   4  250.40    4.32   0
   2  -3   4  264.73    5.35   0
   3  -3   4   16.83    4.00   0
   4  -3   4   28.41    4.43   0
   5  -3   4   22.46    4.49   0
   6  -3   4   20.39    5.00   0
   7  -3   4  775.38    6.14   0
  -9  -2   4  236.89    5.64   0
  -8  -2   4   12.51    3.82   0
  -7  -2   4  245.36    4.20   0
  -6  -2   4  397.58    4.29   0
  -5  -2   4 2172.68    6.57   0
  -4  -2   4  106.77    3.26   0
  -3  -2   4  542.56    4.35   0
  -2  -2   4 1094.35    5.50   0
  -1  -2   4 4472.92   10.96   0
   0  -2   4 2605.44    8.14   0
   1  -2   4 5189.33   11.20   0
   2  -2   4  376.35    5.24   0
   3  -2   4 2527.93    9.55   0
   4  -2   4  456.78    5.28   0
   5  -2   4   38.70    4.72   0
   6  -2   4   22.78    3.58   0
   7  -2   4    7.44    4.07   0
   8  -2   4   23.74    4.20   0
  -9  -1   4  424.13    6.11   0
  -8  -1   4   35.81    4.08   0
  -7  -1   4  661.80    5.11   0
  -6  -1   4  284.42    3.99   0
  -5  -1   4  286.80    3.71   0
  -4  -1   4  197.13    3.41   0
  -3  -1   4 2452.08    7.38   0
  -2  -1   4 2595.68    7.77   0
  -1  -1   4 1600.81    6.70   0
   0  -1   4 6903.00   13.72   0
   1  -1   4 2007.32    9.21   0
   2  -1   4   57.78    3.49   0
   3  -1   4 2715.69   10.09   0
   4  -1   4 1470.31    7.18   0
   5  -1   4 2198.66    7.47   0
   6  -1   4  130.83    3.87   0
   7  -1   4    5.62    4.01   0
   8  -1   4  336.51    4.92   0
  -8   0   4  129.13    4.82   0
  -7   0   4  329.03    4.53   0
  -6   0   4   65.51    3.96   0
  -5   0   4   46.34    3.32   0
  -4   0   4    6.07    2.84   0
  -3   0   4  907.81    5.05   0
  -2   0   4 2409.69    7.48   0
  -1   0   4 5060.39   11.81   0
   0   0   4 2055.63    8.39   0
   1   0   4 4710.95   13.06   0
   2   0   4 9999.99   15.95   0
   3   0   4 1467.75    7.92   0
   4   0   4  764.41    6.75   0
   5   0   4 1884.69    6.76   0
   6   0   4  168.56    4.18   0
   7   0   4  461.07    4.68   0
   8   0   4  184.70    4.47   0
   9   0   4   13.10    4.49   0
  -8   1   4  248.44    5.12   0
  -7   1   4  715.55    5.24   0
  -6   1   4 1018.45    5.51   0
  -5   1   4 1770.40    6.52   0
  -4   1   4   43.23    3.12   0
  -3   1   4   26.83    3.13   0
  -2   1   4  326.50    3.83   0
  -1   1   4  108.91    3.32   0
   0   1   4  234.60    4.12   0
   1   1   4  817.04    6.28   0
   2   1   4  197.94    4.08   0
   3   1   4 1614.71    7.93   0
   4   1   4 2195.15    8.76   0
   5   1   4 1743.88    6.29   0
   6   1   4 1001.29    5.38   0
   7   1   4   23.77    3.26   0
   8   1   4   40.07    3.66   0
   9   1   4  148.03    4.57   0
  -8   2   4  194.93    4.85   0
  -7   2   4  129.77    4.15   0
  -6   2   4  358.89    4.71   0
  -5   2   4  313.36    4.39   0
  -4   2   4  997.22    5.29   0
  -3   2   4 1870.98    6.67   0
  -2   2   4   86.23    3.43   0
  -1   2   4  292.61    3.90   0
   0   2   4 1568.47    7.51   0
   1   2   4 1057.62    6.65   0
   2   2   4 1369.89    7.22   0
   3   2   4 1327.53    7.31   0
   4   2   4   64.08    3.88   0
   5   2   4   28.60    4.21   0
   6   2   4 1753.56    6.24   0
   7   2   4  458.84    4.38   0
   8   2   4 1322.70    6.01   0
   9   2   4   81.37    4.40   0
  -7   3   4  262.61    4.85   0
  -6   3   4 2130.51    7.33   0
  -5   3   4 1188.72    5.70   0
  -4   3   4 1233.11    6.09   0
  -3   3   4   35.53    3.51   0
  -2   3   4 1180.84    5.74   0
  -1   3   4 1717.35    7.07   0
   0   3   4  454.30    4.70   0
   1   3   4  744.05    5.54   0
   2   3   4  490.59    5.25   0
   3   3   4  184.00    4.26   0
   4   3   4 3326.41    9.83   0
   5   3   4 1955.65    7.82   0
   6   3   4  867.89    6.54   0
   7   3   4   48.40    3.38   0
   8   3   4 1597.42    6.20   0
   9   3   4  114.06    4.03   0
  -6   4   4  438.54    5.41   0
  -5   4   4  421.69    5.21   0
  -4   4   4 2759.12    8.66   0
  -3   4   4 1236.57    6.52   0
  -2   4   4 5093.13    9.90   0
  -1   4   4  326.38    3.98   0
   0   4   4 1874.46    7.05   0
   1   4   4  339.41    4.67   0
   2   4   4  206.87    4.10   0
   3   4   4  109.92    3.84   0
   4   4   4  509.50    4.67   0
   5   4   4   15.35    3.52   0
   6   4   4  962.03    6.20   0
   7   4   4  771.42    6.21   0
   8   4   4 1449.70    5.98   0
   9   4   4  524.24    4.89   0
  -6   5   4  100.75    5.02   0
  -5   5   4   43.32    4.70   0
  -4   5   4  213.18    4.59   0
  -3   5   4   40.12    4.10   0
  -2   5   4  512.11    4.86   0
  -1   5   4 1282.40    5.81   0
   0   5   4 2741.19    7.88   0
   1   5   4  200.24    3.77   0
   2   5   4 1897.19    7.04   0
   3   5   4  437.64    4.55   0
   4   5   4  356.08    4.11   0
   5   5   4  455.46    4.98   0
   6   5   4   13.04    4.15   0
   7   5   4   28.42    4.63   0
   8   5   4   18.01    5.00   0
   9   5   4  711.35    5.14   0
  -5   6   4   79.34    4.89   0
  -4   6   4   36.55    4.54   0
  -3   6   4  754.60    5.85   0
  -2   6   4  556.06    4.84   0
  -1   6   4  589.04    5.40   0
   0   6   4   61.40    4.12   0
   1   6   4  838.45    5.59   0
   2   6   4 1160.61    5.62   0
   3   6   4  364.88    4.75   0
   4   6   4 2893.39    8.06   0
   5   6   4  398.85    4.87   0
   6   6   4  411.66    4.73   0
   7   6   4  348.36    4.91   0
   8   6   4    3.92    4.81   0
   9   6   4   49.23    4.11   0
  -4   7   4  313.52    5.34   0
  -3   7   4   -0.48    4.50   0
  -2   7   4   15.54    4.23   0
  -1   7   4 1392.14    6.95   0
   0   7   4  361.80    4.69   0
   1   7   4 1707.72    6.80   0
   2   7   4  222.98    4.29   0
   3   7   4  768.04    5.27   0
   4   7   4  232.74    4.26   0
   5   7   4  274.28    4.53   0
   6   7   4  451.28    4.84   0
   7   7   4  348.23    4.84   0
   8   7   4  145.40    4.89   0
  -2   8   4   -1.10    4.62   0
  -1   8   4  332.89    4.88   0
   0   8   4   20.39    4.28   0
   1   8   4  368.62    4.68   0
   2   8   4  631.40    5.24   0
   3   8   4 1962.30    7.21   0
   4   8   4  739.87    5.20   0
   5   8   4 1778.69    6.89   0
   6   8   4   47.57    4.30   0
   7   8   4   87.06    4.43   0
  -1   9   4    5.11    4.57   0
   0   9   4   94.08    4.54   0
   1   9   4  120.15    4.74   0
   2   9   4   27.46    4.28   0
   3   9   4  253.68    5.16   0
   4   9   4  160.25    4.66   0
   5   9   4  532.69    5.12   0
   6   9   4  275.40    4.84   0
  -4  -9   5  641.13    5.69   0
  -3  -9   5  309.49    5.36   0
  -2  -9   5  203.99    5.31   0
  -1  -9   5   66.02    5.28   0
  -6  -8   5  281.44    4.78   0
  -5  -8   5 1370.21    6.49   0
  -4  -8   5  398.34    4.95   0
  -3  -8   5  385.80    5.01   0
  -2  -8   5  391.40    5.47   0
  -1  -8   5  497.51    5.88   0
   0  -8   5  241.04    4.84   0
   1  -8   5  329.01    5.08   0
   2  -8   5    7.64    3.97   0
  -7  -7   5   64.36    4.10   0
  -6  -7   5    9.91    3.84   0
  -5  -7   5 1602.90    6.41   0
  -4  -7   5  914.83    5.67   0
  -3  -7   5 1804.13    7.29   0
  -2  -7   5  328.85    5.06   0
  -1  -7   5 1407.38    7.52   0
   0  -7   5   11.50    4.19   0
   1  -7   5  172.64    4.41   0
   2  -7   5  129.66    4.55   0
   3  -7   5  339.24    4.86   0
  -8  -6   5    0.13    3.94   0
  -7  -6   5  191.06    4.38   0
  -6  -6   5  257.24    4.38   0
  -5  -6   5   12.84    3.98   0
  -4  -6   5  115.15    3.79   0
  -3  -6   5  518.34    4.84   0
  -2  -6   5   56.57    4.31   0
  -1  -6   5 1662.12    7.81   0
   0  -6   5 1077.49    5.86   0
   1  -6   5 1719.28    6.63   0
   2  -6   5   40.48    3.96   0
   3  -6   5  182.16    4.31   0
   4  -6   5  146.00    6.30   0
   5  -6   5   21.51    5.50   0
  -8  -5   5  158.83    4.41   0
  -7  -5   5  576.41    4.82   0
  -6  -5   5   72.15    3.84   0
  -5  -5   5   43.36    3.55   0
  -4  -5   5 1315.42    5.68   0
  -3  -5   5  136.08    3.89   0
  -2  -5   5 1656.42    6.77   0
  -1  -5   5  459.87    4.98   0
   0  -5   5  278.06    4.36   0
   1  -5   5 1527.53    6.44   0
   2  -5   5  540.45    5.17   0
   3  -5   5 1762.40    7.05   0
   4  -5   5  622.51    6.85   0
   5  -5   5  281.60    6.73   0
   6  -5   5   29.82    6.44   0
  -8  -4   5  235.57    4.74   0
  -7  -4   5  262.79    4.05   0
  -6  -4   5   10.15    3.45   0
  -5  -4   5  875.92    5.00   0
  -4  -4   5   40.03    3.12   0
  -3  -4   5  435.09    4.12   0
  -2  -4   5 1738.20    6.79   0
  -1  -4   5  200.39    4.06   0
   0  -4   5 4981.15    9.65   0
   1  -4   5 1864.27    6.77   0
   2  -4   5 1168.86    6.06   0
   3  -4   5  111.33    5.49   0
   4  -4   5  465.38    6.30   0
   5  -4   5  512.53    6.29   0
   6  -4   5  671.65    7.60   0
  -8  -3   5 1018.53    5.82   0
  -7  -3   5 1206.03    5.86   0
  -6  -3   5  455.93    4.33   0
  -5  -3   5  104.78    3.62   0
  -4  -3   5   16.86    3.20   0
  -3  -3   5   46.82    2.93   0
  -2  -3   5  118.15    3.61   0
  -1  -3   5  217.33    4.25   0
   0  -3   5 2168.89    7.32   0
   1  -3   5   24.18    3.61   0
   2  -3   5 3719.81    9.34   0
   3  -3   5 3072.38   10.35   0
   4  -3   5 3081.65   10.54   0
   5  -3   5  209.19    5.10   0
   6  -3   5 1223.55    8.47   0
   7  -3   5   30.84    4.83   0
  -8  -2   5  402.48    5.17   0
  -7  -2   5   32.93    4.16   0
  -6  -2   5  809.56    4.91   0
  -5  -2   5 1247.59    5.36   0
  -4  -2   5 3159.82    7.67   0
  -3  -2   5  823.39    4.82   0
  -2  -2   5  143.17    3.53   0
  -1  -2   5   24.03    3.22   0
   0  -2   5   60.65    3.96   0
   1  -2   5 1080.01    5.81   0
   2  -2   5  147.17    3.97   0
   3  -2   5  147.95    4.37   0
   4  -2   5 1677.27    8.12   0
   5  -2   5  267.26    6.05   0
   6  -2   5 1762.76    7.45   0
   7  -2   5  561.28    5.98   0
   8  -2   5  170.32    5.79   0
  -8  -1   5  752.65    5.57   0
  -7  -1   5  140.78    4.19   0
  -6  -1   5 1383.56    6.52   0
  -5  -1   5   75.68    3.35   0
  -4  -1   5  685.75    4.44   0
  -3  -1   5  889.61    4.91   0
  -2  -1   5 1022.98    5.48   0
  -1  -1   5  895.72    5.01   0
   0  -1   5 2550.79    9.16   0
   1  -1   5   82.84    3.61   0
   2  -1   5  782.33    6.10   0
   3  -1   5 1085.07    7.04   0
   4  -1   5 1199.55    7.28   0
   5  -1   5   25.63    3.82   0
   6  -1   5  173.44    4.23   0
   7  -1   5  113.16    4.40   0
   8  -1   5  402.46    5.33   0
  -8   0   5    7.92    4.06   0
  -7   0   5   73.55    4.20   0
  -6   0   5  610.39    4.61   0
  -5   0   5 1023.16    5.38   0
  -4   0   5 5973.43   10.36   0
  -3   0   5 1012.85    5.26   0
  -2   0   5  393.15    4.06   0
  -1   0   5  814.46    5.08   0
   0   0   5 1383.60    6.60   0
   1   0   5  122.52    3.56   0
   2   0   5 1371.75    7.41   0
   3   0   5   24.32    3.98   0
   4   0   5   11.23    3.91   0
   5   0   5 1205.53    5.70   0
   6   0   5 1046.20    5.86   0
   7   0   5  610.75    5.52   0
   8   0   5  431.73    5.00   0
  -8   1   5    4.19    4.18   0
  -7   1   5  589.58    5.21   0
  -6   1   5  263.46    4.21   0
  -5   1   5  280.83    4.28   0
  -4   1   5  765.20    4.75   0
  -3   1   5 2113.06    6.88   0
  -2   1   5 3712.59    9.05   0
  -1   1   5 3015.75    8.55   0
   0   1   5 8137.70   15.02   0
   1   1   5 1540.09    7.46   0
   2   1   5 2062.27    8.65   0
   3   1   5  417.87    5.37   0
   4   1   5   25.42    3.86   0
   5   1   5   11.96    2.99   0
   6   1   5  321.77    4.52   0
   7   1   5  593.45    4.79   0
   8   1   5   76.15    4.18   0
   9   1   5  414.30    5.89   0
  -7   2   5  104.92    4.45   0
  -6   2   5    6.30    4.14   0
  -5   2   5  571.73    4.93   0
  -4   2   5   13.20    3.56   0
  -3   2   5 1734.96    6.41   0
  -2   2   5   97.25    3.51   0
  -1   2   5  256.28    4.06   0
   0   2   5 2577.87    9.08   0
   1   2   5  580.48    5.30   0
   2   2   5 2261.13    8.75   0
   3   2   5 1868.87    8.10   0
   4   2   5  724.13    5.75   0
   5   2   5    9.31    4.16   0
   6   2   5    3.93    3.98   0
   7   2   5  364.96    4.22   0
   8   2   5   12.78    3.98   0
   9   2   5  246.11    4.62   0
  -7   3   5   36.80    4.31   0
  -6   3   5  315.23    4.76   0
  -5   3   5   50.29    4.02   0
  -4   3   5  701.62    5.37   0
  -3   3   5  158.10    4.04   0
  -2   3   5   26.97    3.22   0
  -1   3   5 4721.28   11.17   0
   0   3   5  309.40    4.64   0
   1   3   5 2011.55    8.16   0
   2   3   5  847.31    6.01   0
   3   3   5  833.20    5.85   0
   4   3   5  262.63    4.29   0
   5   3   5 3228.38    9.53   0
   6   3   5 1457.95    8.05   0
   7   3   5  628.29    4.86   0
   8   3   5    6.54    3.76   0
   9   3   5   40.14    4.02   0
  -6   4   5   65.57    4.48   0
  -5   4   5  243.04    4.56   0
  -4   4   5   13.26    3.65   0
  -3   4   5   30.58    3.89   0
  -2   4   5  529.17    4.66   0
  -1   4   5  112.65    3.98   0
   0   4   5  130.08    3.70   0
   1   4   5 1382.30    6.26   0
   2   4   5  197.63    4.29   0
   3   4   5 4658.63   10.45   0
   4   4   5  728.68    5.24   0
   5   4   5 1274.00    6.60   0
   6   4   5   18.60    4.80   0
   7   4   5  956.11    7.04   0
   8   4   5   46.60    4.07   0
   9   4   5  355.37    5.02   0
  -5   5   5 1497.32    7.82   0
  -4   5   5  507.47    5.09   0
  -3   5   5  226.39    4.12   0
  -2   5   5  200.87    4.67   0
  -1   5   5    3.96    3.84   0
   0   5   5 1234.94    5.65   0
   1   5   5   98.68    3.68   0
   2   5   5   36.18    3.74   0
   3   5   5  711.74    5.12   0
   4   5   5  674.19    5.11   0
   5   5   5 2366.29    7.75   0
   6   5   5 1166.62    6.35   0
   7   5   5 1348.10    7.17   0
   8   5   5    7.29    5.38   0
   9   5   5  195.01    4.60   0
  -5   6   5  182.60    5.54   0
  -4   6   5  281.20    5.18   0
  -3   6   5  870.55    5.90   0
  -2   6   5   92.63    4.48   0
  -1   6   5 1117.49    5.81   0
   0   6   5   18.03    3.92   0
   1   6   5   63.72    4.08   0
   2   6   5 1185.87    6.43   0
   3   6   5   66.33    4.13   0
   4   6   5 1331.41    6.39   0
   5   6   5  328.71    4.49   0
   6   6   5  115.83    4.73   0
   7   6   5  426.68    5.46   0
   8   6   5  796.40    6.64   0
  -3   7   5  548.89    5.58   0
  -2   7   5  277.45    4.74   0
  -1   7   5  212.62    4.67   0
   0   7   5  390.82    4.86   0
   1   7   5 1679.76    6.36   0
   2   7   5  218.49    4.18   0
   3   7   5  697.92    4.93   0
   4   7   5   84.44    3.78   0
   5   7   5   21.12    4.37   0
   6   7   5  781.77    5.89   0
   7   7   5  120.06    4.56   0
   8   7   5  151.18    5.15   0
  -2   8   5  502.68    6.09   0
  -1   8   5  748.71    5.83   0
   0   8   5  482.61    5.18   0
   1   8   5  251.95    4.71   0
   2   8   5   98.13    4.20   0
   3   8   5   15.50    4.54   0
   4   8   5    3.11    4.16   0
   5   8   5  328.64    4.75   0
   6   8   5    2.44    4.47   0
   7   8   5   14.90    4.33   0
   0   9   5  669.84    5.55   0
   1   9   5  349.18    5.15   0
   2   9   5 1026.80    5.82   0
   3   9   5  312.02    5.05   0
   4   9   5   60.59    4.36   0
   5   9   5    7.47    4.36   0
   6   9   5    2.92    4.16   0
  -6  -8   6    1.98    3.99   0
  -5  -8   6  322.29    4.89   0
  -4  -8   6   91.43    4.39   0
  -3  -8   6   41.35    4.88   0
  -2  -8   6  453.50    6.06   0
  -1  -8   6  495.89    5.39   0
   0  -8   6  742.39    5.89   0
   1  -8   6   27.44    4.73   0
  -7  -7   6  336.67    4.71   0
  -6  -7   6  249.97    4.39   0
  -5  -7   6   26.66    3.98   0
  -4  -7   6   14.18    4.31   0
  -3  -7   6  151.17    4.42   0
  -2  -7   6   13.14    4.72   0
  -1  -7   6   30.54    4.32   0
   0  -7   6  291.66    4.82   0
   1  -7   6  573.49    5.26   0
   2  -7   6 1543.15    7.72   0
   3  -7   6  167.94    4.86   0
  -7  -6   6  101.47    4.15   0
  -6  -6   6 1754.40    6.47   0
  -5  -6   6  349.88    4.40   0
  -4  -6   6  892.69    5.57   0
  -3  -6   6   19.86    3.84   0
  -2  -6   6   96.51    4.24   0
  -1  -6   6  535.48    4.58   0
   0  -6   6  199.69    4.18   0
   1  -6   6  136.90    4.56   0
   2  -6   6   67.83    4.43   0
   3  -6   6  215.64    4.52   0
   4  -6   6 1259.88    7.52   0
  -8  -5   6  715.29    5.63   0
  -7  -5   6  178.09    4.14   0
  -6  -5   6  214.90    3.84   0
  -5  -5   6  149.71    3.69   0
  -4  -5   6 1330.90    5.82   0
  -3  -5   6  467.67    4.64   0
  -2  -5   6 3086.15    9.02   0
  -1  -5   6   94.66    3.93   0
   0  -5   6 1106.74    5.63   0
   1  -5   6  246.82    4.67   0
   2  -5   6  241.08    4.48   0
   3  -5   6  124.89    4.40   0
   4  -5   6   19.95    4.47   0
   5  -5   6  638.04    7.08   0
  -8  -4   6    4.27    4.02   0
  -7  -4   6  170.12    4.23   0
  -6  -4   6  271.58    4.33   0
  -5  -4   6 1735.55    6.03   0
  -4  -4   6  820.49    4.84   0
  -3  -4   6  809.38    4.91   0
  -2  -4   6 1183.74    5.82   0
  -1  -4   6   26.77    3.99   0
   0  -4   6 1532.69    5.93   0
   1  -4   6  798.04    5.20   0
   2  -4   6 1743.37    6.90   0
   3  -4   6   62.28    4.32   0
   4  -4   6   12.26    4.99   0
   5  -4   6  755.32    8.46   0
   6  -4   6   32.83    6.38   0
  -8  -3   6   26.16    4.19   0
  -7  -3   6   73.86    3.90   0
  -6  -3   6    6.88    3.78   0
  -5  -3   6  269.48    4.13   0
  -4  -3   6  179.72    3.55   0
  -3  -3   6 3850.91    8.54   0
  -2  -3   6 1467.61    6.10   0
  -1  -3   6 1230.78    6.41   0
   0  -3   6 1554.21    6.16   0
   1  -3   6  456.42    4.48   0
   2  -3   6   23.28    3.68   0
   3  -3   6   61.19    3.85   0
   4  -3   6  344.64    6.10   0
   5  -3   6    4.02    5.35   0
   6  -3   6    7.04    6.02   0
   7  -3   6  302.35    5.93   0
  -8  -2   6  102.52    4.57   0
  -7  -2   6    1.53    3.69   0
  -6  -2   6   49.22    3.53   0
  -5  -2   6 2548.58    7.00   0
  -4  -2   6  276.59    3.66   0
  -3  -2   6 1018.05    4.98   0
  -2  -2   6 1344.04    5.78   0
  -1  -2   6 1585.40    6.96   0
   0  -2   6  716.15    5.84   0
   1  -2   6 7413.39   12.48   0
   2  -2   6 2475.93    8.02   0
   3  -2   6 1091.44    6.90   0
   4  -2   6   32.35    4.86   0
   5  -2   6   38.78    4.79   0
   6  -2   6   -1.45    4.15   0
   7  -2   6    2.11    4.69   0
  -8  -1   6   56.10    4.30   0
  -7  -1   6  594.73    5.31   0
  -6  -1   6 1448.39    5.80   0
  -5  -1   6   -1.00    3.33   0
  -4  -1   6   86.53    3.24   0
  -3  -1   6  129.42    3.24   0
  -2  -1   6  716.48    4.77   0
  -1  -1   6 1065.35    5.50   0
   0  -1   6  340.50    4.55   0
   1  -1   6 2116.44    8.87   0
   2  -1   6   38.79    3.93   0
   3  -1   6 1706.75    7.95   0
   4  -1   6  781.08    6.30   0
   5  -1   6 1358.77    7.96   0
   6  -1   6  118.21    4.46   0
   7  -1   6   75.11    4.60   0
   8  -1   6   21.45    4.58   0
  -8   0   6  157.36    4.59   0
  -7   0   6  411.40    4.85   0
  -6   0   6   47.73    3.84   0
  -5   0   6  254.82    4.32   0
  -4   0   6   87.68    3.34   0
  -3   0   6  382.84    3.95   0
  -2   0   6 1035.28    5.37   0
  -1   0   6   20.77    3.38   0
   0   0   6 1123.21    6.17   0
   1   0   6 2481.67    8.63   0
   2   0   6 1792.95    8.02   0
   3   0   6 3573.30   10.60   0
   4   0   6   89.54    4.32   0
   5   0   6 1259.71    8.37   0
   6   0   6  409.79    4.64   0
   7   0   6 1263.69    6.37   0
   8   0   6  268.49    5.03   0
  -7   1   6 1852.67    7.17   0
  -6   1   6  404.43    4.86   0
  -5   1   6 1794.29    6.34   0
  -4   1   6  356.87    4.20   0
  -3   1   6  851.18    4.95   0
  -2   1   6  229.39    3.87   0
  -1   1   6  455.14    4.56   0
   0   1   6   49.26    3.70   0
   1   1   6  157.26    4.20   0
   2   1   6   30.27    4.23   0
   3   1   6  142.82    4.22   0
   4   1   6 2333.08    9.02   0
   5   1   6 3248.78   10.59   0
   6   1   6  401.11    4.76   0
   7   1   6  778.65    5.54   0
   8   1   6  132.57    4.36   0
  -7   2   6  137.63    4.52   0
  -6   2   6  287.12    4.70   0
  -5   2   6  411.12    4.19   0
  -4   2   6  361.58    4.44   0
  -3   2   6 4052.80    8.71   0
  -2   2   6   56.98    3.27   0
  -1   2   6  693.01    5.22   0
   0   2   6  391.07    4.68   0
   1   2   6  126.19    4.24   0
   2   2   6 2919.75    9.47   0
   3   2   6   34.80    4.20   0
   4   2   6  370.56    5.03   0
   5   2   6  124.22    4.37   0
   6   2   6 1210.23    5.91   0
   7   2   6  483.03    5.08   0
   8   2   6  833.59    5.55   0
   9   2   6  277.58    4.88   0
  -7   3   6   46.03    4.76   0
  -6   3   6 1347.13    6.57   0
  -5   3   6  272.27    4.71   0
  -4   3   6  669.84    4.99   0
  -3   3   6  580.86    4.78   0
  -2   3   6  438.19    4.23   0
  -1   3   6  216.82    4.04   0
   0   3   6   74.62    3.63   0
   1   3   6 2892.85    8.52   0
   2   3   6   12.37    3.95   0
   3   3   6   18.14    3.67   0
   4   3   6  905.90    5.99   0
   5   3   6  573.00    5.57   0
   6   3   6 2019.17    8.86   0
   7   3   6   69.16    4.05   0
   8   3   6  789.71    5.73   0
   9   3   6   56.73    4.47   0
  -6   4   6   12.20    4.27   0
  -5   4   6   68.67    4.20   0
  -4   4   6 1784.38    6.85   0
  -3   4   6  362.11    4.54   0
  -2   4   6 3731.01    8.64   0
  -1   4   6 1079.70    5.50   0
   0   4   6 1071.55    5.50   0
   1   4   6  558.06    4.85   0
   2   4   6 1702.37    7.21   0
   3   4   6  587.34    5.00   0
   4   4   6  705.75    5.18   0
   5   4   6  280.99    5.14   0
   6   4   6   35.29    4.48   0
   7   4   6  114.90    5.43   0
   8   4   6  949.40    5.82   0
   9   4   6   20.41    4.07   0
  -5   5   6    2.85    4.29   0
  -4   5   6   93.95    4.37   0
  -3   5   6   22.74    4.18   0
  -2   5   6  327.89    4.39   0
  -1   5   6   76.58    4.04   0
   0   5   6 3173.58    8.15   0
   1   5   6 1092.45    5.51   0
   2   5   6 2447.40    8.00   0
   3   5   6  190.25    4.43   0
   4   5   6  293.45    4.51   0
   5   5   6  220.72    4.47   0
   6   5   6  267.15    4.99   0
   7   5   6   36.86    4.87   0
   8   5   6    8.77    5.70   0
  -4   6   6   89.25    4.74   0
  -3   6   6  375.45    4.96   0
  -2   6   6  371.42    4.69   0
  -1   6   6  378.55    4.46   0
   0   6   6  478.09    4.72   0
   1   6   6  325.83    4.63   0
   2   6   6  772.13    5.57   0
   3   6   6  349.61    4.96   0
   4   6   6 2527.42    7.97   0
   5   6   6  168.68    4.36   0
   6   6   6  258.78    4.99   0
   7   6   6    3.26    4.51   0
   8   6   6   -0.20    5.07   0
  -3   7   6   59.46    4.85   0
  -2   7   6    5.10    4.28   0
  -1   7   6  186.38    4.67   0
   0   7   6  136.93    4.48   0
   1   7   6 1687.70    6.71   0
   2   7   6  743.95    5.28   0
   3   7   6   27.18    4.43   0
   4   7   6  241.57    4.96   0
   5   7   6  147.64    4.30   0
   6   7   6  340.29    4.92   0
   7   7   6  222.19    5.00   0
   8   7   6  299.97    6.05   0
  -2   8   6  117.84    4.90   0
  -1   8   6    7.84    4.39   0
   0   8   6   61.44    4.41   0
   1   8   6   34.79    4.03   0
   2   8   6   33.86    4.08   0
   3   8   6  736.87    5.63   0
   4   8   6  622.65    5.47   0
   5   8   6  739.39    5.88   0
   6   8   6  381.72    5.47   0
   7   8   6   97.06    4.80   0
   1   9   6  169.00    4.54   0
   2   9   6    1.33    4.15   0
   3   9   6   43.30    4.32   0
   4   9   6   11.43    4.46   0
   5   9   6  460.79    5.49   0
  -5  -8   7  162.15    4.61   0
  -4  -8   7  359.79    5.30   0
  -3  -8   7  103.80    4.80   0
  -2  -8   7  230.09    4.67   0
  -1  -8   7  523.22    5.23   0
   0  -8   7  509.04    5.30   0
  -6  -7   7  126.08    4.30   0
  -5  -7   7  283.65    4.74   0
  -4  -7   7  260.40    4.81   0
  -3  -7   7 1581.13    7.10   0
  -2  -7   7  862.55    5.46   0
  -1  -7   7 1061.60    5.78   0
   0  -7   7   28.01    4.09   0
   1  -7   7  413.64    5.48   0
   2  -7   7  215.48    5.29   0
  -7  -6   7    4.63    3.68   0
  -6  -6   7    2.73    4.07   0
  -5  -6   7  265.41    4.26   0
  -4  -6   7    7.80    3.87   0
  -3  -6   7  234.81    4.97   0
  -2  -6   7  140.31    4.55   0
  -1  -6   7 1435.43    6.32   0
   0  -6   7  370.71    4.95   0
   1  -6   7 2092.96    7.46   0
   2  -6   7  169.33    4.71   0
   3  -6   7  269.81    5.61   0
   4  -6   7   19.23    4.83   0
  -7  -5   7  212.02    4.56   0
  -6  -5   7  131.56    3.81   0
  -5  -5   7   45.57    3.73   0
  -4  -5   7 1387.70    5.89   0
  -3  -5   7  816.28    5.25   0
  -2  -5   7  403.29    4.73   0
  -1  -5   7 1377.26    6.06   0
   0  -5   7   97.06    4.19   0
   1  -5   7  373.95    4.48   0
   2  -5   7  936.69    6.22   0
   3  -5   7 2064.38    7.48   0
   4  -5   7  235.71    4.98   0
   5  -5   7  478.90    6.87   0
  -8  -4   7  183.38    4.79   0
  -7  -4   7  194.18    4.55   0
  -6  -4   7   30.25    3.56   0
  -5  -4   7 1279.62    5.64   0
  -4  -4   7   10.32    3.60   0
  -3  -4   7  504.08    4.64   0
  -2  -4   7    0.77    3.82   0
  -1  -4   7   31.61    3.97   0
   0  -4   7 1294.92    6.02   0
   1  -4   7 1417.73    6.22   0
   2  -4   7  533.68    5.15   0
   3  -4   7  274.76    4.52   0
   4  -4   7  315.38    5.41   0
   5  -4   7  278.23    6.35   0
   6  -4   7  254.09    8.48   0
  -8  -3   7  336.36    5.21   0
  -7  -3   7 1136.98    5.97   0
  -6  -3   7  384.40    4.84   0
  -5  -3   7  745.36    5.13   0
  -4  -3   7   74.76    3.59   0
  -3  -3   7  311.22    4.06   0
  -2  -3   7   31.99    3.26   0
  -1  -3   7 1559.31    7.04   0
   0  -3   7   16.55    3.36   0
   1  -3   7   36.96    3.53   0
   2  -3   7  881.16    5.77   0
   3  -3   7 1355.38    6.89   0
   4  -3   7 1968.01    8.83   0
   5  -3   7  409.83    7.04   0
   6  -3   7  832.82    9.15   0
  -8  -2   7  158.34    4.50   0
  -7  -2   7  258.75    4.32   0
  -6  -2   7  662.29    5.05   0
  -5  -2   7  746.51    5.07   0
  -4  -2   7 1164.88    5.55   0
  -3  -2   7 3113.96    7.70   0
  -2  -2   7 1004.12    5.16   0
  -1  -2   7  283.21    4.08   0
   0  -2   7  114.05    4.15   0
   1  -2   7   48.39    3.54   0
   2  -2   7  542.32    4.61   0
   3  -2   7  102.56    4.21   0
   4  -2   7  122.60    5.33   0
   5  -2   7  334.09    6.46   0
   6  -2   7 1788.45    8.12   0
   7  -2   7  384.00    5.73   0
  -8  -1   7  855.87    6.41   0
  -7  -1   7  164.85    4.35   0
  -6  -1   7  814.49    5.25   0
  -5  -1   7  474.10    4.45   0
  -4  -1   7  356.07    4.27   0
  -3  -1   7   93.42    3.13   0
  -2  -1   7 1741.51    6.35   0
  -1  -1   7 1148.12    5.28   0
   0  -1   7  413.40    4.89   0
   1  -1   7  503.20    4.82   0
   2  -1   7   28.04    4.27   0
   3  -1   7  271.18    4.78   0
   4  -1   7  760.15    6.73   0
   5  -1   7   41.63    4.68   0
   6  -1   7  601.19    5.67   0
   7  -1   7   76.41    4.84   0
  -7   0   7   78.13    4.47   0
  -6   0   7  320.02    4.23   0
  -5   0   7   59.00    3.71   0
  -4   0   7 2214.13    7.04   0
  -3   0   7  741.58    4.77   0
  -2   0   7 1890.67    6.47   0
  -1   0   7  230.76    3.74   0
   0   0   7  165.17    3.90   0
   1   0   7  490.12    4.84   0
   2   0   7 2565.36    8.98   0
   3   0   7  305.44    5.04   0
   4   0   7    3.03    4.25   0
   5   0   7   10.58    5.01   0
   6   0   7  658.52    5.70   0
   7   0   7  427.64    5.13   0
   8   0   7  251.78    5.11   0
  -7   1   7   47.68    4.25   0
  -6   1   7    1.59    3.99   0
  -5   1   7   45.67    3.48   0
  -4   1   7  625.87    4.79   0
  -3   1   7  227.38    3.85   0
  -2   1   7 1363.93    6.04   0
  -1   1   7 2520.69    7.69   0
   0   1   7 7409.09   13.32   0
   1   1   7  559.07    5.31   0
   2   1   7 3648.57   10.24   0
   3   1   7  171.91    4.40   0
   4   1   7 1097.09    6.64   0
   5   1   7   10.50    4.53   0
   6   1   7  458.96    4.53   0
   7   1   7    7.12    4.06   0
   8   1   7    4.92    4.55   0
  -7   2   7  138.38    4.64   0
  -6   2   7  542.74    5.08   0
  -5   2   7   67.92    4.11   0
  -4   2   7    2.49    3.59   0
  -3   2   7  702.74    4.95   0
  -2   2   7  296.47    3.88   0
  -1   2   7   68.31    3.92   0
   0   2   7  159.64    3.85   0
   1   2   7 1326.88    6.49   0
   2   2   7 4112.38   10.61   0
   3   2   7 1645.70    7.39   0
   4   2   7 2893.93    9.14   0
   5   2   7   85.05    4.56   0
   6   2   7  178.45    4.08   0
   7   2   7  125.21    4.52   0
   8   2   7  195.89    4.67   0
  -6   3   7  313.97    4.98   0
  -5   3   7   71.21    4.24   0
  -4   3   7  328.44    4.46   0
  -3   3   7  275.03    4.43   0
  -2   3   7  205.81    4.54   0
  -1   3   7 1751.23    6.68   0
   0   3   7  779.94    5.14   0
   1   3   7 1261.46    6.19   0
   2   3   7  518.66    5.05   0
   3   3   7  759.40    5.36   0
   4   3   7   71.57    4.18   0
   5   3   7 1666.18    7.70   0
   6   3   7  912.98    6.49   0
   7   3   7  166.87    4.47   0
   8   3   7  511.29    5.30   0
  -5   4   7   63.68    4.39   0
  -4   4   7   67.79    4.06   0
  -3   4   7   20.45    4.25   0
  -2   4   7  446.29    4.68   0
  -1   4   7    3.01    3.79   0
   0   4   7  319.39    4.16   0
   1   4   7  216.31    4.02   0
   2   4   7  827.84    5.72   0
   3   4   7 2518.41    8.25   0
   4   4   7   32.26    3.99   0
   5   4   7  911.70    5.89   0
   6   4   7   43.04    4.77   0
   7   4   7  393.26    6.01   0
   8   4   7   60.96    4.14   0
  -5   5   7  799.49    6.20   0
  -4   5   7  442.22    5.06   0
  -3   5   7  720.49    5.25   0
  -2   5   7  437.98    4.60   0
  -1   5   7   86.43    3.87   0
   0   5   7   81.18    4.17   0
   1   5   7   49.46    3.83   0
   2   5   7  128.15    4.30   0
   3   5   7   52.18    4.31   0
   4   5   7  141.31    4.37   0
   5   5   7 1013.41    5.92   0
   6   5   7  551.16    5.58   0
   7   5   7 1885.68    7.84   0
   8   5   7   89.21    4.54   0
  -4   6   7   83.47    4.35   0
  -3   6   7  814.71    5.69   0
  -2   6   7  651.51    5.01   0
  -1   6   7 1339.28    6.11   0
   0   6   7  330.27    4.53   0
   1   6   7  299.97    4.14   0
   2   6   7  166.04    3.97   0
   3   6   7  224.72    4.56   0
   4   6   7   97.92    4.27   0
   5   6   7  245.39    4.95   0
   6   6   7  218.07    4.75   0
   7   6   7  446.30    5.81   0
   8   6   7  484.64    6.32   0
  -2   7   7  236.80    4.58   0
  -1   7   7  427.72    5.21   0
   0   7   7   16.76    4.02   0
   1   7   7  682.13    5.19   0
   2   7   7  450.38    5.01   0
   3   7   7  908.51    5.45   0
   4   7   7   13.36    4.26   0
   5   7   7   48.81    4.16   0
   6   7   7  300.71    5.12   0
   7   7   7  143.75    4.71   0
  -1   8   7  395.19    5.06   0
   0   8   7  243.35    4.94   0
   1   8   7  398.91    5.16   0
   2   8   7   30.10    4.26   0
   3   8   7  133.53    4.56   0
   4   8   7    6.83    4.53   0
   5   8   7  256.30    5.11   0
   6   8   7    1.93    4.33   0
   2   9   7  785.66    5.71   0
   3   9   7  689.43    6.00   0
   4   9   7  143.96    4.71   0
  -2  -8   8  442.96    4.92   0
  -5  -7   8   92.96    4.41   0
  -4  -7   8   20.87    4.51   0
  -3  -7   8  189.99    5.26   0
  -2  -7   8   11.81    4.40   0
  -1  -7   8  243.76    4.96   0
   0  -7   8    1.13    4.30   0
   1  -7   8   37.05    4.51   0
  -6  -6   8  733.37    6.03   0
  -5  -6   8  624.78    5.99   0
  -4  -6   8  755.72    5.74   0
  -3  -6   8  574.47    5.67   0
  -2  -6   8  174.58    4.41   0
  -1  -6   8    4.65    4.09   0
   0  -6   8   81.52    4.35   0
   1  -6   8   61.40    4.30   0
   2  -6   8   70.95    4.97   0
   3  -6   8    4.55    4.64   0
  -7  -5   8   43.54    4.07   0
  -6  -5   8  744.52    5.41   0
  -5  -5   8   50.38    3.94   0
  -4  -5   8  407.45    4.98   0
  -3  -5   8  272.14    4.77   0
  -2  -5   8 2749.70    9.22   0
  -1  -5   8 1161.46    5.72   0
   0  -5   8  737.34    5.25   0
   1  -5   8    9.61    4.54   0
   2  -5   8    0.60    4.40   0
   3  -5   8  193.33    5.07   0
   4  -5   8   55.12    5.17   0
  -7  -4   8   95.51    4.09   0
  -6  -4   8  198.45    4.31   0
  -5  -4   8  386.03    4.64   0
  -4  -4   8 1675.75    6.15   0
  -3  -4   8  157.94    3.90   0
  -2  -4   8  569.64    5.31   0
  -1  -4   8   89.89    3.96   0
   0  -4   8 1282.42    5.94   0
   1  -4   8  154.62    3.98   0
   2  -4   8  713.27    5.64   0
   3  -4   8  231.58    4.97   0
   4  -4   8   31.22    5.18   0
   5  -4   8  315.98    6.48   0
  -7  -3   8    0.72    3.95   0
  -6  -3   8   23.46    3.67   0
  -5  -3   8    5.86    3.94   0
  -4  -3   8   66.04    3.71   0
  -3  -3   8  600.32    5.03   0
  -2  -3   8 2120.27    7.50   0
  -1  -3   8  478.67    5.44   0
   0  -3   8 1948.85    6.64   0
   1  -3   8   33.24    3.94   0
   2  -3   8   25.63    4.20   0
   3  -3   8  188.84    4.69   0
   4  -3   8  556.80    5.94   0
   5  -3   8   10.06    5.24   0
   6  -3   8  261.17    7.38   0
  -7  -2   8    8.73    3.84   0
  -6  -2   8  103.89    3.90   0
  -5  -2   8  208.70    4.26   0
  -4  -2   8    3.84    3.52   0
  -3  -2   8 1055.27    5.44   0
  -2  -2   8  104.53    3.70   0
  -1  -2   8  310.31    4.52   0
   0  -2   8 1611.04    7.34   0
   1  -2   8 2994.78    8.05   0
   2  -2   8 2385.25    7.61   0
   3  -2   8 1455.64    7.17   0
   4  -2   8 1273.07    8.75   0
   5  -2   8   99.22    5.67   0
   6  -2   8   62.10    5.52   0
   7  -2   8    5.07    5.16   0
  -7  -1   8  431.94    4.98   0
  -6  -1   8 1098.62    5.92   0
  -5  -1   8  252.86    4.27   0
  -4  -1   8 1106.34    5.52   0
  -3  -1   8   75.77    3.57   0
  -2  -1   8  262.65    3.87   0
  -1  -1   8 2183.07    7.00   0
   0  -1   8   18.24    3.61   0
   1  -1   8 1032.55    6.16   0
   2  -1   8  297.66    4.86   0
   3  -1   8 2025.59    9.23   0
   4  -1   8 1024.96    7.22   0
   5  -1   8 1389.79    8.65   0
   6  -1   8  711.68    6.30   0
   7  -1   8  142.23    5.25   0
  -7   0   8  438.90    5.02   0
  -6   0   8  134.17    4.09   0
  -5   0   8   64.77    4.07   0
  -4   0   8  215.64    4.06   0
  -3   0   8   27.00    3.64   0
  -2   0   8  243.74    3.92   0
  -1   0   8  255.12    4.10   0
   0   0   8    6.29    3.43   0
   1   0   8 2835.58    8.74   0
   2   0   8   83.35    3.86   0
   3   0   8 3287.53   10.10   0
   4   0   8  146.23    5.22   0
   5   0   8  490.97    5.98   0
   6   0   8  122.14    4.75   0
   7   0   8  677.76    6.34   0
  -7   1   8  795.90    5.87   0
  -6   1   8  611.47    5.17   0
  -5   1   8 1022.38    5.64   0
  -4   1   8  211.13    3.94   0
  -3   1   8  728.94    4.89   0
  -2   1   8  131.37    3.79   0
  -1   1   8  150.39    3.92   0
   0   1   8   61.23    3.77   0
   1   1   8  404.01    4.89   0
   2   1   8   84.02    3.84   0
   3   1   8  535.93    5.36   0
   4   1   8  218.17    4.99   0
   5   1   8 1132.11    7.24   0
   6   1   8  186.47    4.60   0
   7   1   8  871.43    6.38   0
   8   1   8   53.81    4.77   0
  -6   2   8   42.81    4.24   0
  -5   2   8  783.41    5.37   0
  -4   2   8  240.47    4.40   0
  -3   2   8 1653.35    6.23   0
  -2   2   8  867.13    5.64   0
  -1   2   8 3981.86    9.26   0
   0   2   8   55.98    3.73   0
   1   2   8   26.76    3.86   0
   2   2   8  595.53    5.16   0
   3   2   8  237.36    4.57   0
   4   2   8  144.86    4.63   0
   5   2   8   23.93    4.55   0
   6   2   8   89.63    5.16   0
   7   2   8  428.88    5.15   0
   8   2   8  747.70    5.96   0
  -6   3   8  493.24    5.40   0
  -5   3   8  310.91    4.82   0
  -4   3   8  597.90    5.05   0
  -3   3   8  954.25    5.16   0
  -2   3   8  221.44    4.73   0
  -1   3   8 1101.82    6.13   0
   0   3   8  872.00    5.57   0
   1   3   8 1796.25    6.73   0
   2   3   8  206.75    4.28   0
   3   3   8  222.85    4.60   0
   4   3   8  529.17    5.39   0
   5   3   8    8.35    4.31   0
   6   3   8 1211.45    7.70   0
   7   3   8  125.44    4.49   0
   8   3   8  428.77    5.41   0
  -5   4   8  110.37    4.40   0
  -4   4   8  444.36    5.28   0
  -3   4   8  779.73    5.77   0
  -2   4   8 1372.30    5.78   0
  -1   4   8 1514.32    6.17   0
   0   4   8 1139.64    5.76   0
   1   4   8  115.56    4.26   0
   2   4   8  190.36    4.39   0
   3   4   8  919.41    5.99   0
   4   4   8  740.57    5.77   0
   5   4   8  371.87    4.82   0
   6   4   8   12.77    4.57   0
   7   4   8   15.58    5.04   0
   8   4   8  694.41    5.65   0
  -4   5   8    2.16    4.21   0
  -3   5   8   67.06    3.98   0
  -2   5   8  261.89    4.36   0
  -1   5   8   22.66    3.95   0
   0   5   8  419.72    4.30   0
   1   5   8 1060.08    5.68   0
   2   5   8 1162.59    5.86   0
   3   5   8  157.94    4.42   0
   4   5   8  319.39    4.49   0
   5   5   8   25.67    4.47   0
   6   5   8   82.44    4.58   0
   7   5   8   57.24    4.98   0
   8   5   8   -0.25    4.53   0
  -3   6   8   10.20    4.12   0
  -2   6   8  342.99    4.73   0
  -1   6   8  107.97    4.24   0
   0   6   8  299.36    4.43   0
   1   6   8   27.82    4.18   0
   2   6   8  503.84    5.13   0
   3   6   8  715.20    5.52   0
   4   6   8 1666.60    7.17   0
   5   6   8  417.46    5.26   0
   6   6   8  493.48    5.76   0
   7   6   8   63.01    4.85   0
  -2   7   8   55.47    4.23   0
  -1   7   8    6.57    4.09   0
   0   7   8  283.80    4.50   0
   1   7   8  311.79    4.47   0
   2   7   8 1195.64    5.84   0
   3   7   8  241.50    4.48   0
   4   7   8  504.00    5.29   0
   5   7   8   55.77    4.53   0
   6   7   8  582.48    5.84   0
   7   7   8  273.86    4.87   0
   0   8   8  157.98    4.39   0
   1   8   8    7.04    4.09   0
   2   8   8    4.30    4.15   0
   3   8   8  196.23    4.62   0
   4   8   8 1051.03    6.07   0
   5   8   8  153.15    4.95   0
  -4  -7   9   87.17    4.16   0
  -3  -7   9  626.30    5.39   0
  -2  -7   9  426.19    5.07   0
  -1  -7   9  510.21    5.31   0
   0  -7   9  124.06    4.90   0
  -5  -6   9  120.78    4.51   0
  -4  -6   9   60.80    4.45   0
  -3  -6   9   35.38    4.81   0
  -2  -6   9   14.68    4.26   0
  -1  -6   9  816.42    5.46   0
   0  -6   9  114.71    4.50   0
   1  -6   9 1247.22    6.79   0
   2  -6   9  198.59    5.21   0
  -6  -5   9  293.81    4.74   0
  -5  -5   9  132.50    4.23   0
  -4  -5   9   26.18    4.05   0
  -3  -5   9  339.07    5.15   0
  -2  -5   9  244.47    4.36   0
  -1  -5   9  608.53    5.12   0
   0  -5   9   23.59    4.33   0
   1  -5   9  573.53    5.62   0
   2  -5   9  274.11    5.21   0
   3  -5   9 1342.79    7.22   0
  -6  -4   9  134.57    4.43   0
  -5  -4   9  574.12    4.93   0
  -4  -4   9  286.04    4.27   0
  -3  -4   9  983.84    5.94   0
  -2  -4   9  233.39    4.86   0
  -1  -4   9  396.53    4.61   0
   0  -4   9  264.85    4.65   0
   1  -4   9  566.25    5.40   0
   2  -4   9  442.40    5.45   0
   3  -4   9  824.69    6.07   0
   4  -4   9  182.14    5.23   0
   5  -4   9  538.02    7.35   0
  -7  -3   9  369.58    4.96   0
  -6  -3   9  362.13    4.56   0
  -5  -3   9 1612.07    6.32   0
  -4  -3   9   16.71    3.85   0
  -3  -3   9  299.74    3.95   0
  -2  -3   9   38.98    3.93   0
  -1  -3   9  315.97    5.16   0
   0  -3   9  345.73    4.37   0
   1  -3   9   32.17    3.71   0
   2  -3   9  151.34    4.24   0
   3  -3   9  271.30    4.97   0
   4  -3   9  990.60    7.58   0
   5  -3   9  786.87    8.07   0
  -7  -2   9   11.84    3.86   0
  -6  -2   9   65.05    4.11   0
  -5  -2   9  890.24    5.14   0
  -4  -2   9  284.88    4.49   0
  -3  -2   9 1971.42    6.66   0
  -2  -2   9  341.94    4.94   0
  -1  -2   9  740.43    5.62   0
   0  -2   9   93.47    4.55   0
   1  -2   9  428.78    4.91   0
   2  -2   9    7.48    3.82   0
   3  -2   9   87.46    4.33   0
   4  -2   9   51.46    4.81   0
   5  -2   9   12.86    5.98   0
   6  -2   9  446.60    8.82   0
  -7  -1   9  185.50    4.46   0
  -6  -1   9  532.63    5.04   0
  -5  -1   9  253.03    4.24   0
  -4  -1   9  657.46    4.88   0
  -3  -1   9  157.03    3.96   0
  -2  -1   9  289.25    4.24   0
  -1  -1   9 2165.09    7.14   0
   0  -1   9 1816.16    7.48   0
   1  -1   9 1872.66    7.82   0
   2  -1   9   14.09    4.03   0
   3  -1   9  154.64    5.25   0
   4  -1   9  178.49    5.93   0
   5  -1   9    7.12    5.19   0
   6  -1   9  296.67    6.26   0
   7  -1   9   67.78    5.00   0
  -6   0   9  216.00    4.36   0
  -5   0   9   59.37    3.98   0
  -4   0   9  755.50    5.18   0
  -3   0   9  723.41    4.84   0
  -2   0   9 3147.61    8.09   0
  -1   0   9  109.28    3.95   0
   0   0   9  844.00    5.41   0
   1   0   9  491.73    5.42   0
   2   0   9  709.92    6.10   0
   3   0   9  380.50    5.90   0
   4   0   9  130.14    4.75   0
   5   0   9  235.50    5.71   0
   6   0   9  173.08    6.15   0
   7   0   9  176.77    5.27   0
  -6   1   9   47.66    4.09   0
  -5   1   9    3.58    3.84   0
  -4   1   9    6.17    3.84   0
  -3   1   9   49.64    3.65   0
  -2   1   9 1050.83    6.14   0
  -1   1   9  894.09    5.60   0
   0   1   9 4190.59    9.68   0
   1   1   9  651.06    5.47   0
   2   1   9 2066.52    8.03   0
   3   1   9   24.93    4.36   0
   4   1   9  787.22    6.25   0
   5   1   9  198.50    5.72   0
   6   1   9  145.12    5.88   0
   7   1   9   40.22    4.94   0
  -6   2   9  673.29    5.39   0
  -5   2   9   61.63    4.21   0
  -4   2   9    1.61    3.88   0
  -3   2   9    9.12    3.87   0
  -2   2   9   12.64    4.02   0
  -1   2   9  131.91    4.28   0
   0   2   9   34.40    4.13   0
   1   2   9   57.09    4.09   0
   2   2   9 2228.95    8.24   0
   3   2   9  493.34    5.68   0
   4   2   9 1591.22    7.60   0
   5   2   9  442.10    6.02   0
   6   2   9  574.46    6.30   0
   7   2   9   28.50    4.67   0
  -5   3   9  291.10    4.59   0
  -4   3   9  849.14    5.30   0
  -3   3   9   63.15    4.25   0
  -2   3   9  183.60    4.10   0
  -1   3   9  209.30    4.47   0
   0   3   9  517.42    5.30   0
   1   3   9  488.31    4.88   0
   2   3   9   24.41    4.50   0
   3   3   9  330.15    5.21   0
   4   3   9  769.66    5.91   0
   5   3   9  465.81    5.85   0
   6   3   9  860.13    6.42   0
   7   3   9  438.10    5.41   0
  -4   4   9  363.59    5.20   0
  -3   4   9    5.37    4.39   0
  -2   4   9  156.65    4.35   0
  -1   4   9   43.51    3.88   0
   0   4   9  413.09    4.47   0
   1   4   9   55.60    3.88   0
   2   4   9  398.39    4.71   0
   3   4   9 1360.52    6.55   0
   4   4   9  536.65    5.65   0
   5   4   9 1176.24    6.95   0
   6   4   9  186.04    5.06   0
   7   4   9  128.71    5.43   0
  -3   5   9  497.35    5.10   0
  -2   5   9  514.51    4.75   0
  -1   5   9   22.39    3.97   0
   0   5   9  153.87    4.43   0
   1   5   9    3.54    4.03   0
   2   5   9    8.14    3.95   0
   3   5   9    4.09    4.61   0
   4   5   9   11.52    4.48   0
   5   5   9  920.40    6.36   0
   6   5   9  151.34    5.15   0
   7   5   9  601.37    6.57   0
  -2   6   9  457.88    4.99   0
  -1   6   9  602.65    5.07   0
   0   6   9  777.71    5.13   0
   1   6   9  489.15    4.88   0
   2   6   9   67.53    4.05   0
   3   6   9  229.65    4.45   0
   4   6   9   18.70    4.22   0
   5   6   9   15.48    4.26   0
   6   6   9    5.52    4.52   0
   7   6   9  117.58    5.01   0
  -1   7   9  460.37    4.97   0
   0   7   9   72.00    4.13   0
   1   7   9  535.16    5.16   0
   2   7   9  556.53    5.34   0
   3   7   9  724.31    5.50   0
   4   7   9  251.50    4.69   0
   5   7   9   32.05    4.63   0
   6   7   9    2.50    4.51   0
   2   8   9   17.15    4.06   0
   3   8   9  208.61    4.49   0
   4   8   9   11.72    4.05   0
  -4  -6  10  956.41    6.72   0
  -3  -6  10  364.85    5.05   0
  -2  -6  10   69.48    4.33   0
  -1  -6  10   97.16    4.33   0
   0  -6  10    7.32    4.71   0
   1  -6  10  151.76    5.26   0
  -5  -5  10    7.77    4.11   0
  -4  -5  10  181.20    4.68   0
  -3  -5  10  205.64    5.16   0
  -2  -5  10  763.88    5.33   0
  -1  -5  10  691.19    5.30   0
   0  -5  10  785.39    5.77   0
   1  -5  10  268.25    5.28   0
   2  -5  10   40.40    4.70   0
   3  -5  10   50.57    4.27   0
  -5  -4  10   83.27    4.11   0
  -4  -4  10 1098.89    6.08   0
  -3  -4  10  273.80    4.62   0
  -2  -4  10  518.01    5.92   0
  -1  -4  10   32.14    3.95   0
   0  -4  10 1076.33    5.81   0
   1  -4  10  640.62    5.62   0
   2  -4  10  994.96    6.20   0
   3  -4  10  300.90    5.07   0
   4  -4  10  206.18    5.42   0
  -6  -3  10   47.25    3.97   0
  -5  -3  10   -1.81    3.85   0
  -4  -3  10   61.33    3.87   0
  -3  -3  10   21.97    3.86   0
  -2  -3  10 1616.71    7.19   0
  -1  -3  10  960.46    6.73   0
   0  -3  10 1474.01    6.61   0
   1  -3  10  173.42    4.82   0
   2  -3  10  848.39    5.72   0
   3  -3  10   24.10    4.77   0
   4  -3  10  211.85    5.23   0
   5  -3  10   15.19    5.70   0
  -6  -2  10  144.58    4.33   0
  -5  -2  10   96.76    4.17   0
  -4  -2  10   18.40    3.69   0
  -3  -2  10  160.08    4.43   0
  -2  -2  10   20.81    3.97   0
  -1  -2  10   33.71    4.03   0
   0  -2  10 1346.37    7.12   0
   1  -2  10  700.97    5.00   0
   2  -2  10 1313.59    6.55   0
   3  -2  10 1178.53    6.28   0
   4  -2  10  996.27    7.38   0
   5  -2  10   14.78    5.77   0
  -6  -1  10  534.63    5.22   0
  -5  -1  10  442.75    5.06   0
  -4  -1  10 1692.13    6.60   0
  -3  -1  10    7.84    4.11   0
  -2  -1  10  232.43    4.23   0
  -1  -1  10  265.04    4.55   0
   0  -1  10   81.84    4.44   0
   1  -1  10  138.47    4.44   0
   2  -1  10   51.21    4.76   0
   3  -1  10  585.32    6.94   0
   4  -1  10  364.21    6.59   0
   5  -1  10  663.03    8.48   0
   6  -1  10  958.40    9.18   0
  -6   0  10   91.45    4.30   0
  -5   0  10   40.48    4.34   0
  -4   0  10  637.93    5.01   0
  -3   0  10  316.27    4.47   0
  -2   0  10  685.58    5.10   0
  -1   0  10  203.71    4.46   0
   0   0  10  472.00    4.91   0
   1   0  10  966.74    6.00   0
   2   0  10   10.64    4.22   0
   3   0  10  728.80    6.05   0
   4   0  10  218.31    5.74   0
   5   0  10  813.53    7.12   0
   6   0  10   40.60    5.71   0
  -5   1  10 1146.81    5.92   0
  -4   1  10  619.02    4.96   0
  -3   1  10  739.09    5.24   0
  -2   1  10   25.99    3.76   0
  -1   1  10   10.98    3.89   0
   0   1  10   41.14    4.36   0
   1   1  10  154.15    4.60   0
   2   1  10  246.66    4.72   0
   3   1  10  414.77    5.15   0
   4   1  10   30.36    5.09   0
   5   1  10  901.78    7.11   0
   6   1  10  713.09    7.53   0
   7   1  10  720.49    6.26   0
  -5   2  10  147.08    4.61   0
  -4   2  10  236.60    4.45   0
  -3   2  10  953.49    5.87   0
  -2   2  10  665.28    5.41   0
  -1   2  10 1961.97    6.99   0
   0   2  10   58.69    4.03   0
   1   2  10  243.07    4.57   0
   2   2  10   13.30    4.03   0
   3   2  10   57.87    4.66   0
   4   2  10   22.07    4.66   0
   5   2  10    2.63    4.90   0
   6   2  10   13.70    5.28   0
   7   2  10  148.28    5.08   0
  -4   3  10  258.32    4.88   0
  -3   3  10  196.61    4.62   0
  -2   3  10   24.53    4.14   0
  -1   3  10  710.48    5.70   0
   0   3  10  434.25    4.40   0
   1   3  10 1409.41    6.36   0
   2   3  10  847.44    5.54   0
   3   3  10  801.19    6.22   0
   4   3  10   53.21    4.65   0
   5   3  10   13.93    4.52   0
   6   3  10   41.50    4.99   0
   7   3  10   78.58    4.75   0
  -4   4  10    5.73    4.65   0
  -3   4  10  398.95    4.78   0
  -2   4  10  341.55    4.51   0
  -1   4  10 1066.71    5.58   0
   0   4  10  804.93    5.48   0
   1   4  10  661.50    5.50   0
   2   4  10  171.88    4.57   0
   3   4  10 1077.95    6.12   0
   4   4  10  400.63    5.10   0
   5   4  10  897.26    6.55   0
   6   4  10  156.79    5.13   0
   7   4  10  239.07    5.33   0
  -3   5  10   80.47    4.27   0
  -2   5  10   14.51    4.02   0
  -1   5  10   61.55    4.11   0
   0   5  10  376.76    4.54   0
   1   5  10  808.53    5.44   0
   2   5  10  770.72    5.44   0
   3   5  10  423.21    4.88   0
   4   5  10  170.45    4.44   0
   5   5  10  275.78    5.15   0
   6   5  10    7.18    4.58   0
  -1   6  10   16.92    4.06   0
   0   6  10  232.78    4.64   0
   1   6  10    7.22    4.16   0
   2   6  10  195.95    4.30   0
   3   6  10  112.32    4.24   0
   4   6  10  620.86    5.39   0
   5   6  10  362.00    5.66   0
   6   6  10  391.57    5.61   0
   0   7  10  135.07    4.59   0
   1   7  10    1.66    4.02   0
   2   7  10  355.37    4.80   0
   3   7  10   41.86    4.07   0
   4   7  10  326.46    4.83   0
  -3  -5  11   99.74    4.31   0
  -2  -5  11   49.56    4.18   0
  -1  -5  11  163.32    4.62   0
   0  -5  11   20.04    4.47   0
   1  -5  11  728.51    6.11   0
  -4  -4  11  517.81    5.31   0
  -3  -4  11  842.25    6.23   0
  -2  -4  11  610.03    6.55   0
  -1  -4  11   11.85    4.11   0
   0  -4  11   83.11    4.28   0
   1  -4  11  516.02    5.26   0
   2  -4  11   49.33    4.84   0
   3  -4  11  304.41    5.38   0
  -5  -3  11  730.78    5.50   0
  -4  -3  11   58.38    3.92   0
  -3  -3  11  645.95    5.45   0
  -2  -3  11  203.17    4.88   0
  -1  -3  11  179.99    5.20   0
   0  -3  11  376.26    4.82   0
   1  -3  11  378.49    4.87   0
   2  -3  11   11.52    4.46   0
   3  -3  11   49.63    4.41   0
   4  -3  11   65.11    5.30   0
  -5  -2  11  336.38    5.25   0
  -4  -2  11  160.91    4.37   0
  -3  -2  11 1851.38    6.43   0
  -2  -2  11  421.43    4.99   0
  -1  -2  11  732.87    5.72   0
   0  -2  11   24.57    4.77   0
   1  -2  11   94.94    4.19   0
   2  -2  11    3.40    4.09   0
   3  -2  11  174.22    4.80   0
   4  -2  11   30.79    5.04   0
   5  -2  11   33.18    5.63   0
  -5  -1  11  145.73    4.48   0
  -4  -1  11   78.15    4.18   0
  -3  -1  11  359.13    4.83   0
  -2  -1  11   62.70    4.25   0
  -1  -1  11  787.43    5.82   0
   0  -1  11  641.56    5.86   0
   1  -1  11 1103.57    6.73   0
   2  -1  11  129.61    5.06   0
   3  -1  11  555.25    7.02   0
   4  -1  11  214.27    6.46   0
   5  -1  11    0.73    6.69   0
  -5   0  11   29.64    3.98   0
  -4   0  11  371.30    4.88   0
  -3   0  11  297.81    4.50   0
  -2   0  11  675.28    5.32   0
  -1   0  11  122.43    4.60   0
   0   0  11  348.43    4.96   0
   1   0  11  461.15    6.15   0
   2   0  11  297.06    5.39   0
   3   0  11  847.19    6.80   0
   4   0  11  556.13    6.88   0
   5   0  11  327.66    6.58   0
   6   0  11    6.28    6.01   0
  -5   1  11   27.06    4.18   0
  -4   1  11   26.90    3.97   0
  -3   1  11  164.70    4.48   0
  -2   1  11  281.61    4.87   0
  -1   1  11   52.76    4.46   0
   0   1  11 1548.40    6.97   0
   1   1  11 1428.86    6.93   0
   2   1  11 1615.02    7.17   0
   3   1  11  384.07    5.56   0
   4   1  11  496.84    6.08   0
   5   1  11  280.48    6.26   0
   6   1  11  246.05    6.22   0
  -4   2  11    1.98    4.17   0
  -3   2  11    1.11    4.33   0
  -2   2  11   12.97    4.26   0
  -1   2  11   69.32    4.18   0
   0   2  11  150.55    4.80   0
   1   2  11   16.04    4.82   0
   2   2  11  794.16    6.25   0
   3   2  11  373.06    5.18   0
   4   2  11 1010.20    6.94   0
   5   2  11  527.98    6.34   0
   6   2  11  457.48    6.71   0
  -4   3  11  136.09    5.27   0
  -3   3  11  541.23    5.39   0
  -2   3  11   41.49    4.31   0
  -1   3  11   13.97    4.26   0
   0   3  11  145.12    4.18   0
   1   3  11  125.05    4.38   0
   2   3  11  367.44    4.84   0
   3   3  11   17.11    4.22   0
   4   3  11  153.44    5.07   0
   5   3  11   51.02    5.03   0
   6   3  11  443.52    6.37   0
  -3   4  11   43.93    4.10   0
  -2   4  11  425.25    5.07   0
  -1   4  11  184.74    4.45   0
   0   4  11  303.27    4.62   0
   1   4  11   25.32    4.10   0
   2   4  11    1.01    4.09   0
   3   4  11   79.33    4.26   0
   4   4  11  501.00    5.55   0
   5   4  11  279.70    5.34   0
   6   4  11  211.07    5.28   0
  -2   5  11  902.77    5.78   0
  -1   5  11   52.08    4.01   0
   0   5  11  311.11    4.60   0
   1   5  11   36.54    4.10   0
   2   5  11  343.95    4.65   0
   3   5  11   20.35    4.14   0
   4   5  11  164.42    4.65   0
   5   5  11  137.61    4.96   0
   0   6  11  795.95    5.49   0
   1   6  11  168.02    4.28   0
   2   6  11  336.68    4.64   0
   3   6  11    4.78    4.19   0
   4   6  11   19.60    4.14   0
  -3  -4  12  100.29    4.14   0
  -2  -4  12  520.05    5.07   0
  -1  -4  12   18.44    4.28   0
   0  -4  12  205.72    4.71   0
   1  -4  12  169.62    4.77   0
  -3  -3  12   20.88    4.48   0
  -2  -3  12  310.33    5.46   0
  -1  -3  12  152.16    4.43   0
   0  -3  12  926.35    5.75   0
   1  -3  12  150.27    4.59   0
   2  -3  12  791.10    6.13   0
  -4  -2  12    0.25    3.99   0
  -3  -2  12   19.03    4.30   0
  -2  -2  12    2.62    4.59   0
  -1  -2  12   11.35    4.57   0
   0  -2  12   70.66    5.03   0
   1  -2  12  177.14    4.79   0
   2  -2  12 1569.96    7.09   0
   3  -2  12  735.88    6.53   0
  -4  -1  12  629.15    5.33   0
  -3  -1  12   67.29    4.27   0
  -2  -1  12  134.80    4.33   0
  -1  -1  12    6.42    4.31   0
   0  -1  12   37.41    4.45   0
   1  -1  12  105.93    4.93   0
   2  -1  12   11.37    4.98   0
   3  -1  12  138.79    4.91   0
   4  -1  12  173.83    5.55   0
  -4   0  12   69.57    4.60   0
  -3   0  12   46.19    4.13   0
  -2   0  12 1030.27    6.05   0
  -1   0  12  101.38    4.67   0
   0   0  12  243.14    4.93   0
   1   0  12    3.47    4.56   0
   2   0  12   16.43    4.81   0
   3   0  12  474.60    6.43   0
   4   0  12   14.98    5.51   0
   5   0  12  106.33    6.01   0
  -4   1  12  491.74    5.84   0
  -3   1  12  142.30    4.47   0
  -2   1  12  330.26    4.91   0
  -1   1  12  151.14    4.65   0
   0   1  12  204.71    4.66   0
   1   1  12    7.94    4.12   0
   2   1  12  508.70    5.68   0
   3   1  12   43.14    5.04   0
   4   1  12   45.74    5.21   0
   5   1  12  257.76    6.34   0
  -3   2  12  864.99    5.95   0
  -2   2  12  811.60    5.75   0
  -1   2  12 1121.87    6.27   0
   0   2  12  496.62    6.08   0
   1   2  12  284.85    4.84   0
   2   2  12  277.91    5.25   0
   3   2  12    7.29    4.89   0
   4   2  12  120.11    5.19   0
   5   2  12   12.24    5.10   0
  -2   3  12   20.12    4.23   0
  -1   3  12  335.50    4.76   0
   0   3  12  103.54    4.28   0
   1   3  12  800.73    5.78   0
   2   3  12  646.98    5.85   0
   3   3  12  569.04    5.89   0
   4   3  12  295.27    5.39   0
   5   3  12    7.82    4.97   0
  -1   4  12  539.53    5.42   0
   0   4  12   18.25    4.35   0
   1   4  12  527.08    5.38   0
   2   4  12  110.93    4.47   0
   3   4  12  270.54    5.19   0
   4   4  12   65.65    4.62   0
   5   4  12  715.40    6.66   0
   0   5  12   25.70    4.08   0
   1   5  12  148.34    4.30   0
   2   5  12  251.94    4.74   0
   3   5  12  917.00    6.11   0
   4   5  12   26.45    4.51   0
  -2  -2  13  196.14    5.04   0
  -1  -2  13  644.13    6.24   0
   0  -2  13  306.57    4.86   0
   1  -2  13  109.26    4.50   0
   2  -2  13    9.92    4.67   0
  -2  -1  13  200.87    4.68   0
  -1  -1  13  554.44    5.71   0
   0  -1  13  416.60    5.51   0
   1  -1  13 1197.34    7.91   0
   2  -1  13  446.16    5.41   0
   3  -1  13  515.01    5.86   0
  -2   0  13  130.92    4.83   0
  -1   0  13  523.19    5.45   0
   0   0  13  156.33    4.90   0
   1   0  13  120.88    4.90   0
   2   0  13  101.19    5.11   0
   3   0  13  490.30    7.36   0
  -2   1  13    4.83    4.14   0
  -1   1  13    4.14    4.40   0
   0   1  13  225.80    5.02   0
   1   1  13  304.85    4.98   0
   2   1  13  424.09    5.87   0
   3   1  13  468.51    6.73   0
   4   1  13   25.72    5.61   0
  -1   2  13  389.86    5.25   0
   0   2  13    3.65    4.26   0
   1   2  13   25.46    4.68   0
   2   2  13    7.13    4.72   0
   3   2  13  154.57    4.99   0
   4   2  13  527.82    7.55   0
  -1   3  13  168.01    4.63   0
   0   3  13   15.90    4.26   0
   1   3  13    4.50    4.58   0
   2   3  13  464.74    5.54   0
   3   3  13    2.18    4.35   0
   1   4  13  132.30    4.55   0
   2   4  13    3.02    4.42   0
;
_shelx_hkl_checksum              36117
_shelx_res_file
;
TITL
CELL  0.71073  7.15710  7.39420 10.02310 86.67400 86.29100 72.02700
ZERR 2  0.00060  0.00060  0.00090  0.00700  0.00700  0.00600
LATT 1
SFAC Sr Cl H  O
UNIT 2  4  16  24
L.S. 50
ACTA
BOND
FMAP 2
PLAN 1
HTAB O9 O8_$5
HTAB O9 O6_$7
HTAB O9 O8_$7
HTAB O9 Cl2_$7
EQIV $7 -x+1, -y+1, -z+2
HTAB O10 O4_$6
HTAB O10 Cl1_$6
EQIV $6 x, y-1, z
HTAB O10 O7_$5
EQIV $5 x+1, y, z
HTAB O10 O4_$4
EQIV $4 -x+2, -y+2, -z+1
HTAB O12 O7_$2
HTAB O12 O10_$3
EQIV $3 -x+1, -y+2, -z+1
HTAB O12 Cl2_$2
EQIV $2 x, y+1, z
HTAB O12 O4
HTAB O11 O9_$1
EQIV $1 -x+1, -y+2, -z+2
HTAB O11 O8
HTAB
DFIX O9 H9A 0.84 0.01
DFIX O9 H9B 0.84 0.01
DFIX H9A H9B 1.4 0.1
DFIX O10 H10A 0.84 0.01
DFIX O10 H10B 0.84 0.01
DFIX H10A H10B 1.4 0.1
DFIX O11 H11A 0.84 0.01
DFIX O11 H11B 0.84 0.01
DFIX H11A H11B 1.4 0.1
DFIX O12 H12A 0.84 0.01
DFIX O12 H12B 0.84 0.01
DFIX H12A H12B 1.4 0.1
WGHT    0.033200    1.761400
EXTI    0.034072
FVAR       1.00927
MOLE 1
SR1   1    0.539302    0.929114    0.724236    11.00000    0.01137    0.00999 =
         0.01328    0.00154   -0.00157   -0.00231
CL1   2    0.971434    1.154881    0.703694    11.00000    0.01129    0.01259 =
         0.01665    0.00238   -0.00188   -0.00356
CL2   2    0.357306    0.485635    0.780258    11.00000    0.01483    0.01062 =
         0.01394    0.00094    0.00015   -0.00370
O11   4    0.325218    0.928098    0.936327    11.00000    0.02712    0.01628 =
         0.01840   -0.00030    0.00453   -0.00448
O9    4    0.782795    0.746921    0.909548    11.00000    0.01608    0.01974 =
         0.01723    0.00572    0.00043   -0.00571
O12   4    0.540931    1.177441    0.515715    11.00000    0.01420    0.01562 =
         0.01618   -0.00104   -0.00308   -0.00411
O10   4    0.821513    0.678802    0.607694    11.00000    0.01512    0.01413 =
         0.02396    0.00086    0.00372   -0.00297
O4    4    0.871622    1.281371    0.595340    11.00000    0.01571    0.01834 =
         0.02389    0.00986   -0.00535   -0.00497
O8    4    0.214851    0.565414    0.887227    11.00000    0.02220    0.02072 =
         0.02260   -0.00280    0.00709   -0.00504
O6    4    0.450073    0.286138    0.812751    11.00000    0.02709    0.01030 =
         0.01981    0.00148   -0.00200   -0.00452
O5    4    0.505847    0.581455    0.769366    11.00000    0.01962    0.01492 =
         0.03256   -0.00015    0.00397   -0.00883
O2    4    1.172033    1.065014    0.657852    11.00000    0.01127    0.02779 =
         0.02330    0.00318   -0.00121   -0.00007
O3    4    0.876403    1.010829    0.732672    11.00000    0.02184    0.02073 =
         0.04002    0.01484   -0.00913   -0.01298
O1    4    0.962832    1.260890    0.819247    11.00000    0.03142    0.02985 =
         0.02706   -0.01197   -0.00770   -0.00095
O7    4    0.263007    0.507485    0.655469    11.00000    0.02731    0.02615 =
         0.01969    0.00128   -0.00976   -0.00243
H11A  3    0.286615    0.835270    0.962309    11.00000    0.04391
H11B  3    0.270743    1.024764    0.980646    11.00000    0.02907
H12B  3    0.636651    1.218187    0.523530    11.00000    0.03080
H12A  3    0.437183    1.266962    0.530707    11.00000    0.02473
H10A  3    0.925894    0.689901    0.569795    11.00000    0.04416
H10B  3    0.840806    0.561381    0.618744    11.00000    0.06502
H9B   3    0.757220    0.662230    0.960025    11.00000    0.04803
H9A   3    0.903150    0.707206    0.888051    11.00000    0.03072
HKLF 4
REM
REM R1 =  0.0275 for    2650 Fo > 4sig(Fo)  and  0.0287 for all    2795 data
REM    169 parameters refined using     12 restraints
END
WGHT      0.0416      1.3335
REM Instructions for potential hydrogen bonds
HTAB O11 O8
HTAB O11 O9_$1
HTAB O12 O4
HTAB O12 Cl2_$2
HTAB O12 O10_$3
HTAB O12 O7_$2
HTAB O10 O4_$4
HTAB O10 O7_$5
HTAB O10 Cl1_$6
HTAB O10 O4_$6
HTAB O9 Cl2_$7
HTAB O9 O8_$7
HTAB O9 O6_$7
HTAB O9 O8_$5
REM Highest difference peak  0.834,  deepest hole -1.151,  1-sigma level  0.128
Q1    1   0.4963  0.8202  0.6838  11.00000  0.05    0.83
;
_shelx_res_checksum              51516
_shelxl_version_number           .000002012
#END Tags that were not found in dictionaries
loop_
_space_group_symop_operation_xyz
'x, y, z'
'-x, -y, -z'
loop_
_atom_site_type_symbol
_atom_site_label
_atom_site_fract_x
_atom_site_fract_y
_atom_site_fract_z
_atom_site_U_iso_or_equiv
_atom_site_adp_type
_atom_site_calc_flag
_atom_site_occupancy
Sr Sr1 0.53930(4) 0.92911(3) 0.72424(2) 0.01180(9) Uani d 1
Cl Cl1 0.97143(9) 1.15488(9) 0.70369(6) 0.01360(14) Uani d 1
Cl Cl2 0.35731(9) 0.48563(9) 0.78026(6) 0.01327(14) Uani d 1
O O11 0.3252(4) 0.9281(3) 0.9363(2) 0.0214(4) Uani d 1
O O9 0.7828(3) 0.7469(3) 0.9095(2) 0.0179(4) Uani d 1
O O12 0.5409(3) 1.1774(3) 0.5157(2) 0.0153(4) Uani d 1
O O10 0.8215(3) 0.6788(3) 0.6077(2) 0.0184(4) Uani d 1
O O4 0.8716(3) 1.2814(3) 0.5953(2) 0.0196(4) Uani d 1
O O8 0.2149(3) 0.5654(3) 0.8872(2) 0.0225(5) Uani d 1
O O6 0.4501(3) 0.2861(3) 0.8128(2) 0.0194(4) Uani d 1
O O5 0.5058(3) 0.5815(3) 0.7694(2) 0.0218(5) Uani d 1
O O2 1.1720(3) 1.0650(3) 0.6579(2) 0.0223(5) Uani d 1
O O3 0.8764(4) 1.0108(3) 0.7327(3) 0.0264(5) Uani d 1
O O1 0.9628(4) 1.2609(4) 0.8192(3) 0.0306(6) Uani d 1
O O7 0.2630(4) 0.5075(4) 0.6555(2) 0.0254(5) Uani d 1
H H11A 0.287(7) 0.835(5) 0.962(5) 0.044(15) Uiso d 1
H H11B 0.271(6) 1.025(4) 0.981(4) 0.029(11) Uiso d 1
H H12B 0.637(4) 1.218(6) 0.524(5) 0.031(12) Uiso d 1
H H12A 0.437(4) 1.267(4) 0.531(4) 0.025(11) Uiso d 1
H H10A 0.926(4) 0.690(8) 0.570(5) 0.044(14) Uiso d 1
H H10B 0.841(9) 0.561(2) 0.619(6) 0.065(19) Uiso d 1
H H9B 0.757(8) 0.662(6) 0.960(4) 0.048(15) Uiso d 1
H H9A 0.903(2) 0.707(6) 0.888(5) 0.031(12) Uiso d 1
loop_
_atom_site_aniso_label
_atom_site_aniso_U_11
_atom_site_aniso_U_22
_atom_site_aniso_U_33
_atom_site_aniso_U_12
_atom_site_aniso_U_13
_atom_site_aniso_U_23
Sr1 0.01137(13) 0.00999(13) 0.01328(13) -0.00231(8) -0.00157(8) 0.00154(8)
Cl1 0.0113(3) 0.0126(3) 0.0167(3) -0.0036(2) -0.0019(2) 0.0024(2)
Cl2 0.0148(3) 0.0106(3) 0.0139(3) -0.0037(2) 0.0001(2) 0.0009(2)
O11 0.0271(11) 0.0163(10) 0.0184(10) -0.0045(9) 0.0045(9) -0.0003(8)
O9 0.0161(10) 0.0197(10) 0.0172(10) -0.0057(8) 0.0004(8) 0.0057(8)
O12 0.0142(9) 0.0156(9) 0.0162(9) -0.0041(8) -0.0031(7) -0.0010(7)
O10 0.0151(10) 0.0141(9) 0.0240(11) -0.0030(8) 0.0037(8) 0.0009(8)
O4 0.0157(10) 0.0183(10) 0.0239(11) -0.0050(8) -0.0053(8) 0.0099(8)
O8 0.0222(11) 0.0207(10) 0.0226(11) -0.0050(9) 0.0071(9) -0.0028(8)
O6 0.0271(11) 0.0103(9) 0.0198(10) -0.0045(8) -0.0020(8) 0.0015(7)
O5 0.0196(10) 0.0149(10) 0.0326(12) -0.0088(8) 0.0040(9) -0.0002(9)
O2 0.0113(9) 0.0278(11) 0.0233(11) -0.0001(8) -0.0012(8) 0.0032(9)
O3 0.0218(11) 0.0207(11) 0.0400(14) -0.0130(9) -0.0091(10) 0.0148(10)
O1 0.0314(13) 0.0299(13) 0.0271(13) -0.0009(10) -0.0077(10) -0.0120(10)
O7 0.0273(12) 0.0262(12) 0.0197(11) -0.0024(9) -0.0098(9) 0.0013(9)
loop_
_atom_type_symbol
_atom_type_description
_atom_type_scat_dispersion_real
_atom_type_scat_dispersion_imag
_atom_type_scat_source
Sr Sr -1.5307 3.2498 'International Tables Vol C Tables 4.2.6.8 and 6.1.1.4'
Cl Cl 0.1484 0.1585 'International Tables Vol C Tables 4.2.6.8 and 6.1.1.4'
H H 0.0000 0.0000 'International Tables Vol C Tables 4.2.6.8 and 6.1.1.4'
O O 0.0106 0.0060 'International Tables Vol C Tables 4.2.6.8 and 6.1.1.4'
loop_
_geom_angle_atom_site_label_1
_geom_angle_atom_site_label_2
_geom_angle_atom_site_label_3
_geom_angle_site_symmetry_1
_geom_angle_site_symmetry_3
_geom_angle
O11 Sr1 O10 . . 134.33(7)
O11 Sr1 O2 . 1_455 72.84(8)
O10 Sr1 O2 . 1_455 128.32(8)
O11 Sr1 O9 . . 74.35(7)
O10 Sr1 O9 . . 72.64(7)
O2 Sr1 O9 1_455 . 146.33(7)
O11 Sr1 O5 . . 71.31(7)
O10 Sr1 O5 . . 68.57(7)
O2 Sr1 O5 1_455 . 91.52(8)
O9 Sr1 O5 . . 70.82(7)
O11 Sr1 O3 . . 120.25(8)
O10 Sr1 O3 . . 69.06(8)
O2 Sr1 O3 1_455 . 144.07(7)
O9 Sr1 O3 . . 62.77(7)
O5 Sr1 O3 . . 124.01(7)
O11 Sr1 O12 . . 135.63(7)
O10 Sr1 O12 . . 89.75(7)
O2 Sr1 O12 1_455 . 74.61(7)
O9 Sr1 O12 . . 137.04(7)
O5 Sr1 O12 . . 138.82(7)
O3 Sr1 O12 . . 74.40(7)
O11 Sr1 O6 . 1_565 75.27(7)
O10 Sr1 O6 . 1_565 140.31(7)
O2 Sr1 O6 1_455 1_565 80.03(8)
O9 Sr1 O6 . 1_565 98.83(7)
O5 Sr1 O6 . 1_565 146.54(7)
O3 Sr1 O6 . 1_565 72.64(8)
O12 Sr1 O6 . 1_565 70.06(6)
O11 Sr1 O12 . 2_676 123.23(7)
O10 Sr1 O12 . 2_676 64.54(7)
O2 Sr1 O12 1_455 2_676 64.25(7)
O9 Sr1 O12 . 2_676 132.16(7)
O5 Sr1 O12 . 2_676 74.43(7)
O3 Sr1 O12 . 2_676 116.35(8)
O12 Sr1 O12 . 2_676 64.57(7)
O6 Sr1 O12 1_565 2_676 127.67(7)
O11 Sr1 Sr1 . 2_676 138.29(6)
O10 Sr1 Sr1 . 2_676 75.06(5)
O2 Sr1 Sr1 1_455 2_676 65.53(5)
O9 Sr1 Sr1 . 2_676 146.06(5)
O5 Sr1 Sr1 . 2_676 106.51(5)
O3 Sr1 Sr1 . 2_676 96.03(6)
O12 Sr1 Sr1 . 2_676 32.42(4)
O6 Sr1 Sr1 1_565 2_676 99.31(5)
O12 Sr1 Sr1 2_676 2_676 32.15(4)
O1 Cl1 O3 . . 110.34(17)
O1 Cl1 O2 . . 111.09(16)
O3 Cl1 O2 . . 108.88(15)
O1 Cl1 O4 . . 109.88(15)
O3 Cl1 O4 . . 108.60(14)
O2 Cl1 O4 . . 107.99(13)
O7 Cl2 O5 . . 109.56(15)
O7 Cl2 O6 . . 110.02(14)
O5 Cl2 O6 . . 108.81(14)
O7 Cl2 O8 . . 110.49(15)
O5 Cl2 O8 . . 109.30(14)
O6 Cl2 O8 . . 108.63(14)
Sr1 O12 Sr1 . 2_676 115.43(7)
Cl2 O6 Sr1 . 1_545 144.85(13)
Cl2 O5 Sr1 . . 140.13(14)
Cl1 O2 Sr1 . 1_655 146.10(14)
Cl1 O3 Sr1 . . 144.73(14)
loop_
_geom_bond_atom_site_label_1
_geom_bond_atom_site_label_2
_geom_bond_site_symmetry_2
_geom_bond_distance
Sr1 O11 . 2.540(2)
Sr1 O10 . 2.551(2)
Sr1 O2 1_455 2.623(2)
Sr1 O9 . 2.642(2)
Sr1 O5 . 2.665(2)
Sr1 O3 . 2.669(2)
Sr1 O12 . 2.703(2)
Sr1 O6 1_565 2.706(2)
Sr1 O12 2_676 2.723(2)
Sr1 Sr1 2_676 4.5867(6)
Cl1 O1 . 1.423(2)
Cl1 O3 . 1.438(2)
Cl1 O2 . 1.441(2)
Cl1 O4 . 1.461(2)
Cl2 O7 . 1.437(2)
Cl2 O5 . 1.444(2)
Cl2 O6 . 1.446(2)
Cl2 O8 . 1.448(2)
O12 Sr1 2_676 2.723(2)
O6 Sr1 1_545 2.706(2)
O2 Sr1 1_655 2.623(2)
loop_
_geom_hbond_atom_site_label_D
_geom_hbond_atom_site_label_H
_geom_hbond_atom_site_label_A
_geom_hbond_site_symmetry_A
_geom_hbond_distance_DH
_geom_hbond_distance_HA
_geom_hbond_distance_DA
_geom_hbond_angle_DHA
O9 H9A O8 1_655 0.838(10) 2.152(17) 2.966(3) 164(4)
O9 H9B O8 2_667 0.839(10) 2.18(2) 2.986(3) 161(5)
O10 H10B O4 1_545 0.838(10) 2.039(19) 2.858(3) 165(6)
O10 H10A O4 2_776 0.841(10) 2.17(2) 2.967(3) 157(5)
O11 H11B O9 2_677 0.838(10) 1.992(16) 2.809(3) 164(4)
O11 H11A O8 . 0.838(10) 2.38(3) 3.093(3) 143(5)
O12 H12A O7 1_565 0.840(10) 2.23(2) 2.986(3) 150(4)
O12 H12A O10 2_676 0.840(10) 2.31(4) 2.820(3) 120(3)
O12 H12B O4 . 0.839(10) 2.060(17) 2.875(3) 164(5)
