#------------------------------------------------------------------------------
#$Date: 2016-07-30 04:26:18 +0300 (Sat, 30 Jul 2016) $
#$Revision: 184734 $
#$URL: file:///home/coder/svn-repositories/cod/cif/2/24/17/2241794.cif $
#------------------------------------------------------------------------------
#
# This file is available in the Crystallography Open Database (COD),
# http://www.crystallography.net/. The original data for this entry
# were provided by IUCr Journals, http://journals.iucr.org/.
#
# The file may be used within the scientific community so long as
# proper attribution is given to the journal article from which the
# data were obtained.
#
data_2241794
loop_
_publ_author_name
'Katinait\.e, Judita'
'Harrison, William T. A.'
_publ_section_title
;
 Different cation-protonation patterns in molecular salts of unsymmetrical
 dimethyhydrazine: C~2~H~9~N~2~&#x00B7;Br and
 C~2~H~9~N~2~&#x00B7;H~2~PO~3~
;
_journal_coeditor_code           SU5314
_journal_issue                   8
_journal_name_full               'Acta Crystallographica Section E'
_journal_page_first              1206
_journal_page_last               1210
_journal_paper_doi               10.1107/S2056989016011993
_journal_volume                  72
_journal_year                    2016
_chemical_formula_iupac          'C2 H9 N2 +, H2 P O3 -'
_chemical_formula_moiety         'C2 H9 N2 +, H2 O3 P -'
_chemical_formula_sum            'C2 H11 N2 O3 P'
_chemical_formula_weight         142.10
_chemical_name_systematic
;
2,2-Dimethylhydrazin-1-ium dihydrogen phosphite
;
_space_group_crystal_system      orthorhombic
_space_group_IT_number           33
_space_group_name_Hall           'P 2c -2n'
_space_group_name_H-M_alt        'P n a 21'
_symmetry_space_group_name_Hall  'P 2c -2n'
_symmetry_space_group_name_H-M   'P n a 21'
_atom_sites_solution_hydrogens   mixed
_atom_sites_solution_primary     direct
_atom_sites_solution_secondary   difmap
_audit_creation_method           SHELXL-2014/7
_cell_angle_alpha                90
_cell_angle_beta                 90
_cell_angle_gamma                90
_cell_formula_units_Z            4
_cell_length_a                   8.0690(2)
_cell_length_b                   6.9970(2)
_cell_length_c                   11.7001(6)
_cell_measurement_reflns_used    4031
_cell_measurement_temperature    100(2)
_cell_measurement_theta_max      27.49
_cell_measurement_theta_min      3.37
_cell_volume                     660.57(4)
_computing_cell_refinement
;
CrystalClear (Rigaku, 2012)
;
_computing_data_collection
;
CrystalClear (Rigaku, 2012)
;
_computing_data_reduction
;
CrystalClear (Rigaku, 2012)
;
_computing_molecular_graphics
;
ORTEP-3 for Windows (Farrugia, 2012)
;
_computing_publication_material
;
publCIF (Westrip, 2010)
;
_computing_structure_refinement
;
SHELXL2014 (Sheldrick, 2015)
;
_computing_structure_solution
;
SHELXS97 (Sheldrick, 2008)
;
_diffrn_ambient_temperature      100(2)
_diffrn_measured_fraction_theta_full 0.995
_diffrn_measured_fraction_theta_max 0.995
_diffrn_measurement_device_type  'Rigaku Mercury CCD'
_diffrn_measurement_method       \w
_diffrn_radiation_type           MoK\a
_diffrn_radiation_wavelength     0.71073
_diffrn_reflns_av_R_equivalents  0.0232
_diffrn_reflns_limit_h_max       10
_diffrn_reflns_limit_h_min       -8
_diffrn_reflns_limit_k_max       9
_diffrn_reflns_limit_k_min       -8
_diffrn_reflns_limit_l_max       13
_diffrn_reflns_limit_l_min       -15
_diffrn_reflns_number            5347
_diffrn_reflns_theta_full        25.242
_diffrn_reflns_theta_max         27.484
_diffrn_reflns_theta_min         3.393
_exptl_absorpt_coefficient_mu    0.349
_exptl_absorpt_correction_type   none
_exptl_crystal_colour            yellow
_exptl_crystal_density_diffrn    1.429
_exptl_crystal_description       plate
_exptl_crystal_F_000             304
_exptl_crystal_size_max          0.18
_exptl_crystal_size_mid          0.18
_exptl_crystal_size_min          0.02
_refine_diff_density_max         0.235
_refine_diff_density_min         -0.279
_refine_ls_abs_structure_details
;
Refined as an inversion twin.
;
_refine_ls_abs_structure_Flack   0.15(14)
_refine_ls_extinction_method     none
_refine_ls_goodness_of_fit_ref   1.087
_refine_ls_hydrogen_treatment    constr
_refine_ls_matrix_type           full
_refine_ls_number_parameters     77
_refine_ls_number_reflns         1395
_refine_ls_number_restraints     1
_refine_ls_restrained_S_all      1.087
_refine_ls_R_factor_all          0.0258
_refine_ls_R_factor_gt           0.0249
_refine_ls_shift/su_max          0.000
_refine_ls_shift/su_mean         0.000
_refine_ls_structure_factor_coef Fsqd
_refine_ls_weighting_details
'w=1/[\s^2^(Fo^2^)+(0.0374P)^2^+0.2030P] where P=(Fo^2^+2Fc^2^)/3'
_refine_ls_weighting_scheme      calc
_refine_ls_wR_factor_gt          0.0641
_refine_ls_wR_factor_ref         0.0645
_reflns_number_gt                1365
_reflns_number_total             1395
_reflns_threshold_expression     'I > 2\s(I)'
_cod_data_source_file            su5314sup1.cif
_cod_data_source_block           II
_cod_database_code               2241794
_shelx_space_group_comment
;
The symmetry employed for this shelxl refinement is uniquely defined
by the following loop, which should always be used as a source of
symmetry information in preference to the above space-group names.
They are only intended as comments.
;
_shelx_hkl_file
;
   0   0  -8 4154.33   24.75
   0   0  -8 4091.53   24.84
   0   0  -7    2.32    1.44
   0   0  -7    0.17    1.41
   0   0  -6  698.53    8.77
   0   0  -6  706.72    8.69
   0   0  -5   -0.11    1.17
   0   0  -5    0.02    1.15
   0   0  -3    0.14    0.82
   0   0  -3    1.20    0.82
   0   0  -1   -0.14    0.15
   0   0  -1   -0.09    0.18
   0   0   1    0.00    0.11
   0   0   1   -0.12    0.13
   0   0   3   -0.60    0.90
   0   0   3   -1.35    0.84
   0   0   5    0.38    1.22
   0   0   5    1.68    1.33
   0   0   6  684.71    8.77
   0   0   6  663.40    8.81
   0   0   7    1.18    1.47
   0   0   7    0.93    1.39
   0   0   8 4160.01   24.69
   0   0   8 4157.92   25.31
   0   0   9   -0.18    1.76
   0   0   9   -0.82    1.76
   0   0  10  276.54    7.85
   0   0  10  293.05    8.27
   0   0  11   -2.96    2.45
   0   0  12  130.77    6.32
   0   0  13    4.56    3.01
   0   0  14   78.80    5.87
   0   0  15    1.43    3.33
   0   1  -8    1.42    1.73
   0  -1  -8    1.47    1.55
   0  -1  -8   -0.31    1.53
   0   1  -8    2.07    1.58
   0   1  -7  626.04    9.23
   0   1  -7  611.67    9.11
   0  -1  -7  609.32    8.64
   0  -1  -7  612.41    8.59
   0  -1  -6    0.62    1.34
   0  -1  -6   -0.13    1.31
   0   1  -6   -0.02    1.33
   0   1  -6   -2.75    1.55
   0   1  -5 1077.70   10.32
   0  -1  -5 1077.66    9.55
   0   1  -5 1057.17   10.22
   0  -1  -5 1056.23    9.42
   0   1  -4    0.08    0.95
   0   1  -4   -0.72    1.02
   0  -1  -4   -0.91    0.95
   0  -1  -4   -0.03    0.90
   0  -1  -3 1830.88    9.63
   0  -1  -3 1843.91    9.51
   0   1  -3 1816.16   10.39
   0  -1  -2    0.01    0.70
   0   1  -2    0.33    0.76
   0   1  -2    0.81    0.79
   0  -1  -2    0.60    0.66
   0   1  -1 1342.27    6.01
   0   1  -1 1327.36    6.10
   0   1  -1 1322.60    6.15
   0  -1  -1 1339.37    5.14
   0  -1   0    0.22    0.48
   0   1   0    0.59    0.46
   0  -1   1 1340.00    6.02
   0  -1   1 1354.31    6.03
   0  -1   1 1335.91    6.01
   0  -1   2   -0.75    0.77
   0  -1   2    0.00    0.77
   0   1   2   -0.03    0.69
   0  -1   3 1830.56   10.43
   0   1   3 1844.67    9.82
   0  -1   3 1809.64   10.36
   0  -1   4    0.90    0.98
   0  -1   4    0.10    0.98
   0   1   4   -0.58    1.04
   0  -1   5 1053.26   10.19
   0  -1   5 1057.72   10.34
   0  -1   6    1.72    1.54
   0  -1   6   -0.71    1.43
   0   1   6   -2.93    1.51
   0  -1   7  611.76    9.31
   0  -1   7  621.48    9.38
   0   1   7  614.72    9.13
   0  -1   8    1.07    1.59
   0  -1   8    0.62    1.54
   0   1   8   -1.55    1.68
   0   1   9   14.86    2.38
   0  -1   9   15.22    2.40
   0  -1   9   15.52    2.41
   0   1  10   -2.32    1.94
   0  -1  10   -3.89    2.05
   0  -1  10    0.10    2.03
   0  -1  11  116.96    5.90
   0  -1  11  111.17    5.64
   0   1  11  117.52    5.60
   0  -1  12   -3.20    2.59
   0  -1  12   -2.15    2.38
   0   1  12    1.84    2.57
   0  -1  13   27.13    4.01
   0   1  13   21.39    3.46
   0   1  14    2.22    2.84
   0  -1  14    0.24    3.06
   0   1  15   54.34    5.64
   0  -1  15   55.63    5.57
   0  -2  -8  635.00    9.44
   0  -2  -8  634.97    9.51
   0   2  -7   -0.21    1.49
   0   2  -7    1.84    1.62
   0  -2  -7   -2.13    1.43
   0  -2  -7   -0.78    1.30
   0  -2  -6  154.43    4.12
   0  -2  -6  154.31    4.18
   0   2  -6  149.06    4.63
   0   2  -6  157.15    4.65
   0  -2  -5    0.39    1.24
   0  -2  -5   -1.45    1.28
   0   2  -5   -0.38    1.42
   0   2  -5   -0.92    1.53
   0   2  -4 1338.93   11.18
   0  -2  -4 1390.30    9.69
   0  -2  -4 1414.07    9.56
   0   2  -4 1361.98   11.30
   0   2  -3   -0.64    1.04
   0  -2  -3   -0.43    0.78
   0   2  -3    0.24    0.98
   0   2  -2  118.51    2.71
   0  -2  -2  120.16    2.44
   0   2  -2  115.26    2.73
   0   2  -2  116.54    2.67
   0   2  -1   -0.30    0.73
   0   2  -1   -0.61    0.76
   0  -2  -1    0.22    0.66
   0   2  -1    0.59    0.71
   0   2   0 9900.62   19.78
   0  -2   0 9999.00   23.63
   0   2   1   -0.45    0.80
   0  -2   1   -0.63    0.67
   0  -2   1   -0.05    0.74
   0   2   1   -0.77    0.64
   0  -2   1    0.61    0.64
   0  -2   2  109.14    2.59
   0  -2   2  101.56    2.41
   0  -2   2  107.89    2.57
   0  -2   3    0.77    0.94
   0   2   3    1.05    0.90
   0  -2   3   -0.19    0.83
   0  -2   3   -0.81    1.01
   0  -2   4 1357.45   11.14
   0  -2   4 1359.59   11.04
   0  -2   5   -0.55    1.43
   0   2   5   -1.22    1.30
   0  -2   5    0.74    1.44
   0   2   6  169.65    4.51
   0  -2   6  165.12    4.78
   0  -2   6  158.82    4.72
   0   2   7    0.85    1.36
   0  -2   7    0.35    1.49
   0  -2   7   -1.48    1.58
   0   2   8  659.46   10.14
   0  -2   8  637.41   10.53
   0  -2   9    0.46    1.93
   0   2   9    0.48    1.81
   0  -2   9    2.13    2.03
   0   2  10  293.41    7.81
   0  -2  10  281.64    8.25
   0  -2  10  293.43    8.29
   0   2  11    2.82    2.38
   0  -2  11   -0.07    2.22
   0  -2  11   -2.64    2.35
   0   2  12  115.35    6.10
   0  -2  12  103.24    5.94
   0  -2  12  108.53    6.11
   0  -2  13    2.40    2.71
   0   2  13    2.28    2.58
   0  -2  13    1.69    3.02
   0  -2  14  222.99    9.54
   0  -3  -8    1.94    1.77
   0  -3  -8   -1.18    1.68
   0  -3  -7  480.01    7.67
   0  -3  -7  481.83    7.64
   0   3  -7  445.66    8.65
   0   3  -7  448.14    8.70
   0   3  -6    1.05    1.51
   0  -3  -6    0.43    1.20
   0   3  -6   -1.04    1.47
   0  -3  -6   -1.32    1.31
   0   3  -5 1178.31   12.34
   0  -3  -5 1180.27    9.90
   0   3  -5 1197.29   12.43
   0  -3  -5 1162.12   10.00
   0  -3  -4    1.60    1.06
   0  -3  -4   -0.18    1.02
   0   3  -4    1.63    1.44
   0   3  -4    1.07    1.37
   0  -3  -3  892.54    7.22
   0   3  -3  894.47    9.22
   0  -3  -3  899.24    8.05
   0   3  -3  901.09    9.36
   0   3  -2   -2.21    1.36
   0  -3  -2    0.29    1.12
   0   3  -2   -0.19    1.21
   0   3  -2   -0.69    1.33
   0  -3  -2   -0.07    0.89
   0  -3  -1 1385.10    8.87
   0   3  -1 1393.66    9.84
   0   3  -1 1382.01   10.01
   0   3  -1 1371.91   10.91
   0  -3  -1 1409.28    8.71
   0   3   0    0.00    1.05
   0  -3   0    0.41    0.93
   0   3   0    0.54    1.32
   0  -3   0    0.32    1.15
   0  -3   0    1.02    0.97
   0   3   0    0.01    1.06
   0  -3   1 1437.12    9.07
   0  -3   1 1411.76   10.85
   0   3   1 1470.55   11.89
   0   3   1 1450.19    8.62
   0  -3   1 1433.08    9.10
   0  -3   2    1.53    1.25
   0  -3   2    2.18    1.21
   0   3   2   -0.21    1.51
   0  -3   2    0.19    1.24
   0  -3   3  924.85    8.91
   0  -3   3  949.56    9.14
   0  -3   4   -0.15    1.20
   0  -3   4   -0.34    1.22
   0  -3   4   -1.11    1.32
   0  -3   5 1122.80   11.47
   0  -3   5 1120.04   11.50
   0  -3   6    1.18    1.44
   0  -3   6    0.04    1.26
   0  -3   6    0.11    1.38
   0   3   6   -1.24    1.35
   0  -3   7  465.98    8.66
   0  -3   7  448.44    8.58
   0  -3   8    2.78    1.98
   0  -3   8   -0.14    1.77
   0   3   8    1.47    1.86
   0  -3   9  674.56   11.73
   0  -3   9  681.83   11.84
   0  -3  10    1.72    2.28
   0   3  10   -0.21    2.19
   0  -3  10    0.28    2.24
   0   3  11 1202.25   16.77
   0  -3  11 1180.25   17.56
   0  -3  12   -1.62    2.48
   0   3  12   -0.15    2.53
   0  -3  12    0.34    2.63
   0  -3  13  501.77   13.12
   0  -3  13  494.17   12.55
   0   3  13  523.67   12.91
   0  -3  14    3.93    3.60
   0  -3  14   -1.23    3.35
   0   3  14    5.79    3.61
   0  -4  -8   71.46    3.56
   0  -4  -8   75.15    3.64
   0  -4  -7    0.01    1.68
   0  -4  -7    0.20    1.64
   0   4  -6  390.22    8.42
   0  -4  -6  411.03    7.65
   0  -4  -6  425.02    6.74
   0  -4  -6  393.13    6.57
   0   4  -6  380.08    8.35
   0  -4  -5    0.68    1.39
   0   4  -5    2.31    1.79
   0  -4  -5    0.98    1.10
   0  -4  -5   -0.34    1.07
   0   4  -5   -1.56    1.62
   0   4  -4   52.92    2.94
   0  -4  -4   56.63    2.32
   0   4  -4   52.15    2.96
   0  -4  -4   52.03    2.63
   0   4  -3   -0.80    1.34
   0  -4  -3    0.72    0.94
   0   4  -3    0.85    1.46
   0  -4  -3   -0.55    1.20
   0   4  -3    0.29    1.39
   0   4  -2  851.26   10.17
   0   4  -2  859.93    9.58
   0   4  -2  851.11    9.56
   0  -4  -2  882.38    8.23
   0  -4  -1   -0.53    1.09
   0   4  -1    2.54    1.31
   0  -4  -1    0.60    1.05
   0   4  -1    1.62    1.28
   0   4  -1    0.76    1.30
   0   4   0   35.60    2.44
   0  -4   0   38.99    1.86
   0   4   0   37.95    2.07
   0  -4   0   42.01    1.97
   0  -4   1   -0.58    1.18
   0  -4   1   -0.76    1.03
   0   4   1   -0.16    0.99
   0  -4   1    0.60    1.02
   0   4   1    0.99    1.34
   0  -4   2  864.02    8.62
   0  -4   2  859.67    8.56
   0  -4   3    0.47    1.26
   0   4   3   -0.37    1.40
   0  -4   3    0.30    1.12
   0  -4   3    1.02    1.13
   0  -4   4   55.76    2.76
   0  -4   4   51.58    2.70
   0  -4   4   54.57    2.80
   0  -4   5    2.09    1.39
   0  -4   5    0.06    1.38
   0  -4   5   -0.30    1.47
   0  -4   6  388.83    7.35
   0  -4   6  380.55    7.67
   0  -4   7    4.46    2.03
   0  -4   7    0.99    1.71
   0  -4   8   64.74    3.64
   0  -4   8   69.34    4.17
   0  -4   8   71.27    4.35
   0  -4   9   -3.48    2.10
   0  -4   9    3.85    2.18
   0  -4  10    2.73    2.37
   0  -4  10    3.31    2.35
   0   4  10    2.68    2.33
   0  -4  11    1.12    2.55
   0   4  11    1.42    2.47
   0  -4  11    3.15    2.50
   0   4  12   10.04    3.10
   0  -4  12    4.42    3.04
   0  -4  12    6.53    3.08
   0  -4  13    3.19    2.93
   0  -4  13    3.76    3.30
   0   4  13   -3.30    3.12
   0  -5 -12    0.58    3.00
   0  -5 -11  163.94    7.05
   0  -5 -10   -1.18    2.70
   0  -5  -9  221.80    7.22
   0  -5  -8    1.09    2.12
   0  -5  -8   -1.08    1.91
   0  -5  -8   -2.43    2.02
   0  -5  -7  903.94   10.74
   0  -5  -7  909.35   12.25
   0  -5  -6   -2.34    1.87
   0  -5  -6    1.94    1.54
   0  -5  -6   -1.05    1.58
   0   5  -5 1990.37   19.00
   0  -5  -5 2005.73   13.59
   0  -5  -5 1971.22   16.11
   0   5  -5 1969.52   18.91
   0  -5  -5 2026.28   13.35
   0  -5  -4    0.95    1.57
   0   5  -4    1.41    2.05
   0  -5  -4    0.46    1.20
   0  -5  -4    0.50    1.51
   0   5  -4   -0.55    2.09
   0  -5  -3 3181.26   17.70
   0  -5  -3 3194.77   18.02
   0   5  -3 3232.51   21.85
   0   5  -3 3251.43   22.08
   0  -5  -3 3223.14   15.31
   0  -5  -2    0.21    1.27
   0   5  -2    0.47    1.60
   0   5  -2    1.16    1.79
   0   5  -2   -1.24    1.66
   0  -5  -2    1.84    1.26
   0  -5  -1 3907.85   17.23
   0  -5  -1 3911.76   17.58
   0   5  -1 3874.61   21.31
   0   5  -1 3927.20   21.77
   0   5   0    3.54    1.91
   0   5   0    0.20    1.47
   0  -5   0    0.48    1.26
   0  -5   0    1.36    1.22
   0   5   1 3979.52   18.39
   0  -5   1 3901.48   18.47
   0  -5   2    0.23    1.38
   0  -5   2    1.46    1.35
   0  -5   2   -0.65    1.52
   0   5   2    0.45    1.63
   0  -5   3 3172.44   18.80
   0  -5   3 3132.87   21.38
   0  -5   4    2.08    1.65
   0  -5   4    1.43    1.45
   0  -5   4    2.64    1.78
   0   5   4   -0.25    1.87
   0  -5   5 1935.97   17.65
   0  -5   5 1895.38   16.71
   0  -5   6    2.00    1.85
   0  -5   6    0.28    1.84
   0  -5   6    0.27    1.75
   0   5   6   -0.20    2.04
   0  -5   7  832.39   12.58
   0  -5   7  821.50   12.55
   0  -5   8    0.36    2.12
   0  -5   8    2.53    2.21
   0  -5   9  201.52    7.17
   0  -5   9  208.33    7.23
   0  -5  10    1.39    2.52
   0  -5  10    1.49    2.60
   0  -5  11  152.36    7.29
   0  -5  11  157.33    7.48
   0  -5  12    3.72    3.01
   0  -5  12   -1.14    3.11
   0  -6  -9   -0.72    2.61
   0  -6  -8  717.97   11.90
   0  -6  -7   -0.70    2.03
   0  -6  -6   97.90    4.48
   0  -6  -5   -0.94    1.75
   0  -6  -5    1.38    1.71
   0  -6  -5    2.62    1.51
   0  -6  -5    1.31    1.55
   0  -6  -4 1282.06   12.36
   0   6  -4 1217.08   16.02
   0   6  -4 1237.34   15.90
   0  -6  -4 1281.88   10.53
   0  -6  -4 1295.60   12.18
   0  -6  -3   -0.94    1.61
   0   6  -3   -3.08    2.43
   0   6  -3    0.25    2.23
   0   6  -3    3.58    2.35
   0  -6  -3    1.56    1.49
   0  -6  -3    0.03    1.24
   0   6  -2  176.51    5.73
   0  -6  -2  168.20    3.68
   0  -6  -2  185.66    4.25
   0  -6  -2  182.09    4.17
   0   6  -2  164.44    5.54
   0   6  -2  170.51    6.04
   0  -6  -1    2.23    1.58
   0   6  -1   -0.60    1.87
   0  -6  -1    2.10    1.64
   0   6  -1   -0.73    1.92
   0   6   0 4223.42   22.37
   0  -6   0 4290.13   19.70
   0  -6   0 4279.71   19.85
   0  -6   1    1.96    1.68
   0  -6   1    0.50    1.68
   0   6   1    2.18    2.08
   0  -6   2  170.90    4.70
   0  -6   2  167.35    4.68
   0   6   2  160.65    6.18
   0  -6   3   -0.55    1.54
   0  -6   3   -0.54    1.69
   0   6   3   -1.00    2.03
   0  -6   4 1253.90   13.70
   0  -6   4 1231.06   13.56
   0   6   4 1218.86   16.82
   0   6   5    4.00    2.42
   0  -6   5   -0.72    1.75
   0  -6   5    1.95    1.96
   0   6   6   93.31    5.47
   0  -6   6  104.25    4.78
   0  -6   6  100.16    4.64
   0  -6   7    2.54    2.26
   0   6   7    5.27    2.56
   0  -6   7    3.82    2.30
   0  -6   8  703.96   13.15
   0  -6   8  732.46   13.22
   0   6   9    1.16    2.75
   0  -6   9    5.45    2.62
   0  -6   9    1.57    2.45
   0   6  10  104.95    6.80
   0  -6  10   98.22    6.14
   0  -6  10   93.96    6.07
   0  -6  11    2.85    3.11
   0  -6  11    3.23    3.25
   0   6  11   -4.84    3.25
   0  -7  -3  254.39    5.01
   0  -7  -3  245.03    5.00
   0   7  -3  241.57    8.11
   0  -7  -2    1.26    1.33
   0   7  -2    1.27    2.09
   0  -7  -2    0.49    1.28
   0  -7  -1  815.92    8.74
   0  -7  -1  787.59    8.63
   0  -7   0    0.34    1.54
   0   7   0    2.35    2.29
   0  -7   0    0.31    1.59
   0  -7   1  787.46    9.65
   0  -7   1  758.86    9.32
   0   7   2    2.88    2.28
   0  -7   2    1.49    1.71
   0  -7   2    2.07    1.84
   0   7   3  223.55    8.02
   0  -7   3  218.98    6.01
   0  -7   3  233.74    6.18
   0  -7   4   -3.49    2.05
   0  -7   4    4.03    2.08
   0  -7   5  149.05    5.61
   0  -7   5  134.07    5.48
   0   7   5  144.11    6.86
   0  -7   6   -0.09    2.22
   0   7   6    0.07    2.59
   0  -7   6   -0.34    2.35
   0  -7   7   29.63    3.66
   0  -7   7   33.70    3.72
   0   7   7   35.43    4.36
   0  -7   8    2.71    2.71
   0   7   8    3.56    2.90
   0  -7   8    0.59    2.61
   0  -7   9   69.19    5.71
   0  -7   9   71.47    5.64
   0   8  -3    3.69    2.59
   0   8  -2   41.82    4.12
   0   8  -1    0.71    2.42
   0   8   0  449.77   11.37
   0   8   1    2.83    2.59
   0   8   2   37.84    4.24
   0   8   3    0.43    2.51
   0   8   4  282.40    9.73
   0   8   5    0.67    2.68
   0   8   7   -2.02    2.93
   0   9  -2    1.16    3.20
   0   9  -1  250.85    9.37
   0   9   0    3.04    3.13
   0   9   1  251.59    9.64
   0   9   2    2.04    3.14
  -1   0  -8   -1.34    1.56
  -1   0  -8    2.36    1.74
   1   0  -8    2.00    1.60
   1   0  -8    1.00    1.82
  -1   0  -7    0.69    1.40
   1   0  -7   -1.74    1.58
  -1   0  -7    0.05    1.38
   1   0  -7   -0.59    1.37
   1   0  -6   -1.74    1.47
  -1   0  -6   -0.16    1.39
   1   0  -6   -1.85    1.40
  -1   0  -6   -0.67    1.44
   1   0  -5    0.44    1.28
  -1   0  -5    1.51    1.41
   1   0  -5    2.03    1.35
  -1   0  -5   -0.38    1.29
   1   0  -4    0.47    0.95
  -1   0  -4   -0.13    0.97
  -1   0  -4    0.20    0.99
   1   0  -4    0.09    0.95
   1   0  -3    0.12    0.81
   1   0  -3    1.08    0.78
  -1   0  -3   -0.14    0.87
  -1   0  -3   -0.06    0.79
  -1   0  -2   -0.05    0.82
   1   0  -2   -0.44    0.80
   1   0  -2    1.30    0.88
   1   0  -1    0.35    0.62
  -1   0  -1    0.24    0.64
   1   0  -1    0.97    0.65
   1   0   0    0.78    0.48
  -1   0   0   -0.37    0.43
  -1   0   1    0.27    0.60
  -1   0   1    0.00    0.64
   1   0   2   -0.21    0.81
  -1   0   2    0.24    0.72
  -1   0   2    0.47    0.75
  -1   0   3    0.76    0.84
  -1   0   3    0.66    0.81
   1   0   3    1.04    0.98
   1   0   4    0.31    1.00
  -1   0   4    0.07    0.88
  -1   0   4    0.54    0.91
  -1   0   5    2.12    1.36
   1   0   5    5.09    1.50
  -1   0   5    1.71    1.30
   1   0   6    1.92    1.48
  -1   0   6    1.57    1.46
  -1   0   6    2.12    1.43
   1   0   7   -0.85    1.39
  -1   0   7    0.93    1.38
  -1   0   7    1.60    1.44
   1   0   8   -1.21    1.75
  -1   0   8    0.02    1.44
  -1   0   8    3.01    1.68
  -1   0   9    1.05    1.70
   1   0   9    1.36    1.93
  -1   0   9    1.79    1.83
  -1   0  10   -1.80    1.91
   1   0  10   -2.16    2.19
  -1   0  10    1.41    1.93
  -1   0  11   -3.28    2.28
   1   0  11   -0.14    2.37
  -1   0  11    1.53    2.13
  -1   0  12    1.82    2.24
   1   0  12    2.86    2.46
  -1   0  12   -2.65    2.55
  -1   0  13   -2.58    2.69
   1   0  13    1.87    2.67
  -1   0  13    3.84    2.96
   1   0  14   -1.00    2.79
  -1   0  14    0.33    2.92
  -1   0  15    8.85    3.46
   1   0  15   10.50    3.99
  -1  -1  -8  103.68    4.20
  -1  -1  -8  108.98    4.33
   1  -1  -8  114.62    4.38
  -1  -1  -7  224.78    5.68
  -1   1  -7  217.77    5.73
   1  -1  -7  227.70    5.54
  -1   1  -7  222.14    5.68
   1   1  -7  219.73    5.72
   1   1  -7  214.48    5.70
   1  -1  -7  225.35    5.47
  -1  -1  -7  234.22    5.73
  -1   1  -6 5042.27   23.96
   1   1  -6 5035.37   25.01
   1   1  -6 5054.02   24.96
   1  -1  -6 5070.46   22.58
  -1  -1  -6 5032.47   23.97
   1  -1  -6 5108.46   22.56
  -1  -1  -6 5077.05   24.10
  -1   1  -6 4979.49   24.04
   1   1  -5  101.12    3.44
  -1   1  -5  103.25    3.45
   1  -1  -5  101.57    3.13
   1   1  -5  106.30    3.52
  -1   1  -5  108.36    3.51
  -1  -1  -5  102.53    3.44
  -1  -1  -5  103.37    3.34
   1  -1  -5  100.68    3.15
   1  -1  -4 1887.49   10.91
   1  -1  -4 1923.93   11.04
  -1  -1  -4 1929.71   12.72
   1   1  -4 1944.37   13.14
   1   1  -4 1935.34   13.18
  -1   1  -4 1896.06   12.28
  -1   1  -4 1881.62   12.26
  -1   1  -3  102.47    2.66
   1   1  -3  104.32    2.89
  -1   1  -3  102.68    2.68
   1  -1  -3  107.70    2.33
  -1  -1  -3  108.42    2.86
   1  -1  -3  106.14    2.31
   1   1  -3  106.83    2.93
  -1  -1  -1  356.94    4.34
   1   1  -1  363.95    4.55
  -1  -1  -1  359.34    3.96
  -1   1  -1  358.92    3.19
  -1   1  -1  345.79    3.08
   1   1  -1  363.49    4.45
  -1  -1   0   73.33    2.10
   1   1   0   73.15    1.87
   1   1   0   71.17    2.08
  -1  -1   0   77.75    2.17
  -1  -1   0   70.70    1.91
  -1  -1   1  373.67    4.53
   1   1   1  353.37    4.19
  -1  -1   1  379.46    4.28
  -1  -1   1  359.50    4.43
   1  -1   1  357.31    3.34
  -1   1   3  111.03    2.32
  -1   1   3  105.54    2.25
  -1  -1   3   79.01    2.53
   1   1   3  108.50    2.88
  -1  -1   3   77.90    2.52
   1  -1   3  103.74    2.83
   1  -1   3  106.43    2.75
  -1   1   4 1919.03   11.09
  -1  -1   4 1983.18   12.88
  -1  -1   4 1973.78   12.93
  -1   1   4 1928.71   11.05
   1  -1   4 1888.92   12.91
   1  -1   4 1891.63   12.50
   1   1   4 2016.77   13.66
  -1  -1   5  105.83    3.56
  -1   1   5  103.65    3.16
   1   1   5  119.28    3.88
   1  -1   5  108.70    3.73
   1  -1   5  102.45    3.49
  -1  -1   5  106.36    3.61
  -1   1   5  109.94    3.24
  -1  -1   6 5050.54   24.51
   1  -1   6 5019.85   24.55
  -1   1   6 5124.60   22.79
   1   1   6 5013.50   24.95
  -1  -1   6 5093.98   24.41
  -1   1   6 5127.77   23.11
   1  -1   6 4991.83   25.37
  -1   1   7  229.19    5.48
   1  -1   7  222.69    6.02
  -1  -1   7  214.21    5.57
   1   1   7  229.99    5.90
  -1  -1   7  215.90    5.63
  -1   1   7  230.59    5.44
   1  -1   7  232.68    5.86
   1  -1   8  107.55    4.65
   1   1   8  104.42    4.49
  -1  -1   8   95.28    4.26
  -1  -1   8   99.14    4.28
   1  -1   8  105.10    4.80
  -1   1   8   98.88    3.99
  -1   1   8  104.94    4.13
  -1  -1   9  200.95    6.48
   1   1   9  190.92    6.26
  -1  -1   9  205.54    6.52
   1  -1   9  179.06    6.40
  -1   1   9  212.53    6.00
  -1   1   9  194.16    5.93
  -1   1  10  282.96    7.48
  -1  -1  10  288.82    8.05
   1   1  10  265.22    7.79
  -1   1  10  281.85    7.67
  -1  -1  10  268.36    7.70
   1  -1  10  263.98    8.22
   1   1  11   49.77    4.22
  -1   1  11   49.70    3.95
   1  -1  11   42.78    4.07
  -1   1  11   44.04    3.86
  -1  -1  11   47.35    4.13
  -1  -1  11   49.00    4.04
   1  -1  12  342.04   10.19
   1   1  12  336.33    9.92
  -1   1  12  337.85    9.51
  -1  -1  12  302.28    9.23
  -1  -1  12  321.81    9.34
   1  -1  13   18.92    3.65
  -1  -1  13    8.82    3.01
  -1   1  13   10.92    3.02
  -1  -1  13   13.95    3.20
   1   1  13   16.63    3.60
  -1   1  14  190.27    8.34
   1  -1  14  184.11    8.58
  -1  -1  14  179.04    8.05
  -1  -1  14  180.53    8.45
   1   1  15   16.35    4.71
  -1   1  15   14.24    3.83
  -1  -1  15   15.58    4.01
  -1  -2  -8   56.42    3.42
   1  -2  -8   59.61    3.29
   1  -2  -8   58.34    3.24
  -1  -2  -8   57.44    3.39
  -1  -2  -7 1076.80   12.12
   1  -2  -7 1106.65   11.26
  -1  -2  -7 1071.39   11.98
   1   2  -7 1061.11   13.17
   1  -2  -7 1116.01   11.51
  -1   2  -7 1064.20   12.73
   1   2  -7 1050.76   13.23
  -1   2  -7 1049.21   12.26
  -1   2  -6  656.43    9.16
   1   2  -6  674.45    9.92
   1  -2  -6  671.05    8.12
   1  -2  -6  636.83    7.94
  -1   2  -6  652.36    9.19
  -1  -2  -6  638.30    8.43
   1   2  -6  666.90    9.86
  -1  -2  -6  621.68    8.50
  -1   2  -5   81.95    3.20
  -1   2  -5   80.86    3.23
  -1  -2  -5   92.84    3.35
   1   2  -5   91.29    3.62
   1  -2  -5   88.79    2.84
   1  -2  -5   83.87    2.76
   1   2  -5   91.04    3.58
  -1   2  -4  117.41    3.48
   1   2  -4  119.05    3.85
   1  -2  -4  119.13    2.79
   1  -2  -4  122.10    2.86
   1   2  -4  115.55    3.84
  -1   2  -4  112.02    3.38
  -1  -2  -4  123.69    3.51
   1  -2  -3  137.70    2.39
  -1  -2  -3  137.59    3.47
   1  -2  -3  132.59    2.32
  -1   2  -3  130.43    3.14
  -1   2  -3  127.86    3.08
   1   2  -3  130.89    3.66
   1   2  -3  133.99    3.68
   1  -2  -2 2628.01    7.16
  -1   2  -2 2518.17   11.37
  -1   2  -2 2543.67   11.35
   1  -2  -2 2667.51    7.35
  -1  -2  -2 2604.38   14.00
   1   2  -2 2615.85   14.46
  -1   2  -2 2633.76   10.22
   1   2  -2 2598.87   14.65
   1   2  -1 2540.85   13.13
  -1  -2  -1 2563.34   13.30
  -1   2  -1 2637.24    9.04
   1   2  -1 2664.10   14.25
   1   2  -1 2665.00   14.03
  -1   2  -1 2669.80   10.77
  -1   2  -1 2681.58    9.08
  -1  -2  -1 2594.44   13.44
   1   2   0   70.82    2.42
   1   2   0   72.54    2.51
  -1  -2   0   71.87    2.41
  -1  -2   0   66.50    2.36
   1   2   0   66.67    2.39
   1   2   1 2534.48   14.19
  -1  -2   1 2614.47   13.35
   1  -2   1 2610.81    9.13
   1  -2   1 2634.31    9.13
  -1  -2   1 2579.98   13.70
   1   2   1 2668.98   13.51
  -1  -2   1 2601.83   13.46
   1  -2   2 2547.40   11.53
  -1  -2   2 2552.31   13.23
   1  -2   2 2588.51   11.55
  -1  -2   2 2415.25   13.70
   1   2   2 2622.66   14.63
   1  -2   2 2503.19   10.02
  -1  -2   2 2427.09   13.61
  -1   2   3  148.48    2.53
  -1  -2   3  136.92    3.61
  -1  -2   3  134.25    3.45
  -1  -2   3  142.86    3.66
   1  -2   3  125.47    3.18
   1  -2   3  124.00    3.16
   1  -2   3  142.39    2.49
   1  -2   4  112.82    3.53
   1  -2   4  115.03    3.54
   1  -2   4  136.26    2.77
  -1  -2   4  127.85    3.84
  -1  -2   4  134.41    3.89
  -1   2   4  126.95    2.97
   1   2   5   93.56    3.42
  -1   2   5   93.59    3.04
  -1  -2   5   94.12    3.60
   1  -2   5   86.39    3.41
  -1  -2   5   90.75    3.51
  -1  -2   6  659.32    9.40
   1  -2   6  636.06    9.23
   1  -2   6  649.80    9.20
  -1  -2   6  655.67    9.26
   1   2   6  661.89    9.20
  -1  -2   7 1055.99   12.52
   1  -2   7 1038.31   12.54
  -1  -2   7 1045.71   12.47
   1   2   7 1123.40   13.00
   1  -2   7 1043.15   12.37
  -1   2   7 1119.59   11.79
   1  -2   8   46.42    3.41
   1  -2   8   50.04    3.40
  -1  -2   8   52.96    3.53
  -1  -2   8   50.46    3.44
  -1   2   8   58.14    3.33
  -1   2   9  939.74   12.65
  -1  -2   9  884.49   13.24
  -1  -2   9  881.01   13.19
   1  -2   9  853.68   13.05
   1   2   9  970.65   14.03
   1  -2   9  858.99   13.43
   1  -2  10  388.63    9.71
  -1  -2  10  357.18    9.19
  -1  -2  10  380.24    9.52
   1   2  10  413.80    9.87
   1  -2  10  387.75   10.05
  -1   2  10  398.09    8.90
  -1  -2  11  167.09    6.78
   1  -2  11  168.52    7.06
  -1  -2  11  158.98    6.76
   1   2  11  175.92    7.14
  -1   2  11  159.75    6.24
  -1   2  12   35.97    3.84
   1   2  12   33.80    4.04
  -1  -2  12   37.34    4.07
   1  -2  12   33.55    4.10
  -1  -2  12   41.94    4.32
  -1   2  13  216.34    8.23
   1  -2  13  198.51    8.40
  -1  -2  13  179.68    7.99
   1   2  13  212.82    8.52
  -1  -2  13  181.24    7.94
   1   2  14  152.31    7.88
  -1  -2  14  132.01    7.18
  -1   2  14  146.83    7.56
   1  -2  14  130.90    7.67
  -1  -2  14  151.85    7.99
   1  -3  -9  104.31    4.51
   1  -3  -9  101.29    4.49
   1  -3  -8  125.63    4.50
   1  -3  -8  132.08    4.48
  -1  -3  -8  111.43    4.53
  -1  -3  -8  118.28    4.56
  -1  -3  -7  150.95    4.70
  -1  -3  -7  146.95    4.72
   1  -3  -7  147.30    4.37
  -1   3  -7  138.63    4.92
   1  -3  -7  153.57    4.33
  -1   3  -7  142.44    5.04
  -1   3  -6  143.14    4.68
   1   3  -6  138.48    5.10
   1  -3  -6  147.11    3.78
   1   3  -6  151.95    5.24
  -1   3  -6  144.72    4.60
  -1  -3  -6  141.61    4.23
  -1  -3  -6  145.64    4.46
   1  -3  -6  141.54    3.81
   1   3  -5  241.28    6.02
   1  -3  -5  256.02    4.35
  -1  -3  -5  247.87    5.30
  -1  -3  -5  244.30    5.76
   1  -3  -5  248.42    4.28
   1   3  -5  243.48    6.07
  -1   3  -5  237.29    5.38
  -1   3  -5  239.14    5.46
   1   3  -4  312.75    6.59
  -1   3  -4  296.03    5.60
   1   3  -4  319.55    6.68
  -1  -3  -4  304.41    5.47
  -1  -3  -4  308.16    6.08
   1  -3  -4  308.13    4.01
  -1   3  -4  305.29    5.60
   1  -3  -4  308.39    4.12
   1   3  -3  277.78    5.87
  -1  -3  -3  278.01    4.92
  -1  -3  -3  279.91    5.47
  -1   3  -3  276.75    4.77
   1  -3  -3  288.12    3.16
  -1   3  -3  284.23    4.84
   1   3  -3  275.63    5.80
   1  -3  -3  290.52    3.18
  -1   3  -2  588.07    6.64
   1   3  -2  554.10    7.76
   1   3  -2  580.76    8.00
   1  -3  -2  553.86    3.09
  -1   3  -2  572.87    6.07
   1   3  -2  567.60    8.06
  -1   3  -2  568.69    6.04
   1  -3  -2  557.12    3.07
  -1  -3  -1  358.02    5.83
  -1   3  -1  350.83    5.17
  -1   3  -1  352.92    4.12
   1   3  -1  385.02    6.34
  -1  -3  -1  366.48    5.78
  -1   3  -1  350.15    4.12
  -1  -3  -1  364.98    6.16
   1   3  -1  371.73    6.11
  -1  -3   0  822.07    8.38
   1   3   0  809.99    8.54
  -1  -3   0  808.97    8.47
  -1  -3   0  805.94    8.93
   1  -3   0  795.10    4.14
  -1   3   0  804.80    7.93
   1  -3   0  789.12    4.13
  -1   3   0  687.13    5.05
   1   3   0  834.88    9.57
   1   3   1  375.87    6.47
   1   3   1  367.75    5.58
   1  -3   1  356.09    3.78
  -1  -3   1  335.10    5.78
  -1  -3   1  376.81    6.04
  -1  -3   1  387.88    6.03
   1  -3   1  348.27    3.77
   1  -3   2  566.33    6.08
   1  -3   2  529.93    5.73
  -1  -3   2  575.78    7.35
   1   3   2  576.29    6.92
   1  -3   2  543.89    5.74
   1   3   2  569.99    8.11
  -1  -3   2  580.39    7.49
  -1  -3   3  279.14    5.42
  -1  -3   3  288.97    5.55
   1  -3   3  279.99    5.02
   1  -3   3  285.70    4.93
   1   3   3  282.59    5.92
  -1  -3   4  295.61    5.93
  -1  -3   4  282.41    5.70
  -1   3   4  305.52    4.28
   1  -3   4  293.38    5.58
   1   3   4  301.14    6.36
  -1  -3   4  298.23    5.96
   1  -3   4  273.56    5.52
   1  -3   5  234.51    5.46
   1  -3   5  254.69    4.54
  -1  -3   5  246.07    5.58
  -1   3   5  275.02    4.86
  -1  -3   5  241.76    5.76
  -1  -3   5  240.31    5.72
   1  -3   5  214.55    5.38
   1  -3   6  141.84    3.63
   1  -3   6  139.70    4.71
  -1  -3   6  142.72    4.80
  -1  -3   6  138.00    4.59
  -1   3   6  146.54    4.01
  -1  -3   6  140.47    4.76
   1  -3   6  135.29    4.70
   1  -3   7  157.08    4.30
   1  -3   7  150.84    5.23
  -1  -3   7  141.05    5.16
   1  -3   7  138.01    5.04
  -1   3   7  162.17    4.65
  -1  -3   7  142.09    5.15
   1  -3   8  125.33    5.13
  -1  -3   8  115.65    4.99
  -1   3   8  134.04    4.70
   1   3   8  144.98    5.28
   1  -3   8  104.91    4.83
  -1  -3   8  120.28    5.12
   1  -3   9  107.99    5.18
  -1   3   9  114.93    4.73
   1  -3   9   96.00    4.99
  -1  -3   9   98.79    5.13
  -1  -3   9  103.11    5.12
   1   3   9  116.57    5.25
   1   3  10   63.85    4.38
   1  -3  10   53.74    4.18
   1  -3  10   49.90    4.04
  -1  -3  10   51.34    4.16
  -1  -3  10   42.95    3.97
  -1   3  10   58.05    3.92
   1   3  11   59.26    4.40
   1  -3  11   49.82    4.28
  -1  -3  11   62.62    4.75
  -1  -3  11   58.78    4.58
   1  -3  11   58.12    4.71
  -1  -3  12   61.48    5.08
  -1   3  12   67.91    4.79
   1   3  12   73.34    5.04
  -1  -3  12   64.96    5.19
   1  -3  12   67.65    5.33
  -1  -3  13   21.25    4.09
   1  -3  13   25.87    4.09
   1   3  13   28.79    4.20
  -1  -3  13   34.36    4.47
  -1   3  14   40.08    4.87
   1  -3  14   21.99    4.38
   1   3  14   33.47    4.88
  -1  -3  14   34.52    4.66
  -1  -3  14   24.07    4.30
   1  -4  -9  845.92   11.57
   1  -4  -9  835.20   11.70
  -1  -4  -8   69.68    4.22
   1  -4  -8   60.69    3.38
   1  -4  -8   65.78    3.43
  -1  -4  -7  977.44   13.33
   1  -4  -7  988.52   10.63
  -1  -4  -7  923.72   11.33
   1  -4  -7  985.46   10.46
  -1  -4  -7  911.02   11.05
   1  -4  -6  325.79    5.59
  -1   4  -6  302.43    7.01
   1  -4  -6  328.30    5.47
  -1  -4  -6  317.62    6.58
  -1  -4  -6  323.11    7.37
  -1   4  -6  299.50    6.98
  -1  -4  -5  686.40   10.24
  -1   4  -5  628.26    9.42
   1  -4  -5  669.93    6.95
   1  -4  -5  617.55    7.55
   1  -4  -5  692.10    6.90
   1   4  -5  662.58   10.74
  -1   4  -5  645.22    9.46
  -1  -4  -5  636.62    8.56
   1   4  -5  640.74   10.57
  -1  -4  -4  100.72    3.84
   1   4  -4  105.32    4.38
   1  -4  -4  105.38    2.39
  -1   4  -4  104.19    3.72
   1  -4  -4  109.51    2.42
  -1   4  -4  104.79    3.73
   1  -4  -4   93.63    2.72
   1   4  -4  111.12    4.59
   1   4  -3  960.50   11.69
   1  -4  -3  880.08    6.72
  -1  -4  -3  981.11    9.82
   1  -4  -3  977.95    5.57
   1   4  -3  963.18   11.90
  -1  -4  -3  958.80   10.60
  -1   4  -3  951.45    9.92
  -1   4  -3  963.52    9.99
  -1   4  -3 1010.93   10.43
   1  -4  -3  880.80    6.52
   1  -4  -3  967.61    5.60
   1  -4  -2  445.23    2.92
  -1   4  -2  451.22    6.99
  -1   4  -2  468.38    6.46
  -1  -4  -2  463.66    7.32
   1   4  -2  421.92    7.68
   1   4  -2  472.70    8.13
  -1  -4  -2  467.41    7.21
   1   4  -2  471.77    8.22
   1  -4  -2  388.64    3.15
   1  -4  -2  449.52    2.88
   1  -4  -2  398.47    3.12
  -1   4  -2  455.95    6.31
  -1   4  -1 3024.43   14.01
   1  -4  -1 2979.42    7.94
   1  -4  -1 2948.17    7.95
  -1  -4  -1 3042.85   18.05
   1   4  -1 3042.36   19.16
   1   4  -1 3028.35   18.96
  -1   4  -1 3088.00   18.28
  -1  -4  -1 3077.05   17.85
   1   4  -1 2926.20   19.96
  -1   4  -1 2928.55   14.08
  -1  -4   0   10.65    1.58
   1   4   0    9.75    1.78
  -1   4   0    8.26    1.56
  -1  -4   0   11.68    1.78
  -1   4   0    7.79    0.91
   1  -4   0   10.13    0.79
   1  -4   0    9.37    0.77
  -1  -4   0   11.13    1.66
   1   4   0    9.75    1.73
   1  -4   1 3034.94   12.35
   1   4   1 3074.42   17.70
  -1   4   1 2980.66   18.62
  -1  -4   1 2892.96   18.88
  -1  -4   1 2977.00   17.63
   1   4   1 2962.43   20.15
  -1  -4   1 2994.39   17.42
   1  -4   1 3013.36   12.26
   1  -4   2  420.27    5.53
   1   4   2  487.38    7.06
   1  -4   2  431.40    5.51
   1  -4   2  469.12    6.80
  -1  -4   2  451.04    7.18
  -1  -4   2  423.71    7.35
  -1  -4   2  462.78    7.16
  -1   4   2  454.09    7.69
   1  -4   3  984.57    9.74
  -1  -4   3  994.92   10.79
   1  -4   3  969.46    9.33
   1  -4   3  914.47    9.19
  -1  -4   3  918.06   10.83
  -1  -4   3  939.74   10.59
  -1  -4   4  102.03    4.03
   1   4   4   96.11    4.16
  -1  -4   4  106.12    3.95
  -1  -4   4  109.14    3.99
   1  -4   4   94.13    3.60
   1  -4   4  103.35    3.67
   1  -4   4  104.59    3.38
  -1  -4   5  603.80    9.47
   1  -4   5  659.65    8.35
  -1  -4   5  653.77    9.71
   1  -4   5  640.19    9.24
   1  -4   5  614.15    9.21
  -1  -4   5  630.25    9.57
   1   4   5  648.84   10.90
  -1  -4   6  311.89    7.16
   1   4   6  326.06    8.09
   1  -4   6  312.93    6.96
  -1  -4   6  315.17    7.25
   1  -4   6  297.33    6.88
  -1  -4   6  313.89    7.32
  -1  -4   7  854.01   11.94
   1  -4   7 1002.45   11.31
  -1  -4   7  931.49   12.89
   1  -4   7  944.39   12.89
  -1  -4   7  952.46   13.10
   1  -4   7  902.18   12.58
   1  -4   8   69.75    3.57
   1  -4   8   62.47    3.95
  -1   4   8   69.83    3.63
  -1  -4   8   64.63    4.05
   1  -4   8   63.76    4.05
  -1  -4   8   59.72    4.03
   1  -4   9  844.28   11.49
   1  -4   9  834.24   13.26
  -1  -4   9  861.20   13.74
  -1  -4   9  839.54   13.57
   1  -4   9  822.12   13.34
  -1  -4  10  272.14    8.49
  -1   4  10  293.30    7.71
  -1  -4  10  276.73    8.54
   1  -4  10  257.64    8.21
   1  -4  10  262.08    8.07
  -1  -4  11  221.09    8.17
  -1  -4  11  211.11    8.09
  -1   4  11  202.30    7.05
   1  -4  11  188.48    7.52
   1  -4  11  207.58    8.04
   1  -4  12   32.04    4.53
  -1   4  12   20.20    3.24
   1  -4  12   27.09    4.08
  -1  -4  12   22.96    3.71
  -1  -4  12   23.36    3.77
   1  -4  13  213.48    9.16
  -1   4  13  196.66    8.21
  -1  -4  13  218.29    9.05
  -1  -4  13  211.58    9.00
  -1  -5 -12   32.72    4.88
  -1  -5 -11   12.17    3.40
  -1  -5 -10   29.54    3.74
  -1  -5  -9   97.99    5.42
   1  -5  -8   10.32    2.26
   1  -5  -8   18.45    2.41
  -1  -5  -8   15.56    2.81
   1  -5  -8   14.19    2.31
  -1  -5  -7   23.84    2.53
   1  -5  -7   21.77    2.53
   1  -5  -7   21.63    2.24
   1  -5  -7   24.28    2.28
  -1  -5  -7   26.03    3.17
  -1  -5  -7   24.19    2.57
  -1  -5  -6  515.22    8.46
  -1   5  -6  465.98    9.63
   1  -5  -6  482.21    7.52
  -1  -5  -6  516.69    9.55
  -1   5  -6  461.10    9.66
   1  -5  -6  508.44    6.71
   1  -5  -6  500.58    6.56
   1  -5  -5  260.70    4.17
  -1   5  -5  250.59    6.67
  -1  -5  -5  257.68    5.77
   1  -5  -5  246.65    4.16
  -1  -5  -5  264.61    6.71
  -1   5  -5  261.72    6.80
  -1   5  -4   68.15    3.73
   1  -5  -4   66.18    2.19
   1   5  -4   69.33    4.07
   1  -5  -4   65.22    1.83
   1   5  -4   70.09    4.19
   1  -5  -4   60.85    1.81
  -1  -5  -4   64.37    3.62
  -1   5  -4   66.02    3.68
   1  -5  -4   55.91    2.21
  -1  -5  -3  223.85    5.83
   1   5  -3  244.42    6.85
  -1   5  -3  220.43    5.50
   1   5  -3  211.35    6.32
   1  -5  -3  177.16    2.61
   1  -5  -3  208.04    2.45
  -1   5  -3  239.71    5.98
  -1   5  -3  233.25    5.57
   1   5  -3  226.79    6.56
  -1  -5  -3  221.57    5.01
   1  -5  -3  212.68    2.44
   1  -5  -3  179.85    2.59
  -1  -5  -3  221.77    5.61
   1  -5  -2  783.61    3.95
  -1   5  -2  822.85    9.45
   1  -5  -2  749.29    4.05
   1  -5  -2  783.57    3.87
  -1   5  -2  814.40    9.48
   1   5  -2  819.69   11.61
  -1   5  -2  836.32   10.93
  -1  -5  -2  805.39   10.21
   1   5  -2  809.16   11.70
   1   5  -2  747.58   11.32
   1  -5  -2  757.68    4.07
  -1  -5  -2  808.03   10.06
  -1  -5  -1  622.96    8.58
  -1   5  -1  650.63    7.52
  -1   5  -1  678.89   10.13
   1   5  -1  600.43   10.34
  -1  -5  -1  613.95    8.66
   1   5  -1  693.80   10.56
   1   5  -1  691.31   10.33
   1  -5  -1  574.27    4.20
  -1   5  -1  623.81    7.40
   1  -5  -1  654.34    4.29
   1  -5  -1  649.62    4.28
  -1   5   0  158.00    4.97
   1   5   0  136.72    5.00
  -1  -5   0  142.00    4.86
  -1  -5   0  168.86    4.75
   1   5   0  156.46    4.74
   1  -5   0  163.85    2.74
   1  -5   0  164.88    2.77
  -1   5   0  136.34    3.01
  -1  -5   0  168.26    4.68
  -1  -5   1  635.16    8.76
  -1  -5   1  637.21    8.88
  -1  -5   1  570.03    9.26
   1   5   1  626.76   10.74
   1  -5   1  645.61    6.41
  -1   5   1  579.27    9.41
   1  -5   1  638.99    6.38
   1   5   1  655.00    8.96
   1   5   2  767.24   11.83
  -1  -5   2  807.59   10.05
   1  -5   2  792.86    8.34
   1  -5   2  815.94    8.27
  -1  -5   2  803.69    9.93
  -1   5   2  764.86   11.14
  -1   5   3  210.16    6.14
  -1  -5   3  215.60    5.51
  -1  -5   3  200.03    5.77
  -1  -5   3  215.30    5.52
   1   5   3  220.13    6.64
   1  -5   3  217.09    4.91
   1  -5   3  207.61    4.89
   1  -5   3  222.29    5.50
  -1  -5   4   57.81    3.48
  -1   5   4   63.81    3.86
   1  -5   4   66.48    3.25
   1  -5   4   73.64    3.36
   1   5   4   68.89    4.15
  -1  -5   4   70.63    3.57
  -1  -5   4   68.13    3.53
   1  -5   4   60.16    3.18
  -1  -5   5  249.06    6.51
   1   5   5  236.49    7.25
   1  -5   5  239.93    6.14
  -1  -5   5  246.98    6.46
   1  -5   5  234.07    6.12
   1  -5   6  485.95    9.07
   1   5   6  501.62   10.79
   1  -5   6  485.16    9.02
  -1  -5   6  486.54    9.48
  -1  -5   6  504.44    9.63
   1   5   7   22.67    3.24
   1  -5   7   22.65    2.92
  -1  -5   7   25.24    2.95
  -1  -5   7   24.87    2.92
   1  -5   7   22.58    2.79
   1  -5   7   25.59    2.68
  -1  -5   8   18.24    2.79
   1   5   8   12.98    2.80
   1  -5   8    9.27    2.29
  -1  -5   8   15.51    2.82
   1  -5   8   15.52    2.74
   1  -5   8   12.52    2.65
   1  -5   9   84.49    4.94
  -1  -5   9   91.15    5.17
   1  -5   9   80.02    4.82
   1   5   9   82.76    5.47
  -1  -5   9   91.96    5.15
   1  -5  10   28.93    3.75
  -1  -5  10   35.64    3.95
  -1  -5  10   36.61    3.92
   1  -5  10   27.67    3.66
   1   5  10   28.73    3.94
   1   5  11    6.42    3.07
  -1  -5  11   17.14    3.53
   1  -5  11   17.64    3.80
  -1  -5  11    7.21    2.98
   1  -5  11    8.68    3.10
  -1  -5  12   35.97    4.49
  -1  -5  12   24.44    4.12
   1  -5  12   21.67    4.15
   1  -5  12   28.08    4.32
  -1  -6 -10   26.67    3.94
  -1  -6  -9   93.48    5.46
  -1  -6  -8   36.62    3.82
   1  -6  -7  296.76    6.43
  -1  -6  -7  355.99    8.75
  -1  -6  -6   43.31    3.16
  -1  -6  -6   38.64    3.47
   1  -6  -6   36.11    2.31
  -1   6  -5  479.19   10.23
   1  -6  -5  404.10    4.66
   1  -6  -5  359.13    5.21
  -1  -6  -5  475.91    8.00
   1  -6  -5  391.10    5.14
  -1  -6  -5  513.59    9.45
   1  -6  -5  389.23    4.45
  -1  -6  -5  502.53    9.61
  -1   6  -5  506.87   10.34
  -1  -6  -4   62.74    3.20
  -1  -6  -4   72.10    3.94
   1  -6  -4   36.17    1.05
  -1  -6  -4   72.33    3.83
  -1   6  -4   66.65    4.13
  -1   6  -4   55.64    4.01
   1  -6  -4   28.15    1.10
   1  -6  -4   33.00    1.12
   1  -6  -4   34.30    1.01
   1   6  -3  988.21   14.69
   1   6  -3  985.05   14.49
  -1   6  -3  937.39   12.69
  -1  -6  -3  936.01   10.41
   1   6  -3  931.32   14.06
  -1   6  -3  957.22   12.60
  -1  -6  -3  990.75   12.20
  -1  -6  -3  949.53   12.32
  -1   6  -2   21.08    2.48
  -1  -6  -2   19.40    2.34
   1   6  -2   21.23    3.01
  -1   6  -2   18.22    2.51
   1   6  -2   21.84    3.18
  -1  -6  -2   18.66    2.39
   1   6  -2   18.85    2.68
   1  -6  -1 1042.26    5.69
  -1  -6  -1 1175.93   12.76
  -1  -6  -1 1141.31   12.77
   1  -6  -1 1136.08    5.72
   1   6  -1 1069.12   14.86
   1  -6  -1 1152.32    5.73
   1   6  -1 1134.44   14.17
  -1   6  -1 1103.73   14.04
  -1   6  -1 1158.25   10.83
  -1   6   0   82.71    4.22
   1  -6   0   96.70    2.34
  -1   6   0   89.78    2.65
  -1  -6   0   99.27    3.89
   1   6   0   85.30    4.65
  -1  -6   0   96.20    3.83
   1   6   0   94.07    4.29
   1  -6   0   94.02    2.32
   1  -6   1 1146.71    9.26
   1   6   1 1077.99   15.67
  -1  -6   1 1190.38   12.74
   1   6   1 1191.40   13.19
   1  -6   1 1132.83    9.26
  -1   6   1 1121.41   14.85
  -1  -6   1 1180.24   12.82
   1   6   2   23.50    2.91
  -1  -6   2   21.04    2.46
  -1  -6   2   20.03    2.26
   1  -6   2   17.07    1.92
  -1   6   2   18.02    2.69
   1  -6   2   16.48    1.88
   1   6   3  958.13   15.12
   1  -6   3  972.77   10.97
  -1  -6   3  983.92   12.20
  -1  -6   3  976.57   12.16
  -1   6   4   56.32    4.01
  -1  -6   4   61.70    3.57
   1  -6   4   70.00    3.59
   1  -6   4   56.04    3.41
  -1  -6   4   62.31    3.55
   1  -6   5  482.78    9.05
  -1   6   5  476.91   10.90
  -1  -6   5  502.19    9.67
  -1  -6   5  482.82    9.35
   1  -6   5  483.75    8.97
   1   6   5  493.28   11.23
   1  -6   5  517.56    9.54
   1  -6   6   35.60    3.31
  -1  -6   6   36.34    3.26
  -1  -6   6   37.61    3.37
   1  -6   6   35.57    3.31
  -1   6   6   39.90    3.86
   1   6   7  297.55    9.45
   1  -6   7  310.51    8.27
  -1  -6   7  323.73    8.47
  -1  -6   7  311.05    8.36
   1  -6   7  297.13    8.24
  -1   6   7  338.78    9.97
   1  -6   8   32.87    3.72
   1  -6   8   29.87    3.54
  -1  -6   8   32.36    3.57
  -1  -6   8   31.88    3.51
   1   6   8   35.73    4.10
   1   6   9   88.22    5.92
  -1  -6   9   87.61    5.38
  -1  -6   9   86.72    5.44
   1  -6   9   68.70    4.84
   1  -6   9   83.86    5.24
   1   6  10   24.42    3.88
  -1  -6  10   27.97    4.08
  -1  -6  10   21.64    3.67
   1  -6  10   16.72    3.63
   1  -6  10   25.82    3.97
  -1  -6  11   64.86    5.73
  -1  -6  11   70.87    5.67
   1  -6  11   66.22    5.54
   1   6  11   76.90    6.17
   1  -6  11   65.76    5.73
  -1  -7  -6  635.96   11.93
  -1  -7  -6  656.88   11.53
  -1  -7  -5   21.36    3.01
  -1  -7  -5   20.79    2.95
  -1  -7  -4  267.18    7.09
  -1  -7  -4  277.96    7.02
   1   7  -3   18.18    2.96
  -1  -7  -3   20.55    2.61
  -1  -7  -3   19.26    2.46
  -1   7  -2  975.13   14.82
  -1  -7  -2 1009.11   12.24
  -1  -7  -2 1016.18   12.18
  -1   7  -1   77.18    4.57
   1   7  -1   77.11    4.77
  -1  -7  -1   84.53    3.84
  -1  -7  -1   84.88    3.90
  -1  -7   0    0.29    1.92
  -1  -7   0   -0.43    1.83
  -1   7   0   -3.60    2.56
   1   7   0    3.82    2.50
   1  -7   0    0.03    0.82
   1  -7   0    2.85    0.88
  -1  -7   1   80.30    3.78
   1   7   1   64.06    4.50
   1  -7   1   72.12    2.65
   1  -7   1   74.96    2.73
  -1   7   1   68.65    4.41
  -1  -7   1   85.76    3.91
  -1  -7   2  989.49   12.56
  -1  -7   2  981.50   12.46
   1  -7   2  961.71   10.32
  -1   7   2  950.90   15.41
   1  -7   2  955.45   10.25
   1   7   3   20.26    3.15
  -1  -7   3   20.24    2.56
   1  -7   3   19.25    2.38
   1  -7   3   15.27    2.09
  -1  -7   3   16.25    2.51
  -1   7   4  255.70    8.55
   1   7   4  278.03    9.13
  -1  -7   4  269.29    7.35
   1  -7   4  273.24    6.79
   1  -7   4  256.76    6.85
  -1  -7   4  276.21    7.40
   1   7   5   26.70    3.83
  -1  -7   5   17.02    2.89
   1  -7   5   24.01    2.92
  -1  -7   5   23.27    2.93
   1  -7   5   19.46    2.97
  -1   7   5   21.02    3.47
  -1   7   6  607.95   13.73
  -1  -7   6  633.79   11.86
   1  -7   6  634.67   11.52
  -1  -7   6  618.55   11.90
   1   7   6  650.92   14.49
   1   7   7   28.22    3.99
  -1   7   7   26.01    4.00
  -1  -7   7   30.95    3.66
  -1  -7   7   25.81    3.64
   1  -7   7   23.94    3.44
   1  -7   7   24.80    3.48
   1   7   8  101.12    6.65
  -1  -7   8   93.91    5.51
   1  -7   8   73.88    5.29
  -1  -7   8   98.74    5.81
   1  -7   8   83.69    5.34
  -1   7   8   89.19    6.24
   1  -7   9   19.49    3.94
  -1  -7   9   21.10    3.69
  -1   7   9   15.36    3.86
   1  -7   9   16.93    3.77
  -1  -7   9   19.40    3.85
  -1   8  -3  221.70    8.48
   1   8  -2   21.81    3.65
  -1   8  -2   26.26    3.67
   1   8  -1   79.69    5.42
  -1   8   0   -3.55    2.57
   1   8   0    1.18    2.66
   1   8   1   94.50    5.64
  -1   8   1   97.65    5.72
  -1   8   2   15.97    3.19
  -1  -8   2   22.30    2.83
  -1  -8   2   24.24    2.80
   1   8   2   25.78    3.71
  -1   8   3  187.85    7.81
   1   8   3  189.23    8.35
  -1  -8   3  189.94    6.45
  -1  -8   3  205.78    6.56
  -1   8   4   12.78    3.06
   1   8   4   12.78    3.67
  -1  -8   4   16.05    3.01
  -1  -8   4   11.99    2.67
  -1  -8   5   82.32    5.13
  -1   8   5   90.45    6.07
   1   8   5  102.35    6.57
  -1  -8   5   91.47    5.21
  -1  -8   6   10.80    3.21
  -1   8   6   12.45    3.41
   1   8   6    6.37    3.55
  -1  -8   6    8.23    3.03
  -1  -8   7  127.15    6.73
  -1  -8   7  137.98    6.87
  -1   8   7  150.91    8.06
  -1   9  -1    7.76    3.27
   1   9  -1    9.02    3.55
   1   9   0  221.07    9.07
  -1   9   0  238.02    9.32
  -1   9   1    5.09    3.24
   2   0  -8 2101.37   18.90
   2   0  -8 2099.96   18.75
  -2   0  -7 1627.93   15.36
   2   0  -7 1798.75   16.25
   2   0  -7 1790.86   16.29
  -2   0  -7 1586.87   15.37
  -2   0  -6  496.92    7.93
   2   0  -6  502.10    8.05
   2   0  -6  514.36    8.09
  -2   0  -6  491.94    8.06
   2   0  -5 1688.34   13.42
   2   0  -5 1688.84   13.41
  -2   0  -5 1719.19   13.94
  -2   0  -5 1720.16   13.46
   2   0  -4  625.82    7.62
  -2   0  -4  622.70    7.89
   2   0  -4  634.37    7.74
   2   0  -3 4059.26   18.08
  -2   0  -3 4027.44   18.34
   2   0  -3 4019.47   17.72
   2   0  -2 1579.44   10.59
   2   0  -2 1599.91   10.51
  -2   0  -1 2565.92   13.09
   2   0  -1 2544.63   13.00
   2   0   0 6798.42   20.19
  -2   0   0 7236.19   21.44
  -2   0   1 2557.00   12.81
  -2   0   1 2559.74   12.68
   2   0   2 1644.56    7.31
  -2   0   2 1656.60   10.73
  -2   0   2 1659.84   10.64
   2   0   3 4125.68   19.36
  -2   0   3 3818.50   16.91
  -2   0   3 3845.49   17.04
   2   0   3 4009.24   12.19
  -2   0   4  657.79    7.51
  -2   0   4  650.66    7.47
   2   0   4  659.08    8.51
  -2   0   5 1684.74   12.88
  -2   0   5 1685.10   12.82
  -2   0   6  502.72    7.62
   2   0   6  525.42    8.95
  -2   0   6  508.23    7.74
  -2   0   7 1672.05   14.72
  -2   0   7 1689.83   14.69
   2   0   8 2167.62   20.18
  -2   0   8 2130.01   17.88
  -2   0   8 2136.57   17.72
  -2   0   9   88.51    4.30
   2   0   9   89.30    4.91
  -2   0   9   94.35    4.42
  -2   0  10  649.86   11.48
  -2   0  10  648.46   11.47
   2   0  10  628.70   12.47
  -2   0  11  266.71    8.00
  -2   0  11  252.60    7.80
   2   0  11  265.10    8.79
   2   0  12  383.50   11.15
  -2   0  12  382.61   10.13
  -2   0  12  389.73   10.05
  -2   0  13   50.75    4.50
  -2   0  13   47.90    4.43
   2   0  14   67.61    6.03
  -2   0  14   72.08    5.43
  -2   0  14   77.89    5.86
   2  -1  -8  217.75    5.95
   2  -1  -8  213.68    5.89
   2   1  -7  315.02    7.32
  -2   1  -7  289.43    6.72
   2   1  -7  322.26    7.37
   2  -1  -7  308.97    6.58
   2  -1  -7  304.26    6.56
  -2   1  -7  301.90    6.74
  -2  -1  -7  315.84    6.81
  -2  -1  -7  310.25    6.93
   2  -1  -6  183.26    4.66
  -2   1  -6  179.63    4.97
   2   1  -6  189.87    5.38
   2   1  -6  178.82    5.24
   2  -1  -6  177.07    4.62
  -2  -1  -6  180.86    5.04
  -2   1  -6  177.66    4.89
  -2  -1  -6  179.73    5.16
   2   1  -5  476.92    7.82
  -2  -1  -5  482.63    7.64
   2  -1  -5  476.46    6.78
   2  -1  -5  491.44    6.86
   2   1  -5  468.89    7.67
  -2   1  -5  461.29    7.26
  -2  -1  -4  116.21    3.72
   2   1  -4  103.67    3.80
  -2   1  -4  108.78    3.43
   2   1  -4   98.21    3.68
   2  -1  -4  118.00    3.21
   2  -1  -4  120.44    3.26
  -2   1  -4  109.57    3.37
  -2  -1  -3  718.67    8.55
   2   1  -3  720.26    8.50
  -2   1  -3  731.30    7.68
   2  -1  -3  751.75    7.06
  -2   1  -3  750.20    7.54
   2   1  -3  734.48    8.47
   2  -1  -3  750.39    6.98
  -2  -1  -3  739.65    8.50
   2   1  -2  979.48    9.37
   2   1  -2 1005.20    9.42
  -2  -1  -2 1033.08    7.74
  -2   1  -2 1004.51    7.99
  -2  -1  -2 1032.38    9.67
   2  -1  -2 1005.41    7.19
   2  -1  -2  996.30    7.38
   2   1  -1  704.95    7.86
  -2   1  -1  722.55    6.35
  -2   1  -1  690.88    6.14
   2  -1  -1  691.62    5.84
   2   1  -1  720.75    7.80
  -2  -1  -1  713.06    6.35
  -2  -1  -1  717.57    7.81
   2   1   0   24.55    1.41
   2   1   0   26.10    1.74
  -2   1   0   23.37    1.28
   2  -1   0   24.82    1.27
  -2  -1   0   19.51    1.61
  -2  -1   0   24.64    1.39
  -2   1   1  701.92    5.58
  -2  -1   1  731.00    6.84
   2   1   1  726.43    6.43
  -2  -1   1  736.47    7.89
  -2   1   1  712.86    5.55
  -2  -1   1  730.53    7.78
   2   1   1  715.46    7.50
   2   1   2 1029.71    7.94
  -2   1   2 1014.11    6.92
  -2   1   2 1017.18    6.86
  -2  -1   2 1014.45    9.39
  -2  -1   3  763.38    8.45
  -2   1   3  728.69    6.44
   2   1   3  747.63    7.06
  -2  -1   3  756.13    8.48
  -2   1   3  722.10    6.35
   2  -1   3  709.43    7.96
  -2  -1   4  122.12    3.74
  -2   1   4  112.99    3.00
  -2   1   4  117.22    3.04
  -2  -1   4  121.56    3.70
   2  -1   4  118.11    3.77
   2   1   4  117.36    3.32
   2  -1   5  470.36    7.75
  -2  -1   5  475.29    7.50
  -2   1   5  471.39    6.46
  -2  -1   5  479.24    7.51
   2   1   5  466.04    7.82
  -2   1   5  468.89    6.40
  -2  -1   6  177.98    4.95
   2   1   6  174.04    5.20
   2  -1   6  176.91    5.30
  -2  -1   6  178.12    5.00
  -2   1   6  176.26    4.39
  -2   1   6  173.06    4.34
   2   1   7  312.45    7.41
   2  -1   7  306.92    7.27
  -2  -1   7  310.55    6.83
  -2   1   7  302.35    6.17
  -2   1   7  304.07    6.23
  -2  -1   7  308.95    6.91
  -2  -1   8  221.50    6.29
   2  -1   8  210.68    6.60
   2   1   8  216.97    6.65
  -2  -1   8  214.40    6.20
  -2   1   8  217.04    5.81
  -2   1   8  230.69    5.97
  -2   1   9   17.51    2.36
   2  -1   9   15.42    2.66
  -2  -1   9   16.82    2.66
  -2  -1   9   19.56    2.82
   2   1   9   21.92    3.03
  -2   1   9   22.11    2.62
   2  -1  10  144.80    6.44
  -2   1  10  148.27    5.61
  -2  -1  10  138.05    5.83
  -2  -1  10  128.36    5.59
  -2   1  10  144.97    5.50
   2   1  10  150.32    6.55
  -2  -1  11   54.89    4.33
   2  -1  11   56.96    4.50
   2   1  11   54.99    4.60
  -2  -1  11   59.69    4.43
  -2   1  11   54.39    3.82
  -2   1  11   60.64    4.16
   2  -1  12   47.93    4.57
  -2  -1  12   48.75    4.39
  -2   1  12   56.42    4.32
   2   1  12   49.23    4.52
  -2   1  12   55.30    4.40
  -2  -1  12   53.01    4.44
  -2   1  13   34.70    3.97
   2   1  13   34.15    4.47
   2  -1  13   23.72    4.07
  -2  -1  13   31.36    3.94
  -2  -1  13   34.41    4.10
  -2   1  13   38.39    4.29
  -2  -1  14   18.64    3.69
   2  -1  14   11.63    3.68
  -2   1  14   10.21    3.33
   2   1  14    9.95    3.59
  -2  -1  14   19.78    3.80
   2  -2  -9  429.27    8.82
   2  -2  -9  436.20    8.79
   2  -2  -8  776.43   10.75
   2  -2  -8  801.65   10.85
   2  -2  -7  441.32    7.43
  -2  -2  -7  432.21    8.03
   2  -2  -7  439.09    7.40
  -2   2  -7  404.71    8.04
  -2   2  -7  418.67    7.91
  -2  -2  -7  425.50    8.24
   2  -2  -6  332.96    5.83
  -2  -2  -6  314.81    6.76
   2   2  -6  325.28    7.30
   2  -2  -6  327.88    5.78
  -2   2  -6  309.73    6.51
   2   2  -6  334.35    7.50
  -2   2  -6  318.30    6.49
   2  -2  -5  852.56    8.39
   2   2  -5  905.30   11.70
   2  -2  -5  855.14    8.33
  -2   2  -5  822.51    9.58
  -2  -2  -5  866.80   10.50
  -2   2  -5  827.52    9.55
   2   2  -5  906.49   11.57
   2  -2  -4  320.37    4.65
  -2  -2  -4  332.19    6.73
  -2  -2  -4  337.05    6.49
   2   2  -4  318.22    6.66
   2   2  -4  319.22    6.50
  -2   2  -4  305.91    5.42
   2  -2  -4  316.88    4.64
  -2   2  -4  302.09    5.43
  -2   2  -3  907.56    8.26
  -2  -2  -3  897.89   10.22
   2  -2  -3  907.49    6.82
   2   2  -3  890.80   10.47
  -2   2  -3  880.55    8.30
   2   2  -3  906.75   10.42
  -2  -2  -2  308.62    5.34
  -2   2  -2  320.43    4.36
  -2   2  -2  316.81    4.30
   2  -2  -2  325.18    3.38
   2   2  -2  323.38    6.11
  -2   2  -2  302.96    2.84
  -2  -2  -2  311.33    5.84
   2  -2  -2  307.55    3.41
   2   2  -2  325.80    6.21
  -2  -2  -1 1385.40   10.67
   2   2  -1 1360.91   10.94
   2  -2  -1 1328.73    5.40
  -2  -2  -1 1419.60   12.17
   2   2  -1 1408.42   12.31
  -2   2  -1 1382.15    7.32
   2   2  -1 1432.81   12.28
  -2   2  -1 1387.56    7.22
  -2   2   0 1223.31    5.58
  -2  -2   0 1214.02   10.01
  -2  -2   0 1200.14   10.98
   2   2   0 1175.19   10.06
  -2   2   0 1182.66    6.08
   2   2   0 1204.71   10.99
   2   2   1 1437.72   11.45
  -2  -2   1 1375.11   11.74
  -2  -2   1 1363.80   10.72
   2  -2   1 1314.25    7.98
  -2   2   1 1328.75    5.39
   2   2   1 1381.99   11.60
  -2  -2   1 1400.21   11.99
  -2   2   1 1335.58    5.33
  -2  -2   2  305.79    5.34
   2   2   2  312.75    5.46
  -2   2   2  316.76    2.83
   2   2   2  314.24    5.67
   2  -2   2  308.16    4.63
  -2  -2   2  322.73    5.98
  -2   2   2  310.91    2.79
  -2  -2   2  328.52    6.02
   2   2   3  931.86    9.70
  -2  -2   3  905.80   10.02
   2  -2   3  888.45    8.88
  -2   2   3  891.30    6.00
  -2  -2   3  915.78   10.21
  -2  -2   3  877.78    9.53
  -2   2   3  896.37    5.96
   2  -2   4  316.10    5.90
  -2  -2   4  326.31    6.32
  -2   2   4  319.90    4.35
  -2  -2   4  337.43    6.40
   2   2   4  302.94    5.77
  -2   2   4  323.17    4.38
  -2  -2   5  892.45   10.84
   2  -2   5  870.46    5.92
  -2   2   5  886.25    8.27
  -2   2   5  894.54    8.24
  -2  -2   5  893.13   10.81
   2   2   5  862.67   10.14
  -2  -2   6  332.96    7.06
  -2   2   6  342.66    5.85
  -2  -2   6  336.83    7.11
   2  -2   6  315.35    6.92
  -2   2   6  333.95    5.73
  -2  -2   7  386.63    8.07
  -2  -2   7  387.31    8.11
   2   2   7  448.34    8.82
   2  -2   7  398.45    8.24
  -2   2   7  421.71    7.06
  -2   2   7  435.62    7.27
   2  -2   8  730.67   12.00
  -2  -2   8  763.65   11.94
  -2  -2   8  763.94   11.90
  -2   2   8  773.42   10.22
  -2   2   8  771.12   10.37
   2  -2   9  427.64    9.81
  -2  -2   9  456.07    9.81
  -2  -2   9  432.45    9.61
   2   2   9  486.54   10.29
  -2   2   9  482.44    8.69
  -2   2   9  478.52    8.82
   2   2  10  295.21    8.65
  -2   2  10  283.84    7.64
   2  -2  10  271.47    8.39
  -2  -2  10  292.01    8.46
  -2  -2  10  291.26    8.36
  -2   2  10  289.22    7.32
  -2   2  11  305.13    8.36
   2  -2  11  278.60    9.00
   2   2  11  305.37    9.22
  -2  -2  11  277.48    8.71
  -2  -2  11  267.19    8.69
  -2   2  12  217.78    7.70
   2  -2  12  200.54    8.26
  -2  -2  12  224.15    8.36
   2   2  12  214.53    8.21
  -2  -2  12  212.87    8.20
  -2   2  13  217.24    8.17
   2  -2  13  186.35    8.42
   2   2  13  200.79    8.72
  -2  -2  13  206.75    8.46
  -2  -2  13  200.77    8.43
   2   2  14   64.50    5.86
  -2  -2  14   54.85    5.47
   2  -2  14   69.73    6.02
  -2   2  14   72.55    5.75
  -2  -2  14   69.86    5.65
   2  -3  -9  300.05    7.51
   2  -3  -9  288.10    7.15
   2  -3  -8 2131.98   17.38
   2  -3  -8 2100.45   17.05
  -2  -3  -7  589.53    9.99
   2  -3  -7  623.05    8.61
  -2  -3  -7  593.33   10.71
  -2   3  -7  581.66    9.80
  -2   3  -7  556.10    9.41
   2  -3  -7  641.32    8.66
  -2   3  -6  443.41    7.96
   2  -3  -6  465.68    6.65
  -2  -3  -6  465.51    9.15
   2  -3  -6  474.21    6.64
  -2  -3  -6  467.38    8.33
   2   3  -6  476.06    9.60
  -2   3  -6  442.97    7.93
   2   3  -6  462.42    9.52
   2   3  -5 1213.57   14.32
  -2  -3  -5 1246.71   13.03
  -2   3  -5 1192.42   11.74
  -2  -3  -5 1237.66   14.04
   2  -3  -5 1248.12    9.36
  -2   3  -5 1172.17   11.69
   2  -3  -5 1237.33    9.33
   2   3  -5 1219.79   14.25
   2   3  -4 2548.87   20.05
   2  -3  -4 2661.43   11.51
  -2   3  -4 2492.59   15.49
  -2   3  -4 2504.51   15.74
  -2  -3  -4 2624.54   18.36
   2  -3  -4 2666.74   11.63
  -2  -3  -4 2621.38   19.81
   2   3  -4 2562.72   19.87
  -2   3  -3 1211.33    9.74
  -2  -3  -3 1231.70   12.65
   2   3  -3 1248.93   13.47
  -2   3  -3 1235.37    9.74
   2  -3  -3 1088.42    5.98
   2  -3  -3 1069.49    5.94
   2   3  -3 1295.50   13.60
  -2  -3  -2  200.23    5.19
  -2   3  -2  227.74    3.82
   2   3  -2  219.30    5.66
  -2   3  -2  204.97    3.58
   2   3  -2  213.59    5.73
  -2   3  -2  198.14    3.50
  -2  -3  -2  201.67    5.02
  -2  -3  -1 1614.94   13.26
  -2   3  -1 1618.79    7.77
  -2   3  -1 1638.38    7.91
  -2  -3  -1 1632.52   14.24
  -2   3  -1 1716.67   10.70
   2   3  -1 1670.79   14.41
   2   3  -1 1593.41   13.61
  -2  -3  -1 1622.66   14.00
   2   3  -1 1688.63   14.61
   2   3   0 1489.67   13.39
  -2  -3   0 1515.80   13.55
  -2  -3   0 1528.37   13.41
   2   3   1 1699.03   13.93
   2  -3   1 1634.86    8.75
  -2  -3   1 1677.59   14.40
  -2  -3   1 1622.32   13.46
  -2  -3   1 1673.09   14.17
   2   3   2  209.54    5.25
  -2  -3   2  196.18    4.86
   2  -3   2  201.73    3.81
   2   3   2  224.25    5.26
  -2  -3   2  203.04    5.28
  -2  -3   2  219.12    5.40
   2   3   3 1274.76   12.81
  -2  -3   3 1293.95   12.80
  -2  -3   3 1273.36   12.83
   2  -3   4 2665.02   11.46
   2   3   4 2699.27   19.48
  -2   3   4 2592.13   11.15
  -2  -3   4 2537.21   18.31
  -2  -3   4 2449.80   17.72
   2  -3   4 2574.25   16.88
  -2  -3   4 2562.86   18.48
   2   3   5 1202.81   13.29
   2  -3   5 1167.37   12.46
  -2   3   5 1218.42    9.21
   2  -3   5 1243.71    8.31
  -2  -3   5 1271.89   13.76
  -2  -3   5 1271.78   13.74
  -2  -3   5 1221.78   13.89
  -2   3   6  485.23    6.75
  -2  -3   6  480.90    8.97
   2   3   6  475.46    8.95
  -2  -3   6  489.45    9.01
   2  -3   6  480.80    5.69
   2  -3   6  464.81    8.60
   2  -3   7  580.28   10.21
  -2   3   7  584.42    8.18
   2  -3   7  581.55    6.81
  -2  -3   7  588.72   10.35
   2   3   7  575.69   10.26
  -2  -3   7  611.70   10.55
   2  -3   8 2116.09   20.64
   2  -3   8 2101.09   14.04
  -2   3   8 2164.33   17.21
  -2  -3   8 2151.74   20.39
  -2  -3   8 2150.91   20.57
  -2   3   9  337.66    7.51
   2  -3   9  312.79    6.14
   2  -3   9  306.11    8.53
  -2  -3   9  326.07    8.65
  -2  -3   9  316.30    8.59
   2  -3  10  211.46    7.54
  -2  -3  10  222.68    7.67
  -2  -3  10  215.40    7.52
  -2   3  10  229.19    6.83
   2  -3  11  385.86   10.61
  -2  -3  11  388.21   10.41
  -2   3  11  403.55    9.49
  -2  -3  11  402.15   10.64
   2  -3  12  702.31   14.84
  -2   3  12  802.69   14.23
  -2  -3  12  745.21   15.04
  -2  -3  12  761.10   15.18
   2  -3  13  259.51    9.95
  -2   3  13  276.12    9.25
  -2  -3  13  279.89    9.97
  -2  -3  13  264.49    9.79
  -2   3  14   22.71    4.15
   2  -3  14   28.86    4.72
  -2  -4 -13   18.50    4.33
  -2  -4 -12   -5.66    3.20
  -2  -4 -11   30.89    4.12
  -2  -4 -10   10.77    3.00
   2  -4  -9   77.45    4.04
  -2  -4  -9   75.99    5.03
   2  -4  -9   64.53    3.73
   2  -4  -8   37.70    2.93
   2  -4  -8   36.29    2.81
   2  -4  -7  178.62    4.64
  -2  -4  -7  186.99    6.57
   2  -4  -7  173.99    4.58
  -2  -4  -6   92.41    4.56
   2  -4  -6   84.76    2.97
  -2   4  -6   80.56    3.93
  -2  -4  -6   88.28    4.03
   2  -4  -6   90.01    2.94
  -2   4  -6   80.13    3.87
  -2   4  -5   35.86    2.69
  -2   4  -5   37.20    2.67
  -2  -4  -5   39.87    3.11
   2   4  -5   36.20    3.36
   2  -4  -5   36.84    1.72
   2  -4  -5   34.77    1.77
   2   4  -5   36.67    3.23
  -2   4  -4   56.64    2.85
   2   4  -4   59.37    3.77
   2  -4  -4   40.14    1.28
   2  -4  -4   40.59    1.25
  -2  -4  -4   64.59    3.65
  -2  -4  -4   57.05    3.08
  -2   4  -4   48.92    2.65
   2   4  -4   55.30    3.66
   2  -4  -4   39.84    1.27
  -2   4  -3  151.60    3.86
  -2   4  -3  175.67    4.13
  -2   4  -3  151.93    3.80
   2   4  -3  163.48    5.56
  -2  -4  -3  161.62    5.09
   2   4  -3  166.18    5.54
  -2   4  -2  165.55    3.53
  -2   4  -2  182.32    4.22
   2   4  -2  162.63    5.22
  -2   4  -2  167.98    3.59
   2   4  -2  182.01    5.67
  -2  -4  -2  164.22    5.03
   2   4  -2  174.58    5.48
  -2  -4  -2  171.99    5.04
  -2  -4  -1   52.70    3.01
  -2   4  -1   59.01    2.65
   2   4  -1   52.20    2.99
  -2   4  -1   55.58    1.80
  -2  -4  -1   57.00    3.14
  -2  -4  -1   54.44    3.17
  -2   4  -1   50.07    1.73
   2   4   0    3.69    1.74
  -2   4   0    2.47    1.22
   2   4   0    2.62    1.68
  -2  -4   0    0.22    1.42
  -2  -4   0    2.29    1.44
   2   4   1   58.28    3.36
   2  -4   1   48.57    1.67
   2   4   1   58.99    3.07
  -2   4   1   52.93    2.67
  -2  -4   1   59.99    3.07
  -2  -4   1   58.17    3.16
   2  -4   2  155.46    3.52
   2   4   2  165.09    5.29
  -2  -4   2  158.77    4.88
  -2  -4   2  169.53    4.94
  -2  -4   2  159.54    4.90
   2  -4   3  156.80    4.14
  -2  -4   3  162.55    5.18
  -2  -4   3  166.08    5.03
  -2  -4   3  164.53    4.92
   2   4   3  157.82    5.24
   2   4   4   54.72    3.48
  -2  -4   4   46.69    3.08
  -2  -4   4   56.33    3.29
  -2  -4   4   59.63    3.37
   2  -4   4   54.54    2.99
   2  -4   5   46.40    2.20
  -2  -4   5   37.25    3.01
  -2  -4   5   38.89    2.99
  -2  -4   5   42.06    3.23
   2  -4   5   38.19    2.88
   2  -4   5   33.35    2.68
   2  -4   6   94.64    3.20
  -2   4   6   88.05    2.91
  -2  -4   6   98.29    4.54
  -2  -4   6   85.21    4.34
   2  -4   6   87.89    4.16
   2   4   6   82.91    4.37
   2  -4   6   89.26    4.27
   2  -4   7  177.27    6.11
   2  -4   7  185.89    4.49
   2   4   7  177.23    6.37
  -2  -4   7  184.17    6.34
  -2  -4   7  179.82    6.24
  -2   4   7  188.08    4.79
  -2   4   8   47.04    3.09
  -2  -4   8   40.18    3.63
  -2  -4   8   38.13    3.60
   2  -4   8   37.83    3.57
   2   4   8   36.78    3.68
   2  -4   9   67.90    3.32
   2   4   9   75.76    4.70
  -2  -4   9   66.60    4.50
  -2  -4   9   77.25    4.75
   2  -4   9   68.81    4.72
   2   4  10   13.30    2.87
  -2  -4  10    7.20    2.62
  -2   4  10   10.06    2.47
   2  -4  10    7.25    2.64
  -2  -4  10    4.80    2.59
  -2   4  11   29.19    3.50
   2  -4  11   29.04    3.86
  -2  -4  11   31.56    3.94
  -2  -4  11   31.24    4.03
   2   4  11   20.74    3.49
  -2   4  12   -1.72    3.00
   2   4  12    1.70    2.58
  -2  -4  12    3.44    3.20
  -2  -4  12   -3.75    3.14
   2   4  13   17.05    3.53
  -2   4  13   14.63    3.67
   2  -4  13   17.81    4.23
  -2  -4  13   21.61    4.18
  -2  -4  13   19.60    4.09
  -2  -5 -12   82.66    6.74
  -2  -5 -11  260.70    9.65
  -2  -5 -10  184.83    7.75
  -2  -5  -9  302.48    9.27
  -2  -5  -8  337.83    9.36
   2  -5  -7  398.29    6.47
   2  -5  -7  395.62    6.67
   2  -5  -7  399.56    6.45
  -2  -5  -6  417.78    9.50
   2  -5  -6  347.22    4.89
  -2   5  -6  386.81    8.44
  -2  -5  -6  388.89    8.14
  -2   5  -6  391.14    8.51
   2  -5  -6  355.38    5.35
   2  -5  -6  347.83    4.94
  -2   5  -5  762.29   10.93
  -2  -5  -5  767.25   12.10
  -2   5  -5  792.99   11.08
  -2   5  -4  291.37    6.57
  -2  -5  -4  287.76    6.59
  -2  -5  -4  324.66    7.93
  -2   5  -4  281.14    6.50
  -2  -5  -4  328.52    8.26
  -2   5  -3  819.57    9.48
   2   5  -3  867.65   13.68
  -2   5  -3  897.22   10.82
  -2   5  -3  844.05    9.73
  -2  -5  -3  807.05   11.88
  -2  -5  -3  826.64   11.76
   2   5  -3  828.81   12.99
   2   5  -2  863.23   13.32
  -2   5  -2  941.09   11.10
  -2   5  -2  890.06    8.86
   2   5  -2  918.87   13.43
   2   5  -2  912.17   13.23
  -2  -5  -2  911.53   12.16
  -2   5  -2  876.42    8.78
  -2  -5  -2  903.87   12.31
  -2   5  -1  755.67    6.70
   2   5  -1  787.41   11.88
  -2   5  -1  910.27   11.00
   2   5  -1  892.22   12.60
  -2  -5  -1  856.19   11.38
  -2   5  -1  730.06    6.49
  -2  -5  -1  854.44   11.64
   2   5   0  330.16    7.97
  -2  -5   0  342.40    7.33
  -2   5   0  327.34    6.80
   2   5   0  352.17    7.66
  -2  -5   0  339.19    7.18
  -2   5   1  835.89   10.95
   2   5   1  821.63   12.36
  -2  -5   1  896.90   12.06
   2   5   1  885.86   11.86
  -2  -5   1  895.63   11.90
   2  -5   2  878.54    8.32
  -2  -5   2  887.62   11.88
  -2  -5   2  867.88   11.92
  -2   5   2  850.68   11.69
   2   5   3  805.66   12.82
  -2  -5   3  875.97   11.93
  -2  -5   3  850.80   11.87
   2  -5   3  819.11    9.52
   2   5   4  304.87    8.56
  -2  -5   4  296.88    7.19
  -2  -5   4  304.54    7.34
   2  -5   4  302.70    6.63
   2   5   5  770.06   13.07
  -2  -5   5  801.92   11.95
   2  -5   5  754.37   10.78
  -2  -5   5  759.72   11.69
   2  -5   5  776.79   11.10
   2  -5   6  439.73    7.44
   2   5   6  411.06   10.07
  -2  -5   6  421.20    9.14
  -2  -5   6  409.57    9.12
   2  -5   6  403.64    8.60
   2  -5   6  414.30    8.94
   2   5   7  435.38   10.78
   2  -5   7  435.92    9.66
  -2  -5   7  421.09    9.57
   2  -5   7  443.09    7.81
  -2  -5   7  422.82    9.47
   2  -5   8  347.73    9.08
   2   5   8  360.72    9.95
  -2  -5   8  342.77    9.05
  -2  -5   8  348.52    9.07
   2   5   9  300.11    9.42
   2  -5   9  293.69    8.82
  -2  -5   9  306.72    9.00
  -2  -5   9  306.41    9.05
   2   5  10  166.72    7.33
   2  -5  10  153.09    6.91
  -2  -5  10  155.20    6.94
  -2  -5  10  174.67    7.33
   2   5  11  242.40    9.15
   2  -5  11  229.18    8.94
  -2  -5  11  255.45    9.15
  -2  -5  11  237.74    8.93
   2  -5  12   77.13    6.09
  -2  -5  12   98.38    6.73
   2   5  12   78.51    5.99
  -2  -5  12   92.68    6.80
  -2  -6 -11   29.65    4.78
  -2  -6 -10   93.40    6.18
  -2  -6  -9   17.57    3.65
  -2  -6  -8  443.11   11.23
  -2  -6  -7  513.93   11.28
  -2  -6  -6   89.77    5.21
  -2  -6  -5  413.69    8.51
  -2  -6  -5  440.90    9.78
  -2  -6  -5  421.97    9.80
  -2   6  -5  399.76    8.94
  -2   6  -5  418.35    8.99
  -2   6  -4  191.22    5.98
  -2  -6  -4  196.19    5.85
  -2  -6  -4  212.46    6.89
  -2   6  -4  187.02    6.00
  -2  -6  -4  201.25    6.80
  -2  -6  -3  950.15   13.29
  -2   6  -3  880.55   10.98
  -2   6  -3  882.43   11.13
  -2  -6  -3  959.21   13.63
  -2   6  -2  234.20    6.58
  -2  -6  -2  235.93    6.54
  -2  -6  -2  218.08    6.51
   2   6  -2  213.08    7.46
   2   6  -2  226.57    7.48
  -2   6  -2  193.93    4.66
  -2   6  -2  193.04    4.90
  -2  -6  -1  650.72   10.63
   2   6  -1  656.93   11.99
  -2  -6  -1  663.64   10.53
  -2  -6   0  923.83   12.75
  -2   6   0  892.14   12.59
   2   6   0  881.67   13.12
  -2  -6   0  936.92   12.70
  -2  -6   1  642.97   10.51
  -2   6   1  627.03   10.73
   2   6   1  605.32   11.71
   2   6   1  673.23   11.12
  -2  -6   1  667.34   10.51
  -2   6   2  206.52    6.69
   2  -6   2  193.53    4.19
   2   6   2  217.05    7.38
   2   6   2  231.11    6.62
  -2  -6   2  229.98    6.38
  -2  -6   2  213.92    6.27
  -2  -6   3  892.59   12.39
  -2  -6   3  910.68   12.59
   2  -6   3  908.48   10.33
  -2   6   4  192.11    6.86
  -2  -6   4  214.00    6.59
   2   6   4  199.13    7.32
  -2  -6   4  208.72    6.45
   2  -6   4  200.78    5.62
  -2  -6   5  408.72    9.28
  -2  -6   5  416.94    9.30
   2  -6   5  416.30    8.48
  -2   6   5  385.07    9.76
  -2  -6   6   81.66    4.63
  -2  -6   6   76.07    4.50
   2  -6   6   72.50    4.35
   2  -6   7  470.39   10.27
   2   6   7  491.96   12.13
  -2  -6   7  485.99   10.60
  -2  -6   7  464.87   10.45
   2  -6   8  398.82   10.05
   2   6   8  435.69   11.88
  -2  -6   8  422.55   10.42
  -2  -6   8  417.99   10.43
  -2  -6   9   13.75    2.98
   2  -6   9   16.77    3.61
  -2  -6   9   18.37    3.31
   2   6  10   90.81    6.46
   2  -6  10   95.12    6.24
  -2  -6  10  100.92    6.13
  -2  -6  10   97.60    6.22
  -2  -6  11   29.62    4.62
   2  -6  11   32.14    4.75
  -2  -6  11   32.33    4.70
   2   6  11   34.65    4.82
  -2  -7  -7  141.52    6.97
  -2  -7  -7  159.36    6.94
  -2  -7  -6   76.63    5.23
  -2  -7  -6   68.40    4.96
  -2  -7  -5   50.52    4.22
  -2  -7  -5   49.38    4.05
  -2  -7  -4   34.05    3.54
  -2  -7  -4   35.60    3.44
  -2  -7  -3   39.40    3.52
  -2  -7  -3   42.54    3.62
  -2   7  -2   55.27    3.99
   2   7  -2   46.18    4.21
  -2  -7  -2   52.69    3.72
  -2  -7  -2   50.26    3.61
  -2   7  -1  125.01    5.56
   2   7  -1  117.48    5.85
  -2  -7  -1  133.03    5.34
  -2  -7  -1  132.19    5.26
   2   7   0   11.87    2.65
  -2  -7   0   12.67    2.45
  -2  -7   0    7.21    2.20
  -2   7   1  116.84    5.52
  -2  -7   1  123.68    5.03
   2   7   1  121.00    6.01
  -2  -7   1  126.36    5.18
   2   7   2   56.82    4.49
  -2  -7   2   51.03    3.56
  -2  -7   2   54.98    3.78
  -2   7   3   40.71    3.76
   2  -7   3   39.29    2.68
   2   7   3   46.08    4.54
  -2  -7   3   44.07    3.55
  -2  -7   3   50.55    3.74
  -2   7   4   32.09    3.76
  -2  -7   4   41.14    3.59
   2  -7   4   31.82    3.00
   2   7   4   40.69    4.29
  -2  -7   4   36.66    3.44
  -2   7   5   38.88    3.93
   2  -7   5   43.02    3.56
   2   7   5   46.97    4.51
  -2  -7   5   47.39    3.75
  -2  -7   5   49.73    3.91
   2  -7   6   55.69    4.24
  -2   7   6   59.96    4.96
   2   7   6   76.68    5.55
  -2  -7   6   71.73    4.79
  -2  -7   6   68.26    4.55
   2  -7   7  157.13    6.64
   2   7   7  176.89    8.30
  -2  -7   7  154.30    6.79
  -2  -7   7  152.04    6.85
  -2  -7   8   15.43    3.42
  -2   7   8   20.06    3.78
   2  -7   8   11.77    3.19
  -2  -7   8   12.81    3.26
   2   7   9  116.84    7.29
   2  -7   9  100.82    6.68
  -2  -7   9  122.73    6.81
  -2  -7   9  126.43    6.90
  -2   7   9  127.96    7.83
  -2   8  -3   72.03    5.13
  -2   8  -2  334.55    9.46
   2   8  -2  346.72   10.71
  -2   8  -1    8.31    2.75
   2   8  -1   10.97    3.38
  -2  -8  -1   13.19    2.80
  -2  -8  -1   13.86    2.91
  -2   8   0  527.76   11.89
   2   8   0  518.13   12.52
  -2  -8   0  588.32   10.99
  -2  -8   0  598.71   10.98
  -2  -8   1   15.85    2.72
  -2  -8   1   18.82    2.89
  -2   8   2  333.92    9.86
  -2  -8   2  344.69    8.73
   2   8   2  317.51   10.34
  -2  -8   2  358.24    8.83
  -2   8   3   66.22    4.91
   2   8   3   76.63    5.69
  -2  -8   3   75.03    4.67
  -2  -8   3   78.47    4.76
  -2   8   4  258.11    9.12
   2   8   4  272.75   10.08
  -2  -8   4  287.54    8.36
  -2  -8   4  272.49    8.29
  -2  -8   5  102.85    5.79
  -2  -8   5   92.96    5.45
   2   8   6  202.76    9.23
  -2  -8   6  181.80    7.76
  -2  -8   6  204.31    7.94
  -3   0  -7   -0.50    1.69
   3   0  -7   -1.63    1.74
   3   0  -7    1.90    1.70
  -3   0  -7   -0.72    1.58
  -3   0  -6    0.38    1.68
   3   0  -6    1.33    1.65
   3   0  -6   -0.70    1.72
  -3   0  -6    1.75    1.63
  -3   0  -5    2.24    1.50
   3   0  -5    1.42    1.55
   3   0  -5   -1.92    1.69
  -3   0  -4    0.88    1.63
   3   0  -4   -1.03    1.64
   3   0  -4   -0.90    1.65
   3   0  -3   -0.28    1.56
  -3   0  -3    0.06    1.60
  -3   0  -3    3.13    1.83
   3   0  -3   -0.01    1.59
   3   0  -2    0.85    1.46
  -3   0  -2   -0.48    0.80
   3   0  -2   -0.66    1.40
  -3   0  -2    0.69    1.45
  -3   0  -1   -0.70    1.29
   3   0  -1   -0.61    1.29
  -3   0  -1   -0.74    0.80
  -3   0   0   -0.23    1.24
  -3   0   0    0.49    1.38
   3   0   0    1.70    1.19
  -3   0   1    0.68    1.20
   3   0   1   -1.01    1.23
  -3   0   1    0.08    1.31
  -3   0   2    1.34    1.25
  -3   0   2    1.06    1.27
   3   0   3   -0.52    0.87
  -3   0   3    0.61    1.33
  -3   0   3    0.11    1.41
   3   0   4   -1.04    0.95
  -3   0   4   -1.19    1.53
  -3   0   4   -0.38    1.47
   3   0   5    1.04    0.93
  -3   0   5   -0.73    1.41
  -3   0   5   -1.92    1.46
   3   0   5    0.10    1.55
   3   0   6    0.85    0.93
  -3   0   6    0.86    1.35
   3   0   6    1.99    1.60
  -3   0   6    1.10    1.39
  -3   0   7   -0.36    1.52
   3   0   7    0.44    1.72
  -3   0   7    0.48    1.46
  -3   0   8    0.10    1.69
   3   0   8   -0.15    2.25
  -3   0   8    0.98    1.67
  -3   0   9    2.15    1.76
  -3   0   9    2.90    1.87
  -3   0  10    1.03    1.88
   3   0  10    4.36    2.51
  -3   0  10   -1.49    2.13
  -3   0  11    2.49    2.09
  -3   0  11    1.36    2.09
   3   0  11    1.01    2.84
   3   0  12    4.40    3.18
  -3   0  12    1.73    2.29
  -3   0  12   -2.59    2.60
   3   0  13   -1.08    2.90
  -3   0  13    2.05    2.76
  -3   0  13   -2.65    2.86
   3   0  14   -2.86    3.43
  -3   0  14    0.45    2.86
  -3   0  14   -1.08    2.81
   3  -1  -8  380.85    8.43
   3  -1  -8  383.54    8.47
   3  -1  -7  737.01   10.61
   3   1  -7  731.68   11.92
   3  -1  -7  715.55   10.56
   3   1  -7  710.19   11.65
  -3  -1  -6 1432.71   15.13
   3  -1  -6 1418.36   13.67
   3  -1  -6 1450.53   13.88
  -3   1  -6 1381.27   13.71
  -3   1  -6 1359.64   14.05
   3   1  -6 1388.99   15.17
   3   1  -6 1380.02   15.02
   3   1  -5  608.54    9.70
   3  -1  -5  611.86    8.54
  -3   1  -5  608.86    8.60
   3   1  -5  600.29    9.53
   3  -1  -5  602.44    8.40
  -3   1  -5  611.59    8.93
  -3   1  -4  782.40    9.56
   3  -1  -4  790.93    8.90
   3  -1  -4  802.48    9.10
  -3  -1  -4  817.52   11.02
   3   1  -4  811.54   10.69
   3   1  -4  812.95   10.60
   3   1  -3  227.53    5.60
  -3   1  -3  212.18    4.86
   3  -1  -3  218.97    4.62
   3   1  -3  225.68    5.67
   3  -1  -3  222.90    4.72
  -3  -1  -3  210.43    5.40
  -3  -1  -2 2587.52   17.69
  -3  -1  -2 2601.19   13.94
   3  -1  -2 2537.42   14.52
  -3   1  -2 2601.82   15.46
  -3   1  -2 2663.51   16.12
   3   1  -2 2721.81   18.65
   3  -1  -2 2550.80   14.32
   3   1  -2 2604.56   17.71
  -3  -1  -1 1897.89   14.82
   3   1  -1 1567.65   14.24
  -3   1  -1 1882.19   12.66
   3  -1  -1 1942.35   12.33
   3   1  -1 1514.81   13.65
  -3  -1   0   23.50    1.68
  -3  -1   0   20.22    1.96
   3   1   0   18.82    1.99
   3  -1   0   20.75    1.65
  -3  -1   0   23.78    2.03
  -3   1   0   23.85    1.67
  -3  -1   1 1883.36   12.81
   3   1   1 1853.30   14.27
  -3   1   1 1888.48   12.14
  -3   1   1 1879.22   11.93
  -3  -1   1 1908.74   14.75
  -3  -1   1 1900.82   14.97
   3   1   2 2594.66   16.95
  -3   1   2 2584.70   13.94
  -3  -1   2 2648.00   17.20
  -3  -1   2 2654.04   17.44
  -3   1   2 2573.36   13.73
  -3   1   3  228.50    4.38
  -3  -1   3  221.37    5.34
  -3   1   3  213.83    4.29
  -3  -1   3  209.39    5.23
  -3  -1   4  810.81   10.10
  -3   1   4  826.39    8.50
  -3   1   4  814.04    8.43
  -3  -1   4  819.29   10.20
   3   1   5  638.33    7.96
  -3  -1   5  587.04    8.75
  -3   1   5  600.38    7.73
   3  -1   5  559.33    9.00
  -3  -1   5  595.83    8.90
  -3   1   5  609.95    7.77
  -3  -1   6 1436.17   14.28
   3   1   6 1445.92   12.22
   3  -1   6 1414.15   15.18
  -3  -1   6 1428.01   14.30
  -3   1   6 1439.66   12.73
  -3   1   6 1447.64   12.75
  -3   1   7  711.69    9.71
  -3  -1   7  725.48   10.79
  -3   1   7  717.47    9.59
  -3  -1   7  707.28   10.72
   3   1   7  738.48   11.86
   3  -1   7  716.10   11.95
   3   1   7  699.93    9.11
   3  -1   8  380.82    9.31
  -3   1   8  372.60    7.51
  -3  -1   8  382.13    8.29
  -3  -1   8  383.84    8.34
  -3   1   8  379.22    7.57
   3   1   8  387.48    9.31
   3   1   9  949.54   14.98
  -3  -1   9  941.89   13.71
  -3   1   9  920.15   12.33
  -3  -1   9  924.62   13.50
  -3   1   9  922.50   12.39
   3  -1   9  907.20   14.78
  -3  -1  10 1247.16   16.45
  -3   1  10 1270.58   15.75
  -3  -1  10 1224.77   16.29
   3  -1  10 1229.39   18.09
   3   1  10 1280.50   18.18
  -3   1  10 1295.95   16.05
   3  -1  11  156.83    7.32
  -3  -1  11  136.72    6.12
  -3  -1  11  150.32    6.35
   3   1  11  135.15    6.73
  -3   1  11  144.98    6.00
  -3   1  11  137.49    5.87
  -3  -1  12  283.03    9.25
   3  -1  12  314.54   10.58
   3   1  12  310.21   10.23
  -3  -1  12  278.25    9.14
  -3   1  12  314.71    8.95
  -3   1  12  306.28    8.94
   3  -1  13  116.41    7.21
  -3  -1  13  116.49    6.63
   3   1  13  108.25    6.93
  -3  -1  13  112.73    6.45
  -3   1  13  115.50    6.00
  -3   1  13  132.08    6.47
   3   1  14  560.37   15.01
   3  -1  14  488.02   14.13
  -3  -1  14  577.35   14.30
  -3  -1  14  503.34   13.32
  -3   1  14  490.95   12.74
  -3   1  14  521.20   13.40
   3  -2  -8   45.07    3.29
   3  -2  -8   52.15    3.51
   3  -2  -7  409.31    7.66
   3  -2  -7  404.33    7.68
   3  -2  -6  691.80    9.17
  -3  -2  -6  695.92   10.88
  -3  -2  -6  692.98   11.59
   3   2  -6  655.53   11.25
   3  -2  -6  712.12    9.31
  -3   2  -6  667.92    9.92
  -3   2  -6  697.44    9.98
   3   2  -6  648.59   11.09
  -3  -2  -5  396.93    8.51
   3  -2  -5  396.71    6.47
  -3   2  -5  379.47    6.96
   3   2  -5  383.21    8.31
   3   2  -5  382.40    8.24
  -3   2  -5  401.01    7.06
   3  -2  -5  396.12    6.42
   3  -2  -4  248.32    4.82
  -3  -2  -4  256.54    6.25
  -3   2  -4  234.29    5.10
   3   2  -4  251.81    6.57
   3   2  -4  257.06    6.49
   3  -2  -4  246.89    4.76
  -3   2  -4  234.29    5.23
  -3  -2  -4  254.43    6.53
   3   2  -3  525.34    9.14
  -3  -2  -3  494.85    8.63
   3   2  -3  533.55    9.05
   3  -2  -3  521.09    6.26
  -3   2  -3  501.50    6.64
   3  -2  -3  511.89    6.38
  -3   2  -3  506.85    7.01
  -3  -2  -2  822.44    9.41
   3   2  -2  848.14   11.22
  -3  -2  -2  828.28   11.07
   3  -2  -2  815.93    7.03
   3   2  -2  832.92   10.93
  -3  -2  -1 2344.57   15.62
  -3   2  -1 2271.65   12.19
  -3  -2  -1 2389.03   18.69
   3  -2  -1 2292.24   10.98
   3   2  -1 2478.81   18.78
  -3  -2  -1 2332.97   18.06
  -3   2  -1 2263.40   13.07
   3   2  -1 2391.38   18.39
  -3  -2   0   13.80    1.90
   3   2   0   17.47    2.31
   3   2   0   15.08    1.87
  -3   2   0   14.64    1.38
  -3   2   0   15.08    1.43
  -3  -2   0   15.78    2.25
  -3  -2   0   16.73    2.35
  -3  -2   1 2240.66   15.65
  -3  -2   1 2276.31   17.74
  -3   2   1 2294.77   11.28
  -3  -2   1 2279.28   17.50
   3   2   1 2275.05   16.99
  -3   2   1 2282.06   11.07
  -3   2   2  816.36    6.48
  -3  -2   2  838.21   10.93
   3   2   2  823.37    9.41
  -3  -2   2  818.59    9.72
  -3   2   2  825.59    6.58
   3   2   2  832.02   10.48
  -3  -2   2  846.34   10.82
  -3  -2   3  510.57    8.46
   3   2   3  503.33    7.61
  -3   2   3  496.86    5.31
  -3  -2   3  495.38    8.05
  -3   2   3  506.80    5.35
  -3  -2   3  501.35    8.50
  -3  -2   4  208.67    5.58
  -3   2   4  233.66    4.06
   3  -2   4  243.33    5.67
  -3  -2   4  210.41    5.71
   3   2   4  261.05    5.87
  -3   2   4  227.66    4.00
   3   2   5  390.65    7.14
  -3  -2   5  387.09    7.68
   3  -2   5  382.11    7.66
  -3   2   5  366.78    5.61
  -3  -2   5  390.40    7.78
  -3   2   5  380.46    5.62
   3   2   6  680.98    9.68
  -3  -2   6  741.32   11.22
  -3   2   6  687.29    8.35
  -3  -2   6  754.34   11.27
  -3   2   6  679.45    8.28
  -3  -2   7  411.95    8.78
   3  -2   7  401.08    8.88
  -3   2   7  391.91    6.90
   3   2   7  379.66    7.65
  -3  -2   7  407.26    8.74
  -3   2   7  382.92    6.79
   3   2   8   39.32    3.02
   3  -2   8   40.94    3.58
  -3  -2   8   46.98    3.76
  -3   2   8   43.94    2.98
  -3   2   8   46.63    2.94
  -3  -2   8   42.46    3.54
   3  -2   9  397.39    9.86
  -3  -2   9  388.38    9.35
  -3  -2   9  408.98    9.61
  -3   2   9  408.22    8.32
  -3   2   9  401.37    8.18
  -3  -2  10  597.87   12.00
   3  -2  10  593.59   12.59
  -3  -2  10  607.37   12.15
  -3   2  10  642.34   10.91
  -3   2  10  633.58   10.96
  -3  -2  11   43.40    4.26
   3  -2  11   52.95    4.82
  -3  -2  11   53.90    4.54
  -3   2  11   52.72    3.84
  -3   2  11   51.09    3.78
   3  -2  12   69.87    5.71
  -3  -2  12   72.03    5.27
  -3  -2  12   75.39    5.49
  -3   2  12   74.21    4.79
  -3   2  12   71.65    4.80
  -3   2  13   10.44    3.26
  -3  -2  13    2.35    2.85
  -3  -2  13    9.93    3.22
  -3   2  14  291.03   10.10
   3  -2  14  262.58   10.96
  -3  -2  14  274.89   10.22
  -3  -2  14  256.70    9.92
  -3  -3 -10   85.42    5.52
   3  -3  -9  147.25    5.67
  -3  -3  -9  162.90    6.84
   3  -3  -9  149.32    5.72
   3  -3  -8  127.96    4.84
  -3  -3  -8  131.70    6.02
   3  -3  -8  125.32    4.83
   3  -3  -7  136.64    4.56
  -3  -3  -7  146.93    6.01
   3  -3  -7  142.04    4.69
  -3  -3  -6  163.07    6.09
  -3   3  -6  156.88    4.95
   3  -3  -6  161.19    4.54
   3  -3  -6  169.19    4.64
  -3  -3  -5  214.49    6.71
  -3   3  -5  192.13    5.07
  -3  -3  -5  226.20    6.52
   3   3  -5  197.30    6.51
   3  -3  -5  207.10    4.44
   3   3  -5  200.74    6.56
  -3   3  -5  201.49    5.10
   3  -3  -5  207.85    4.37
  -3  -3  -4  130.77    4.91
  -3   3  -4  106.17    3.51
  -3  -3  -4  112.37    4.69
   3  -3  -4  117.53    2.94
  -3   3  -4  106.61    3.52
   3   3  -4  127.76    5.25
   3   3  -4  120.41    5.00
   3  -3  -4  124.33    3.03
   3   3  -3   39.82    3.19
   3   3  -3   38.98    3.09
  -3  -3  -3   38.65    2.92
   3  -3  -3   35.69    1.46
  -3   3  -3   32.73    2.01
  -3   3  -3   36.47    2.01
  -3  -3  -2   64.63    3.12
  -3   3  -2   77.64    2.06
   3   3  -2   78.34    3.92
  -3  -3  -2   64.22    3.60
  -3   3  -2   74.77    2.46
   3   3  -2   76.58    3.90
  -3   3  -2   68.68    2.36
  -3  -3  -1   74.34    3.36
  -3   3  -1   73.45    2.03
   3   3  -1   61.11    3.20
  -3   3  -1   68.30    2.29
   3   3  -1   73.44    3.84
  -3  -3  -1   64.18    3.39
  -3  -3  -1   73.81    3.71
  -3   3  -1   71.10    2.01
   3   3  -1   82.53    4.05
  -3  -3   0   67.81    3.16
  -3   3   0   70.37    1.60
   3   3   0   71.56    3.26
  -3  -3   0   82.84    3.98
   3   3   0   82.72    3.89
  -3  -3   0   78.48    3.74
  -3   3   0   78.07    1.69
  -3   3   0   67.10    1.93
  -3   3   1   65.25    1.26
  -3  -3   1   75.15    3.47
   3   3   1   75.84    3.48
  -3  -3   1   76.23    3.73
  -3   3   1   54.47    1.27
  -3  -3   1   67.19    3.48
   3   3   1   81.62    3.69
  -3   3   1   53.27    1.25
   3   3   2   76.68    3.48
  -3  -3   2   76.12    3.46
   3   3   2   70.20    3.55
  -3   3   2   67.39    1.23
  -3   3   2   71.91    1.23
  -3  -3   2   79.47    3.77
  -3  -3   2   75.64    3.66
  -3  -3   3   33.96    2.70
   3   3   3   40.35    2.73
  -3  -3   3   35.09    2.67
  -3   3   3   36.79    1.21
   3  -3   3   31.75    2.21
  -3   3   3   37.06    1.19
   3   3   4  109.05    4.39
  -3  -3   4  126.68    4.73
  -3   3   4  115.67    2.52
  -3  -3   4  111.90    4.43
   3  -3   4  106.43    4.02
  -3  -3   4  121.71    4.66
  -3   3   4  115.93    2.52
   3   3   5  213.88    5.94
  -3  -3   5  212.46    6.18
  -3  -3   5  209.10    6.15
  -3  -3   5  217.88    6.56
   3  -3   5  204.75    5.74
  -3   3   5  201.66    3.88
  -3   3   5  199.03    3.86
   3   3   6  157.72    5.52
  -3  -3   6  172.20    5.87
  -3  -3   6  169.22    5.77
  -3   3   6  161.73    4.03
  -3   3   6  165.27    3.99
   3   3   7  125.15    5.08
  -3  -3   7  132.20    5.47
   3  -3   7  126.53    5.30
  -3  -3   7  139.68    5.63
  -3   3   7  129.07    3.90
  -3   3   7  137.32    4.09
   3   3   8  118.86    5.11
   3  -3   8  128.79    5.60
  -3  -3   8  126.84    5.60
  -3  -3   8  134.57    5.76
  -3   3   8  120.78    4.28
  -3   3   8  135.09    4.56
   3   3   9  145.79    5.77
   3  -3   9  145.55    6.24
  -3  -3   9  159.74    6.54
  -3  -3   9  153.40    6.41
  -3   3   9  163.20    5.22
   3   3  10   82.20    4.65
  -3   3  10  104.66    4.89
   3  -3  10   81.69    5.30
  -3  -3  10   96.05    5.48
  -3  -3  10  105.98    5.71
   3   3  11   82.11    4.92
  -3   3  11   95.70    5.08
   3  -3  11   77.58    5.58
  -3  -3  11   80.19    5.30
  -3  -3  11   79.28    5.34
  -3   3  12   40.30    3.99
   3   3  12   23.65    3.45
   3  -3  12   27.79    4.27
  -3  -3  12   28.85    3.97
  -3  -3  12   31.93    3.98
   3   3  13   33.06    3.96
  -3   3  13   53.35    4.81
   3  -3  13   50.16    5.57
  -3  -3  13   53.15    5.30
  -3  -3  13   45.19    5.02
  -3  -4 -12  102.92    7.04
  -3  -4 -11  183.73    8.43
  -3  -4 -10  619.32   13.75
  -3  -4  -9  505.91   12.14
  -3  -4  -8  156.34    6.76
   3  -4  -8  145.03    5.00
   3  -4  -7  737.29    9.66
  -3  -4  -7  726.42   13.42
   3  -4  -7  700.75    9.54
  -3   4  -6  766.47   10.97
  -3  -4  -6  826.22   13.54
  -3   4  -6  772.91   10.92
   3  -4  -6  819.79    8.63
   3  -4  -6  827.00    8.72
  -3   4  -5  334.60    6.92
  -3  -4  -5  341.22    8.46
   3  -4  -5  326.08    4.65
  -3   4  -5  322.76    6.62
   3  -4  -5  310.23    4.46
  -3  -4  -5  351.92    8.24
  -3  -4  -4  551.83   10.52
  -3   4  -4  566.92    8.13
  -3   4  -4  557.65    7.87
  -3   4  -3  414.50    6.22
  -3  -4  -3  450.66    9.34
   3   4  -3  448.80    9.92
  -3   4  -3  425.39    6.23
   3   4  -3  452.16    9.88
  -3  -4  -2  609.62    9.93
  -3   4  -2  715.34    7.90
  -3   4  -2  656.80    6.75
   3   4  -2  659.17   11.43
  -3  -4  -2  632.81   10.60
   3   4  -2  692.25   11.52
  -3  -4  -2  674.19   10.78
  -3   4  -2  662.89    6.66
  -3  -4  -1  773.26   10.93
  -3   4  -1  853.70    8.86
  -3   4  -1  788.55    5.95
   3   4  -1  837.16   12.38
   3   4  -1  821.37   12.18
  -3   4  -1  791.90    5.84
  -3   4  -1  752.89    6.55
  -3  -4  -1  839.58   12.33
  -3  -4  -1  820.22   11.93
  -3  -4   0  141.96    4.85
   3   4   0  135.45    4.80
   3   4   0  150.79    5.38
  -3  -4   0  142.74    5.09
  -3  -4   0  143.96    5.08
  -3   4   0  135.63    3.82
  -3  -4   1  788.84   11.20
   3   4   1  815.84   11.73
   3   4   1  814.45   11.75
  -3  -4   1  792.85   11.62
  -3  -4   1  802.63   11.52
  -3  -4   2  654.81   10.63
   3   4   2  662.88   10.57
   3   4   2  696.62   10.86
  -3  -4   2  674.06   10.81
  -3  -4   2  700.83   10.93
   3  -4   3  396.44    6.70
  -3  -4   3  426.98    8.70
   3   4   4  558.18   10.18
  -3  -4   4  577.67   10.17
   3  -4   4  537.62    8.70
  -3  -4   4  565.30   10.20
   3   4   5  351.76    8.65
  -3  -4   5  352.46    8.12
   3  -4   5  320.97    7.21
  -3   4   5  333.25    4.23
  -3  -4   5  332.33    7.97
   3   4   6  800.42   12.86
  -3   4   6  810.36    7.86
  -3  -4   6  826.24   12.83
   3  -4   6  769.96   11.65
  -3  -4   6  853.90   13.04
   3   4   7  710.57   12.59
  -3   4   7  721.46    8.60
  -3  -4   7  720.31   12.53
  -3  -4   7  731.41   12.66
   3   4   8  152.60    6.40
  -3  -4   8  147.31    6.11
  -3   4   8  147.93    4.59
   3  -4   8  136.16    5.83
  -3  -4   8  147.64    6.19
   3   4   9  457.29   10.59
  -3   4   9  485.20    8.81
   3  -4   9  464.56   10.84
  -3  -4   9  503.01   11.30
  -3  -4   9  499.13   11.28
   3   4  10  594.40   12.42
  -3   4  10  622.03   10.71
  -3  -4  10  632.25   13.26
  -3  -4  10  629.54   13.11
   3   4  11  165.78    7.17
   3  -4  11  165.85    7.74
  -3  -4  11  188.79    7.78
  -3   4  11  196.42    6.79
  -3  -4  11  181.20    7.71
   3   4  12   97.38    5.86
   3  -4  12  101.63    6.76
  -3  -4  12  100.98    6.38
  -3  -4  12   88.11    5.99
  -3  -5 -11    5.09    3.43
  -3  -5 -10  199.03    8.74
  -3  -5  -9  170.34    7.52
  -3  -5  -8   23.72    3.60
  -3  -5  -7   17.41    3.23
  -3   5  -6   51.78    3.63
  -3   5  -6   58.53    3.77
  -3  -5  -6   58.10    4.48
   3  -5  -6   24.28    1.07
   3  -5  -6   26.11    1.15
  -3   5  -5  120.83    4.52
  -3   5  -5  117.19    4.53
  -3  -5  -5  126.63    5.60
  -3   5  -4   58.27    3.19
  -3   5  -4   54.69    3.05
  -3   5  -3   94.00    3.34
  -3   5  -3  111.08    3.80
  -3   5  -3   97.69    3.42
  -3  -5  -3   98.69    4.95
  -3  -5  -3   97.28    4.69
  -3   5  -2   90.27    2.83
  -3   5  -2   98.59    2.89
  -3  -5  -2   95.59    4.84
  -3   5  -1  660.04    9.22
   3   5  -1  584.90   10.96
   3   5  -1  618.78   11.45
  -3  -5  -1  615.09   10.92
  -3  -5  -1  617.98   11.16
   3   5   0    1.43    1.89
  -3  -5   0   -1.72    2.00
  -3  -5   0    3.62    2.01
   3   5   0    0.40    2.15
  -3   5   1  588.57    9.14
   3   5   1  605.60   10.87
  -3  -5   1  607.82   10.81
  -3  -5   1  590.88   10.41
  -3  -5   2  117.68    4.84
   3   5   2  102.28    4.92
   3   5   2  112.95    5.00
  -3  -5   2  103.08    4.66
  -3  -5   3   97.56    4.57
   3   5   3  107.72    5.26
  -3  -5   3  104.09    4.84
   3   5   4   69.14    4.33
  -3  -5   4   66.25    3.98
   3  -5   4   65.52    3.54
  -3  -5   4   68.45    4.16
   3   5   5  118.83    5.60
  -3  -5   5  129.63    5.36
   3  -5   5  111.40    4.63
  -3  -5   5  131.66    5.47
   3   5   6   63.61    4.40
   3  -5   6   53.35    3.86
  -3  -5   6   57.16    4.10
  -3  -5   6   56.84    3.97
   3   5   7   18.99    3.06
  -3  -5   7   20.78    3.09
   3  -5   7   15.59    2.86
  -3  -5   7   18.41    3.00
   3   5   8   19.37    3.30
  -3  -5   8   19.14    3.24
   3  -5   8   16.65    3.07
  -3  -5   8   16.80    3.01
   3   5   9  142.09    6.82
   3  -5   9  137.14    6.47
  -3  -5   9  151.40    6.83
  -3  -5   9  144.91    6.76
   3   5  10  177.38    7.75
   3  -5  10  164.81    7.64
  -3  -5  10  182.67    7.84
   3  -5  11    6.23    3.57
  -3  -5  11    6.00    3.12
  -3  -5  11    4.78    2.95
  -3  -6 -10  112.50    7.36
  -3  -6  -9  311.27   10.66
  -3  -6  -8  173.24    7.61
  -3  -6  -7  291.05    9.25
  -3  -6  -6  191.78    7.61
  -3  -6  -6  184.26    7.80
  -3  -6  -5  260.46    8.33
  -3  -6  -5  273.59    8.39
  -3  -6  -4  246.67    7.98
  -3  -6  -4  240.84    7.86
  -3   6  -3  139.24    4.93
  -3  -6  -3  123.85    5.83
  -3  -6  -3  125.41    5.75
  -3   6  -2  164.66    5.37
   3   6  -2  141.79    6.29
  -3   6  -2  104.00    2.95
  -3  -6  -2  149.15    6.04
  -3   6  -2   99.48    2.87
  -3  -6  -2  157.69    6.05
  -3   6  -1   34.74    2.90
   3   6  -1   27.49    3.62
  -3  -6  -1   31.55    3.27
  -3  -6  -1   28.94    3.06
  -3   6   0  311.45    7.76
  -3  -6   0  300.24    8.00
  -3  -6   0  309.45    7.92
  -3   6   1   34.64    3.05
  -3  -6   1   40.53    3.39
  -3  -6   1   37.67    3.32
  -3   6   2  134.50    5.33
  -3  -6   2  139.87    5.55
  -3  -6   2  134.59    5.54
  -3   6   3  106.27    4.99
  -3  -6   3  130.56    5.36
   3   6   3  101.63    5.40
   3  -6   3  114.98    3.67
  -3  -6   3  134.92    5.52
  -3  -6   4  229.74    7.05
   3  -6   4  215.17    5.74
  -3  -6   4  232.23    7.22
   3   6   5  280.11    8.97
  -3  -6   5  287.23    8.11
   3  -6   5  266.78    7.03
  -3  -6   5  275.38    8.03
   3   6   6  181.47    7.47
   3  -6   6  159.92    5.99
  -3  -6   6  179.35    6.76
  -3  -6   6  183.31    6.84
   3   6   7  311.56   10.00
   3  -6   7  289.25    8.31
  -3  -6   7  306.69    9.00
  -3  -6   7  288.00    8.85
   3   6   8  167.91    7.94
   3  -6   8  141.63    6.45
  -3  -6   8  153.36    6.82
  -3  -6   8  155.20    6.90
  -3  -6   9  280.07    9.45
  -3  -6   9  267.09    9.22
   3   6  10  116.88    6.93
   3  -6  10   96.30    6.52
  -3  -6  10  110.51    6.79
  -3  -6  10  107.37    6.75
  -3  -7  -8  124.08    7.39
  -3  -7  -8  102.91    7.03
  -3  -7  -7  150.56    7.36
  -3  -7  -7  137.11    7.30
  -3  -7  -6  220.32    8.29
  -3  -7  -6  216.23    8.41
  -3  -7  -5  177.54    7.48
  -3  -7  -5  178.19    7.30
  -3  -7  -4  527.96   11.72
  -3  -7  -4  519.21   11.42
  -3  -7  -3   85.35    5.14
  -3  -7  -3   90.22    5.12
  -3  -7  -2  259.32    7.91
  -3  -7  -2  247.20    7.59
  -3   7  -1  395.61    9.17
   3   7  -1  377.86   10.85
  -3  -7  -1  391.97    9.59
  -3  -7  -1  374.60    9.29
  -3   7   0  398.42    9.37
   3   7   0  376.66   10.37
  -3  -7   0  394.18    9.52
  -3  -7   1  370.40    9.04
   3   7   1  368.78   10.38
  -3  -7   1  389.44    9.49
  -3  -7   2  250.04    7.64
   3   7   2  246.99    8.77
  -3  -7   2  248.14    7.65
  -3   7   3   71.98    4.63
   3   7   3   82.81    5.46
  -3  -7   3   78.31    4.68
   3   7   4  504.16   12.50
  -3  -7   4  517.35   10.94
  -3  -7   4  497.11   10.77
  -3   7   5  153.45    6.80
  -3  -7   5  161.67    6.58
  -3  -7   5  167.43    6.72
   3   7   6  220.40    9.18
  -3  -7   6  218.59    7.93
  -3  -7   6  204.38    7.80
   3   7   7  157.06    7.91
  -3  -7   7  156.16    7.06
  -3  -7   7  146.49    7.10
  -3   7   7  147.46    7.38
   3   7   8  105.36    6.92
  -3  -7   8  106.85    6.37
  -3  -7   8   96.32    6.18
  -3  -8  -3   28.26    3.90
  -3  -8  -3   28.37    3.92
  -3   8  -2   25.56    3.38
  -3  -8  -2   32.38    3.98
  -3  -8  -2   30.70    3.76
  -3  -8  -1  194.21    7.10
  -3   8  -1  186.40    7.14
   3   8  -1  199.36    8.67
  -3  -8  -1  195.42    7.24
  -3  -8   0   58.91    4.55
  -3   8   0   45.54    4.28
   3   8   0   46.87    4.69
  -3  -8   0   57.38    4.48
  -3   8   1  174.69    7.14
  -3  -8   1  196.38    7.17
  -3  -8   1  192.10    7.13
   3   8   1  176.90    7.78
  -3  -8   2   30.82    3.62
   3   8   2   27.90    4.03
  -3  -8   2   26.90    3.53
   3   8   3   35.34    4.42
  -3  -8   3   32.92    3.82
  -3  -8   3   29.61    3.64
  -3   8   4    9.94    3.20
   3   8   4   10.60    3.56
  -3  -8   4    9.52    3.07
  -3  -8   4    9.61    3.07
   3   8   5  112.18    7.13
  -3  -8   5  104.93    6.19
  -3  -8   5   94.45    6.10
   4   0  -6  814.81   12.19
   4   0  -6  811.82   12.03
  -4   0  -5 1226.09   14.24
  -4   0  -5 1201.51   14.61
   4   0  -5 1195.06   14.09
   4   0  -5 1201.49   13.89
  -4   0  -4 3598.15   24.52
   4   0  -4 3639.38   23.85
   4   0  -4 3581.15   23.36
  -4   0  -3 3316.35   21.80
  -4   0  -3 3264.94   14.14
   4   0  -3 3242.22   21.74
   4   0  -3 3157.35   21.52
  -4   0  -3 3104.47   21.75
  -4   0  -2  205.21    3.87
  -4   0  -2  187.39    5.37
   4   0  -2  189.96    5.35
   4   0  -1 1602.04   14.44
  -4   0  -1 1519.83   14.21
  -4   0   0 2676.95   18.65
  -4   0   0 2676.49   18.94
   4   0   1 1613.21   14.32
  -4   0   1 1630.16   14.59
  -4   0   1 1590.53   14.21
  -4   0   2  183.08    5.00
  -4   0   2  184.97    4.99
  -4   0   3 3036.47   19.69
  -4   0   3 3106.72   19.83
  -4   0   4 3624.74   21.70
  -4   0   4 3591.98   21.80
  -4   0   5 1195.12   12.76
  -4   0   5 1195.74   12.81
   4   0   6  830.66    8.23
  -4   0   6  827.71   11.00
  -4   0   6  836.81   11.04
   4   0   7 1234.32   10.76
  -4   0   7 1217.49   13.97
  -4   0   7 1203.29   13.89
  -4   0   8 2502.46   20.96
  -4   0   8 2453.29   20.38
   4   0   9  184.59    4.87
  -4   0   9  197.61    6.40
  -4   0   9  186.95    6.22
   4   0   9  188.13    7.49
  -4   0  10  429.63    9.55
  -4   0  10  420.33    9.45
   4   0  10  431.10   11.39
  -4   0  11  626.04   12.19
  -4   0  11  613.93   12.18
   4   0  11  639.70   14.34
  -4   0  12  814.11   14.76
   4   0  12  821.08   17.01
  -4   0  12  781.64   14.36
  -4   0  13  239.60    8.85
   4   0  13  231.99    9.85
  -4   0  13  239.52    8.85
  -4   0  14   48.87    4.95
  -4   0  14   48.67    5.06
   4  -1  -7   11.33    2.50
  -4  -1  -7   14.79    2.66
   4  -1  -7   11.38    2.53
   4  -1  -6   73.54    3.91
  -4  -1  -6   61.86    4.11
   4   1  -6   72.41    4.21
   4   1  -6   69.60    4.17
  -4   1  -6   76.00    3.86
   4  -1  -6   76.30    3.92
  -4   1  -6   67.90    3.88
  -4   1  -5   55.91    3.33
  -4  -1  -5   60.64    3.89
   4   1  -5   56.38    3.66
   4  -1  -5   55.20    3.19
   4  -1  -5   53.90    3.18
   4   1  -5   54.19    3.62
  -4   1  -4  617.92    9.39
  -4   1  -4  597.82    9.69
  -4  -1  -4  636.05   10.78
   4  -1  -4  647.75    9.58
   4  -1  -4  627.86    9.32
   4   1  -4  635.04   10.70
  -4  -1  -4  657.62   10.61
   4   1  -4  635.66   10.61
  -4  -1  -3   38.44    2.21
  -4   1  -3   34.90    2.74
   4  -1  -3   39.22    2.70
   4   1  -3   43.43    3.23
  -4  -1  -3   38.23    3.00
   4  -1  -3   37.61    2.55
   4   1  -3   39.90    3.11
  -4   1  -3   34.45    2.62
  -4  -1  -2  462.17    6.74
  -4   1  -2  420.10    4.25
  -4   1  -2  448.67    7.88
   4   1  -2  425.77    8.40
   4  -1  -2  426.33    7.05
  -4  -1  -2  429.93    8.40
  -4   1  -2  425.97    7.32
   4   1  -2  451.41    8.47
  -4  -1  -1  103.54    3.39
  -4   1  -1   92.83    3.68
   4   1  -1   97.32    4.11
  -4  -1  -1  103.95    4.29
   4  -1  -1   88.97    3.30
  -4  -1   0 2329.21   15.47
   4  -1   0 2191.06   15.34
  -4   1   0 2270.77   16.23
   4   1   0 2226.18   17.61
  -4  -1   0 2215.08   18.02
  -4  -1   0 2159.08   17.57
  -4  -1   1   95.21    3.60
  -4  -1   1  102.19    4.28
  -4   1   1   98.23    3.60
  -4   1   1   97.88    3.50
  -4  -1   1   99.70    4.19
   4   1   1   99.73    4.06
   4   1   2  436.75    6.47
   4   1   2  443.65    8.15
  -4  -1   2  417.15    7.92
  -4   1   2  415.23    6.70
  -4  -1   2  400.27    7.73
  -4   1   2  415.58    6.65
  -4   1   3   41.15    2.39
   4   1   3   37.66    2.18
  -4  -1   3   36.82    2.81
  -4   1   3   36.42    2.31
  -4  -1   3   36.00    2.77
  -4  -1   4  599.90    9.51
  -4   1   4  595.28    8.10
  -4  -1   4  603.67    9.65
  -4   1   4  603.67    8.19
   4   1   5   64.12    2.95
  -4  -1   5   56.36    3.38
  -4   1   5   54.01    2.77
  -4  -1   5   59.01    3.34
  -4   1   5   51.78    2.75
  -4  -1   6   65.00    3.60
  -4   1   6   66.40    3.24
  -4  -1   6   71.21    3.74
  -4   1   6   63.83    3.16
  -4   1   7    6.62    1.78
   4  -1   7    7.71    0.95
   4   1   7   11.28    1.78
  -4   1   7   10.23    1.97
   4  -1   7   11.11    2.46
  -4  -1   7    9.15    1.97
  -4  -1   8  304.97    7.90
  -4   1   8  287.10    7.00
  -4  -1   8  298.95    7.84
   4  -1   8  276.17    8.27
  -4   1   8  288.65    6.90
   4  -1   9   43.65    2.26
   4   1   9   39.85    2.90
  -4   1   9   51.07    3.47
   4  -1   9   47.46    4.17
  -4  -1   9   52.20    3.97
  -4   1   9   47.15    3.46
  -4  -1   9   54.51    4.01
   4   1  10   44.60    3.20
  -4   1  10   54.85    3.82
  -4  -1  10   59.36    4.35
   4  -1  10   61.14    4.81
  -4  -1  10   55.15    4.24
  -4   1  10   59.22    3.94
   4  -1  10   41.30    2.34
   4   1  11   21.06    2.64
   4  -1  11   14.95    1.86
   4  -1  11   23.00    3.82
  -4  -1  11   25.99    3.42
  -4   1  11   28.14    3.26
  -4  -1  11   28.27    3.57
  -4   1  11   29.24    3.42
   4   1  12   10.83    2.35
  -4  -1  12   14.66    3.17
   4  -1  12   13.40    3.71
  -4   1  12   18.79    3.30
  -4  -1  12   12.04    3.07
  -4   1  12   13.39    2.86
   4   1  13   27.63    3.16
   4  -1  13   43.74    5.09
  -4  -1  13   44.16    4.74
  -4  -1  13   48.69    4.83
  -4   1  13   39.48    4.30
  -4   1  13   40.23    4.27
  -4  -2 -10  178.53    7.84
  -4  -2  -9  148.13    6.84
   4  -2  -8  413.73    9.06
   4  -2  -8  406.12    9.03
  -4  -2  -7  380.20    9.81
   4  -2  -7  398.18    8.48
   4  -2  -7  383.12    8.38
  -4  -2  -6  298.76    8.42
   4  -2  -6  292.39    6.77
  -4   2  -6  256.88    6.47
  -4   2  -6  256.84    6.64
   4  -2  -6  282.49    6.68
   4  -2  -5  372.56    7.15
   4  -2  -5  364.10    7.00
  -4  -2  -5  344.34    8.57
  -4   2  -5  333.52    6.81
  -4   2  -5  327.09    6.99
  -4   2  -4  254.27    5.92
   4   2  -4  265.50    7.54
   4  -2  -4  257.35    5.80
  -4  -2  -4  249.54    7.03
   4  -2  -4  268.67    5.66
   4   2  -4  264.23    7.45
  -4  -2  -3  743.75    9.68
  -4   2  -3  745.07    9.28
  -4   2  -3  770.06   10.21
   4   2  -3  783.42   12.22
  -4  -2  -3  752.04   11.79
   4  -2  -3  782.48    9.15
   4   2  -3  768.46   11.92
  -4  -2  -2  428.61    7.35
  -4   2  -2  401.30    6.66
  -4   2  -2  426.40    7.22
   4  -2  -2  391.25    6.05
   4   2  -2  443.99    9.00
  -4  -2  -2  417.12    8.68
   4   2  -2  427.31    9.01
  -4  -2  -1  286.28    6.05
   4  -2  -1  266.98    4.98
  -4   2  -1  274.07    5.43
  -4   2  -1  274.77    5.29
   4   2  -1  284.72    7.09
  -4  -2  -1  298.08    7.49
  -4  -2  -1  273.96    7.19
  -4  -2   0   40.13    2.54
   4   2   0   42.86    3.02
  -4  -2   0   44.34    3.24
  -4  -2   0   45.36    3.20
  -4   2   0   44.73    2.51
   4   2   1  273.39    5.93
   4   2   1  289.59    6.97
  -4   2   1  272.04    5.06
  -4  -2   1  221.56    6.26
  -4   2   1  276.01    5.03
  -4  -2   1  222.88    6.19
   4   2   2  390.44    6.78
  -4  -2   2  404.07    7.63
   4   2   2  413.53    8.38
  -4  -2   2  400.54    8.30
  -4   2   2  379.74    5.62
  -4  -2   2  412.00    8.28
  -4   2   2  365.27    5.49
  -4   2   3  748.52    7.87
   4   2   3  749.00    9.68
  -4  -2   3  756.92   10.89
  -4  -2   3  745.11   11.23
  -4   2   3  760.81    7.98
  -4  -2   3  753.01   11.16
  -4  -2   4  271.32    6.88
   4   2   4  260.08    6.05
  -4   2   4  261.52    4.85
  -4  -2   4  252.12    6.77
  -4   2   4  265.07    4.87
   4   2   5  353.05    7.19
  -4  -2   5  346.78    7.98
  -4   2   5  349.23    5.96
  -4  -2   5  352.59    8.03
  -4   2   5  351.82    5.98
   4  -2   5  325.81    7.50
   4   2   6  273.10    6.64
  -4  -2   6  283.54    7.38
  -4   2   6  272.52    5.61
  -4  -2   6  262.66    7.16
  -4   2   6  267.07    5.52
   4  -2   6  259.70    7.21
   4   2   7  372.89    7.81
  -4  -2   7  365.20    8.78
  -4   2   7  364.65    6.93
  -4  -2   7  370.05    8.91
  -4   2   7  355.50    6.81
   4   2   8  414.70    8.63
  -4   2   8  417.97    7.92
   4  -2   8  398.45    9.70
  -4  -2   8  423.06    9.76
  -4   2   8  419.15    7.95
   4  -2   9  137.55    6.52
  -4  -2   9  155.45    6.41
  -4   2   9  139.24    5.14
  -4  -2   9  145.63    6.22
  -4   2   9  139.76    5.19
  -4  -2  10  198.28    7.44
   4  -2  10  175.75    7.54
  -4  -2  10  181.86    7.21
  -4   2  10  187.23    6.22
  -4   2  10  182.33    6.14
  -4  -2  11  292.48    9.35
   4  -2  11  279.84    9.74
  -4  -2  11  300.11    9.42
  -4   2  11  290.27    8.27
  -4   2  11  277.09    8.06
   4   2  12  103.76    5.24
   4  -2  12  105.94    6.77
  -4  -2  12  125.54    6.76
  -4  -2  12  131.34    6.70
  -4   2  12  123.26    5.95
  -4   2  12  130.99    6.17
   4  -2  13  135.66    7.77
  -4  -2  13  138.05    7.36
  -4  -2  13  146.03    7.48
  -4   2  13  143.91    6.69
  -4   2  13  131.26    6.60
  -4  -3 -13   28.57    5.23
  -4  -3 -12  163.30    8.46
  -4  -3 -11   87.88    6.17
  -4  -3 -10  167.34    7.79
  -4  -3  -9   46.93    4.48
   4  -3  -8 1066.81   14.11
   4  -3  -8 1082.54   13.98
  -4  -3  -8 1069.02   17.25
  -4  -3  -7  622.38   12.78
   4  -3  -7  640.75   10.12
  -4  -3  -6  157.08    6.40
   4  -3  -6  153.80    4.93
  -4   3  -6  128.42    4.80
  -4   3  -6  137.86    4.92
   4  -3  -6  156.02    4.95
   4  -3  -5  805.27    9.77
  -4  -3  -5  739.67   12.89
   4  -3  -5  782.95    9.64
  -4   3  -5  716.46   10.14
  -4   3  -5  735.94   10.12
  -4  -3  -4  796.99   13.05
  -4   3  -4  786.41    9.86
  -4   3  -4  793.61    9.83
  -4  -3  -3 1428.86   14.81
   4   3  -3 1443.57   17.62
  -4  -3  -3 1393.49   16.72
   4   3  -3 1426.67   17.34
  -4   3  -3 1384.23   11.95
   4  -3  -3 1386.69    9.92
  -4   3  -3 1454.56   12.39
  -4  -3  -2  384.77    7.81
  -4  -3  -2  385.72    8.93
   4  -3  -2  377.26    4.86
  -4   3  -2  410.52    6.84
  -4  -3  -2  401.79    9.16
  -4   3  -2  393.29    5.84
   4   3  -2  395.21    9.25
  -4   3  -2  388.22    5.98
  -4   3  -1 1091.48    9.14
   4   3  -1 1096.16   14.60
  -4  -3  -1 1015.93   14.00
  -4   3  -1 1027.42    9.71
  -4  -3  -1 1030.86   13.95
  -4  -3   0 3180.06   21.72
  -4   3   0 3323.54   14.58
   4   3   0 3264.76   24.33
  -4  -3   0 3298.41   25.08
  -4   3   0 3220.32   15.56
  -4  -3   0 3288.22   24.70
  -4   3   0 3244.32   15.81
  -4  -3   1 1100.53   13.23
   4   3   1 1009.28   12.25
   4   3   1 1124.51   14.62
  -4   3   1 1082.43    8.11
  -4  -3   1 1017.51   13.71
  -4   3   1 1113.73    7.89
  -4   3   1 1044.53    7.98
  -4  -3   1 1065.71   13.90
  -4   3   2  354.41    4.42
  -4  -3   2  362.90    7.76
   4   3   2  368.05    7.53
   4   3   2  378.17    8.46
  -4  -3   2  373.91    8.58
  -4   3   2  377.42    4.48
  -4  -3   2  377.11    8.30
   4   3   3 1423.24   14.87
  -4   3   3 1440.20    8.84
  -4  -3   3 1473.53   16.93
  -4   3   3 1458.62    8.76
  -4  -3   3 1504.84   17.00
  -4  -3   4  832.41   12.58
   4   3   4  835.93   12.05
  -4   3   4  822.98    7.29
  -4  -3   4  804.37   12.59
  -4   3   4  833.11    7.30
   4   3   5  729.61   11.31
  -4  -3   5  734.53   12.09
  -4   3   5  739.58    7.75
  -4  -3   5  769.28   12.39
  -4   3   5  748.93    7.69
   4   3   6  150.40    5.56
  -4  -3   6  153.92    5.92
  -4   3   6  153.15    4.08
  -4  -3   6  155.07    5.99
   4  -3   6  137.07    5.37
  -4   3   6  149.87    4.00
   4   3   7  605.23   11.24
  -4  -3   7  612.57   11.76
  -4   3   7  618.53    8.76
  -4   3   7  616.43    8.62
   4   3   8 1039.61   14.53
  -4  -3   8  965.80   15.28
   4  -3   8 1012.82   15.73
  -4  -3   8  993.57   15.55
  -4   3   8 1073.25   12.42
  -4   3   8 1084.56   12.40
   4   3   9   45.09    3.76
  -4  -3   9   44.33    4.03
   4  -3   9   40.68    4.05
  -4  -3   9   45.33    4.09
  -4   3   9   45.41    3.27
  -4   3   9   51.10    3.36
   4   3  10  129.88    5.86
  -4  -3  10  160.27    7.08
   4  -3  10  135.37    6.79
  -4  -3  10  166.87    7.18
  -4   3  10  159.46    5.68
  -4   3  10  176.02    6.02
  -4  -3  11   91.15    5.86
   4  -3  11   77.80    5.74
  -4  -3  11   70.19    5.44
  -4   3  11   78.40    4.67
  -4   3  11   86.48    4.86
  -4   3  12  173.51    7.17
   4   3  12  130.82    6.53
   4  -3  12  149.40    7.93
  -4  -3  12  168.85    7.87
  -4  -3  12  152.00    7.47
  -4   3  13   24.69    4.00
   4   3  13   10.37    3.16
  -4  -3  13   21.32    4.05
  -4  -3  13   23.86    4.37
   4  -3  13   14.81    4.13
  -4  -4 -12    4.74    3.92
  -4  -4 -11   36.98    5.00
  -4  -4 -10   65.30    5.58
  -4  -4  -9  115.57    6.48
  -4  -4  -8    3.32    3.03
   4  -4  -7    8.29    2.26
   4  -4  -7    7.92    2.29
  -4  -4  -7    9.17    2.72
  -4   4  -6   59.51    3.67
   4  -4  -6   70.18    3.21
   4  -4  -6   66.82    3.00
  -4  -4  -6   64.52    4.56
  -4   4  -6   62.65    3.67
  -4   4  -5  120.66    4.50
   4  -4  -5  112.98    2.96
  -4   4  -5  113.06    4.28
  -4  -4  -4    7.64    2.69
  -4   4  -4    6.81    1.75
   4  -4  -4    6.31    0.67
  -4   4  -4   10.89    1.90
  -4   4  -3   98.31    2.46
  -4   4  -3   96.97    3.36
  -4   4  -3   98.15    3.37
  -4   4  -2  191.07    3.86
  -4   4  -2  199.23    4.73
  -4  -4  -2  183.33    6.51
  -4   4  -2  185.25    3.94
  -4  -4  -2  180.26    6.38
  -4   4  -2  188.13    3.91
  -4   4  -1  428.86    6.06
  -4  -4  -1  450.48    9.95
  -4   4  -1  460.56    6.14
  -4   4  -1  428.71    5.05
  -4  -4  -1  467.73    9.88
  -4   4  -1  453.78    5.11
   4   4   0   59.89    3.82
  -4   4   0   47.89    1.65
  -4   4   0   52.78    1.42
  -4   4   0   49.41    1.63
  -4   4   0   55.90    1.44
  -4  -4   0   58.39    3.87
  -4  -4   0   60.60    4.01
   4   4   1  417.64    8.70
  -4  -4   1  430.05    9.48
  -4  -4   1  449.50    9.55
  -4  -4   2  183.50    6.34
  -4  -4   2  183.35    6.19
  -4  -4   3  100.06    4.79
   4   4   3   91.06    4.50
  -4  -4   3  103.33    4.93
  -4   4   4    9.67    0.64
   4   4   4   10.12    2.34
  -4  -4   4    7.99    2.31
   4   4   5  130.15    5.60
  -4  -4   5  125.45    5.51
  -4  -4   5  124.41    5.56
   4  -4   5  109.61    4.75
  -4   4   5  115.86    2.61
   4   4   6   71.63    4.39
  -4  -4   6   60.50    4.16
   4  -4   6   65.56    4.06
  -4  -4   6   73.29    4.45
  -4   4   6   71.55    2.54
  -4   4   7    5.30    1.53
   4   4   7    7.72    2.42
   4  -4   7    5.74    2.41
  -4  -4   7    3.79    2.21
  -4  -4   7    9.42    2.89
  -4   4   8    3.57    1.81
   4   4   8   -3.71    2.53
   4  -4   8    2.78    2.35
  -4  -4   8    1.40    2.44
  -4  -4   8   -2.87    2.61
   4   4   9   93.18    5.36
  -4   4   9  111.40    4.49
  -4  -4   9  102.47    5.75
   4  -4   9   89.29    5.75
  -4  -4   9  112.61    6.04
   4   4  10   49.64    4.31
  -4   4  10   61.70    3.91
  -4  -4  10   62.43    4.96
   4  -4  10   65.97    5.36
  -4  -4  10   57.92    4.84
   4   4  11   32.72    3.86
  -4  -4  11   37.88    4.43
   4  -4  11   27.83    4.52
  -4  -4  11   38.97    4.55
  -4  -4  12    4.57    3.14
   4   4  12    4.72    2.90
   4  -4  12   -0.22    3.39
  -4  -4  12    9.50    3.62
  -4  -5 -11  225.32   10.16
  -4  -5 -10  158.42    8.12
  -4  -5  -9  289.44   10.03
  -4  -5  -8  503.51   12.63
  -4  -5  -7  297.25    9.93
  -4  -5  -6  345.63    9.86
  -4   5  -5  230.86    6.21
  -4   5  -5  231.73    6.21
  -4   5  -4  641.67    9.26
  -4  -5  -4  691.30   13.50
  -4  -5  -4  697.81   13.30
  -4   5  -4  647.92    9.17
  -4   5  -3  182.18    4.54
  -4  -5  -3  204.72    7.25
  -4   5  -3  188.99    4.57
  -4  -5  -3  209.99    7.30
  -4   5  -2  580.85    6.75
  -4   5  -2  661.46    7.79
  -4  -5  -2  688.45   13.01
  -4   5  -2  620.03    6.79
  -4  -5  -2  696.05   12.75
  -4   5  -1   42.32    1.30
  -4   5  -1   83.72    3.47
   4   5  -1   73.58    4.51
  -4   5  -1   44.41    1.52
  -4  -5  -1   78.20    4.59
  -4   5  -1   47.06    1.36
  -4   5  -1   48.09    1.51
  -4  -5  -1   89.14    4.89
   4   5   0 1445.82   17.96
  -4  -5   0 1455.70   17.87
  -4  -5   0 1441.74   17.60
   4   5   1   82.77    4.64
  -4  -5   1   85.45    4.67
  -4  -5   1   87.10    4.66
  -4  -5   2  681.54   12.61
  -4  -5   2  683.31   12.33
  -4  -5   3  220.28    7.09
   4   5   3  210.13    7.09
  -4  -5   3  217.39    7.25
  -4  -5   4  705.12   12.66
   4   5   4  704.57   12.86
  -4  -5   4  696.52   12.70
  -4  -5   5  265.46    8.04
  -4  -5   5  284.39    8.38
   4   5   6  338.26    9.49
  -4  -5   6  324.09    8.96
   4  -5   6  308.05    8.06
  -4  -5   6  332.62    9.19
   4   5   7  321.22    9.48
  -4  -5   7  307.21    9.13
   4  -5   7  286.02    8.42
  -4  -5   7  309.92    9.15
   4   5   8  504.31   12.08
  -4  -5   8  528.89   12.16
  -4  -5   8  531.27   12.28
   4   5   9  303.44    9.71
  -4  -5   9  312.30    9.78
   4  -5   9  286.10    9.70
  -4  -5   9  304.31    9.65
   4   5  10  163.56    7.88
  -4  -5  10  175.61    7.79
   4  -5  10  149.69    7.86
  -4  -5  10  177.24    7.86
   4  -5  11  211.09    9.55
  -4  -5  11  229.05    9.40
  -4  -6  -9   44.55    5.58
  -4  -6  -8  300.87   10.56
  -4  -6  -7  321.39   10.68
  -4  -6  -6   22.35    4.05
  -4  -6  -6   27.33    4.33
  -4  -6  -5  202.90    7.95
  -4  -6  -5  200.39    7.76
  -4  -6  -4  163.86    7.16
  -4  -6  -4  178.31    7.29
  -4  -6  -3  477.15   11.39
  -4  -6  -3  477.50   11.16
  -4  -6  -2   72.41    4.83
  -4   6  -2   71.62    3.79
  -4  -6  -2   68.13    4.53
  -4   6  -1  132.57    4.90
  -4  -6  -1  128.87    6.04
  -4  -6  -1  122.87    5.78
  -4   6   0   19.57    2.48
   4   6   0   12.83    2.86
  -4  -6   0   21.90    3.17
  -4  -6   0   11.98    2.94
  -4   6   1  115.61    4.82
   4   6   1  124.63    5.94
  -4  -6   1  120.76    5.66
  -4   6   2   55.03    3.74
  -4  -6   2   70.67    4.43
   4   6   2   64.22    4.74
  -4  -6   2   66.80    4.38
  -4  -6   3  481.79   10.69
   4   6   3  443.87   11.12
  -4  -6   3  460.66   10.61
  -4  -6   4  170.29    6.71
   4   6   4  172.19    7.20
  -4  -6   4  181.26    6.92
   4   6   5  204.85    8.09
  -4  -6   5  199.06    7.28
  -4  -6   5  201.99    7.47
   4  -6   6   18.88    2.97
  -4  -6   6   24.64    3.45
  -4  -6   6   21.72    3.30
   4   6   7  277.65    9.73
  -4  -6   7  294.45    9.32
  -4  -6   7  268.99    8.93
   4   6   8  303.12   10.22
  -4  -6   8  317.51   10.05
   4  -6   8  282.58    9.30
  -4  -6   8  296.83    9.78
   4   6   9   34.39    4.36
   4  -6   9   29.25    4.62
  -4  -6   9   46.24    4.77
  -4  -6   9   34.91    4.37
  -4  -7  -7  131.30    7.51
  -4  -7  -7  130.98    7.72
  -4  -7  -6  128.01    7.50
  -4  -7  -6  116.63    7.02
  -4  -7  -5   41.86    4.53
  -4  -7  -5   32.56    4.71
  -4  -7  -4   42.13    4.56
  -4  -7  -4   47.06    4.78
  -4  -7  -3   48.49    4.56
  -4  -7  -3   54.78    4.47
  -4   7  -2  132.71    5.50
  -4  -7  -2  142.85    6.68
  -4  -7  -2  136.83    6.45
  -4   7  -1    5.74    2.38
   4   7  -1    0.23    2.49
  -4  -7  -1    8.09    2.76
  -4  -7  -1    3.71    2.65
  -4   7   0   -0.34    1.96
   4   7   0    5.43    3.10
  -4  -7   0    2.40    2.79
  -4  -7   0    1.24    2.69
  -4   7   1    1.93    2.03
   4   7   1    0.62    2.58
  -4  -7   1    3.99    2.57
  -4  -7   1    2.12    2.61
  -4  -7   2  136.11    6.34
   4   7   2  127.94    6.63
  -4  -7   2  138.98    6.45
  -4  -7   3   54.20    4.38
   4   7   3   43.77    4.49
  -4  -7   3   52.16    4.40
  -4   7   4   32.86    3.64
   4   7   4   37.63    4.22
  -4  -7   4   48.67    4.31
  -4  -7   4   46.82    4.30
   4   7   5   43.70    4.65
  -4  -7   5   44.85    4.23
  -4  -7   5   38.58    4.06
   4   7   6  128.67    7.17
  -4  -7   6  118.31    6.35
  -4  -7   6  110.12    6.20
   4   7   7  149.59    8.14
  -4  -7   7  133.13    7.06
  -4  -7   7  137.61    7.18
  -4  -8  -4  175.33    8.26
  -4  -8  -4  185.51    8.28
  -4  -8  -3  373.92   11.13
  -4  -8  -3  374.16   11.01
  -4  -8  -2  651.31   14.00
  -4  -8  -2  648.67   13.75
  -4  -8  -1  231.69    8.70
  -4  -8  -1  241.64    8.75
  -4  -8   0  338.01    9.94
   4   8   0  328.35   11.29
  -4  -8   0  327.63   10.01
  -4  -8   1  227.13    8.30
   4   8   1  217.07    9.05
  -4  -8   1  228.02    8.54
  -4   8   2  559.55   12.94
  -4  -8   2  656.42   13.61
   4   8   2  596.22   14.57
  -4  -8   2  658.78   13.78
  -4  -8   3  365.09   10.29
   4   8   3  356.87   11.61
  -4  -8   3  347.66   10.29
  -4  -8   4  174.54    7.57
  -4  -8   4  165.77    7.52
  -5   0  -8   -4.58    2.69
  -5   0  -7    3.17    2.51
  -5   0  -6   -0.24    2.31
   5   0  -5    1.06    2.14
   5   0  -5   -0.96    2.17
  -5   0  -5    1.02    2.17
   5   0  -4    0.84    2.00
  -5   0  -4    1.63    2.04
   5   0  -4   -0.05    2.00
  -5   0  -4    1.99    1.94
  -5   0  -3   -0.06    1.86
   5   0  -3   -0.97    1.98
  -5   0  -3    1.02    1.92
  -5   0  -2   -0.11    1.75
   5   0  -2   -1.70    1.90
  -5   0  -1   -1.14    1.86
  -5   0  -1   -1.11    1.24
   5   0  -1   -1.58    1.82
  -5   0   0    1.88    1.60
  -5   0   0   -1.10    1.43
  -5   0   0    0.71    1.72
   5   0   0   -1.27    1.78
  -5   0   1    0.69    1.61
   5   0   1    0.52    1.68
  -5   0   1    2.87    1.93
  -5   0   2   -3.20    1.87
  -5   0   2    0.06    1.59
  -5   0   3   -0.11    1.57
  -5   0   3    0.58    1.56
  -5   0   4   -1.84    1.55
  -5   0   4    1.14    1.63
   5   0   5    0.62    1.10
  -5   0   5    1.90    1.61
  -5   0   5    3.38    1.91
   5   0   6    0.19    1.21
  -5   0   6   -0.87    1.73
  -5   0   6    0.28    1.78
   5   0   7    1.65    1.38
  -5   0   7   -4.17    2.00
  -5   0   7   -1.89    1.83
   5   0   8    3.51    1.46
  -5   0   8    0.04    1.95
  -5   0   8   -1.42    1.95
  -5   0   9    4.04    2.21
   5   0   9   -1.60    1.61
  -5   0   9    0.13    1.98
  -5   0  10   -1.43    2.13
   5   0  10    1.00    1.80
  -5   0  10   -2.25    2.08
  -5   0  11   -1.79    2.28
  -5   0  11    3.10    2.37
  -5   0  12    0.82    2.45
  -5   0  12   -4.27    2.82
  -5   0  13    0.46    2.75
  -5   0  13   -0.21    2.78
  -5  -1 -12   11.89    3.58
  -5  -1 -11  130.78    7.35
  -5  -1 -10  144.65    7.48
  -5  -1  -9  839.63   16.06
  -5  -1  -8   42.13    4.40
  -5  -1  -7  654.89   13.39
  -5   1  -6  131.52    5.86
  -5  -1  -6  133.11    6.09
   5  -1  -6  142.89    5.82
   5  -1  -6  142.20    5.74
  -5   1  -5  605.24   11.31
  -5  -1  -5  573.77   11.61
   5  -1  -5  596.40   10.74
   5  -1  -5  580.19   10.32
  -5   1  -4  120.90    4.93
  -5   1  -4  126.94    5.33
   5   1  -4  121.71    5.42
  -5  -1  -4  114.23    5.31
   5  -1  -4  110.22    4.54
   5   1  -4  126.52    5.39
   5  -1  -4  118.02    4.76
  -5  -1  -3  577.32    8.47
  -5   1  -3  548.55    9.95
  -5  -1  -3  554.56   10.72
  -5   1  -3  567.48    9.69
   5   1  -3  565.85   10.93
   5  -1  -3  554.56    9.48
   5   1  -3  535.00   10.43
  -5  -1  -2  261.88    5.75
  -5   1  -2  258.33    4.26
   5  -1  -2  242.85    6.21
  -5  -1  -2  225.16    6.75
  -5   1  -2  226.57    6.22
   5   1  -2  248.71    6.99
  -5   1  -2  266.32    6.65
  -5  -1  -1 2378.77   21.52
   5  -1  -1 2329.83   18.18
   5   1  -1 2372.04   20.95
  -5   1  -1 2363.41   19.01
  -5  -1   0   16.83    1.97
  -5  -1   0   12.85    2.24
   5  -1   0   20.99    2.33
  -5   1   0   15.54    2.10
  -5   1   0   19.70    2.30
   5   1   0   16.74    2.47
  -5  -1   0   15.43    2.39
  -5   1   1 2306.99   18.22
  -5  -1   1 2330.34   20.74
  -5   1   1 2339.82   18.04
  -5  -1   1 2339.93   20.51
   5   1   1 2316.90   20.31
   5   1   2  243.00    6.82
  -5  -1   2  240.72    6.65
  -5   1   2  236.40    5.79
  -5  -1   2  229.58    6.42
  -5   1   2  240.75    5.76
  -5  -1   3  515.77    9.65
  -5   1   3  515.17    8.35
  -5  -1   3  520.63    9.58
  -5   1   3  504.45    8.21
  -5  -1   4  129.40    4.96
  -5   1   4  117.41    4.24
   5   1   4  128.05    3.95
  -5  -1   4  121.98    4.89
  -5   1   4  122.78    4.35
  -5  -1   5  576.52   10.36
  -5   1   5  589.65    9.17
  -5  -1   5  569.75   10.40
  -5   1   5  583.76    9.15
   5   1   6  153.54    4.65
  -5  -1   6  141.78    5.45
  -5   1   6  138.36    4.81
  -5  -1   6  139.62    5.47
  -5   1   6  137.36    4.74
  -5  -1   7  669.00   11.56
  -5   1   7  671.29   10.53
  -5  -1   7  670.06   11.59
  -5   1   7  672.03   10.51
   5   1   8   44.39    3.06
  -5  -1   8   37.95    3.50
  -5   1   8   39.62    3.17
  -5  -1   8   47.10    3.74
  -5   1   8   44.95    3.24
   5   1   9  889.75   11.99
  -5  -1   9  861.39   14.09
  -5   1   9  846.64   12.72
  -5  -1   9  881.81   14.18
  -5   1   9  864.43   12.75
   5   1  10  128.24    5.07
  -5   1  10  131.24    5.56
  -5  -1  10  122.27    5.96
  -5  -1  10  131.18    6.19
  -5   1  10  127.04    5.50
   5   1  11  127.08    5.40
  -5  -1  11  128.53    6.32
  -5   1  11  125.74    5.96
  -5  -1  11  123.35    6.23
  -5   1  11  121.63    5.91
  -5  -1  12    9.93    2.99
  -5   1  12   12.65    3.10
  -5  -1  12   20.55    3.68
  -5   1  12   21.18    3.52
  -5  -1  13  229.52    9.08
  -5   1  13  256.94    9.17
  -5  -1  13  241.64    9.32
  -5   1  13  230.76    8.80
  -5  -2 -12   90.23    6.98
  -5  -2 -11    1.39    3.12
  -5  -2 -10   87.30    6.22
  -5  -2  -9   73.60    5.60
  -5  -2  -8   31.31    4.11
   5  -2  -7    7.63    2.59
   5  -2  -7   11.05    2.89
  -5  -2  -7    7.53    2.85
   5  -2  -6 1765.69   18.31
   5  -2  -6 1749.84   17.92
  -5   2  -5   53.25    3.59
  -5   2  -5   68.24    4.12
   5  -2  -5   64.17    3.74
  -5  -2  -5   63.38    4.54
   5  -2  -5   64.11    3.69
  -5   2  -4  572.30    9.59
  -5   2  -4  588.85   10.53
   5  -2  -4  649.80   10.37
  -5  -2  -4  571.50   11.63
   5  -2  -4  626.76    9.85
  -5  -2  -3   41.02    2.89
  -5   2  -3   40.53    2.86
  -5   2  -3   39.87    3.13
   5  -2  -3   41.10    2.82
  -5  -2  -3   42.80    3.66
  -5  -2  -2 3706.05   23.25
  -5   2  -2 3213.23   13.13
   5  -2  -2 3531.30   20.77
  -5   2  -2 3548.57   22.90
  -5   2  -2 3662.95   22.28
   5   2  -2 3580.46   27.41
  -5  -2  -2 3114.51   25.97
  -5  -2  -1  184.98    5.36
   5  -2  -1  177.43    4.72
  -5  -2  -1  185.46    6.40
   5   2  -1  182.66    6.49
  -5   2  -1  187.27    5.22
  -5   2  -1  182.66    5.00
  -5  -2  -1  189.93    6.34
  -5  -2   0  136.68    4.76
  -5   2   0  136.12    4.39
  -5  -2   0  143.43    5.74
   5   2   0  139.20    5.49
  -5   2   0  136.98    4.28
  -5  -2   0  149.13    5.69
   5   2   1  195.47    6.41
  -5  -2   1  192.96    6.49
  -5   2   1  186.07    4.95
  -5   2   1  184.35    4.84
  -5  -2   1  183.08    6.19
  -5  -2   2 3396.79   23.58
   5   2   2 3477.22   21.87
   5   2   2 3488.94   26.32
  -5  -2   2 3466.45   26.23
  -5   2   2 3558.65   20.29
  -5  -2   2 3545.75   26.26
  -5   2   2 3591.57   20.22
  -5   2   3   36.67    2.31
   5   2   3   36.23    2.62
  -5  -2   3   37.66    3.32
  -5   2   3   34.80    2.28
  -5  -2   3   36.78    3.11
  -5  -2   4  576.34   10.82
  -5   2   4  591.20    8.16
  -5  -2   4  576.91   10.86
  -5   2   4  595.40    8.26
  -5  -2   5   62.15    4.06
   5   2   5   66.54    3.56
  -5   2   5   61.81    3.04
  -5  -2   5   67.56    4.25
  -5   2   5   61.66    3.03
   5   2   6 1741.09   16.65
  -5  -2   6 1730.98   19.30
  -5   2   6 1640.52   14.65
  -5  -2   6 1650.95   18.99
  -5   2   6 1628.55   14.73
  -5   2   7    8.45    1.86
  -5  -2   7   14.16    2.72
  -5  -2   7    8.19    2.46
  -5   2   7    9.98    2.03
   5   2   8   30.39    2.91
  -5  -2   8   28.49    3.41
  -5   2   8   24.32    2.73
  -5  -2   8   26.68    3.39
  -5   2   8   26.48    2.77
   5   2   9   72.93    4.22
  -5  -2   9   76.77    4.91
  -5   2   9   73.89    4.09
  -5  -2   9   72.71    4.87
  -5   2   9   70.80    3.98
   5   2  10   96.34    5.04
  -5   2  10   90.38    4.71
  -5  -2  10   97.34    5.82
  -5  -2  10   94.65    5.63
  -5   2  10   79.52    4.59
   5  -2  10   85.39    5.80
  -5  -2  11    1.88    2.62
   5   2  11    2.42    2.35
   5  -2  11    4.03    3.07
  -5   2  11   -3.43    2.25
  -5  -2  11    4.32    2.51
  -5   2  11    3.06    2.53
  -5  -2  12   86.42    5.98
  -5  -2  12  106.33    6.48
  -5   2  12   97.88    5.60
   5  -2  12   93.41    6.71
  -5   2  12   95.48    5.63
  -5  -3 -12    1.40    3.88
  -5  -3 -11    6.64    3.65
  -5  -3 -10   14.26    3.56
  -5  -3  -9   39.31    4.65
  -5  -3  -8   17.03    3.52
   5  -3  -7  177.89    6.36
  -5  -3  -7  173.63    7.62
   5  -3  -7  172.42    6.20
   5  -3  -6   22.10    2.81
   5  -3  -6   27.21    2.96
  -5  -3  -6   18.65    3.43
  -5   3  -5  368.30    8.57
  -5  -3  -5  373.39   10.11
  -5   3  -5  354.11    7.60
  -5   3  -5  354.40    7.75
   5  -3  -4    8.45    2.01
  -5  -3  -4    9.67    2.91
  -5   3  -4   11.38    2.20
  -5   3  -4    8.98    2.09
  -5   3  -4    9.66    1.94
  -5   3  -3  734.67   11.05
   5  -3  -3  750.55    9.15
  -5  -3  -3  736.02   13.48
  -5   3  -3  749.01    9.77
  -5   3  -3  739.45   10.14
  -5  -3  -2    8.90    2.48
  -5  -3  -2    6.93    2.15
  -5   3  -2    8.80    1.74
   5  -3  -2    6.78    1.47
  -5  -3  -2   10.80    2.73
  -5   3  -2    7.24    2.03
  -5   3  -1  985.76   10.29
  -5  -3  -1  944.05   14.78
  -5   3  -1  997.51   11.21
  -5  -3  -1  944.75   14.53
  -5   3   0    2.77    1.47
  -5  -3   0   -0.99    2.22
  -5   3   0    1.50    1.40
  -5   3   0    1.15    1.40
  -5  -3   0    4.81    2.54
   5   3   1  936.71   12.62
  -5   3   1  972.05    9.70
  -5  -3   1  939.23   14.37
  -5   3   1  977.83    9.51
  -5  -3   1  975.25   14.54
   5   3   2    3.86    1.87
  -5   3   2    8.53    1.42
  -5   3   2   11.34    1.62
  -5  -3   2   13.43    2.78
  -5  -3   2    5.56    2.17
  -5   3   3  769.70    8.07
   5   3   3  707.63   10.85
  -5  -3   3  710.40   12.70
  -5   3   3  773.90    8.15
  -5  -3   3  707.02   12.57
  -5   3   4   11.33    1.57
   5   3   4    7.80    2.15
  -5  -3   4    9.67    2.67
  -5  -3   4    6.30    2.62
  -5   3   4    9.14    1.40
  -5  -3   5  339.40    8.90
   5   3   5  370.91    8.48
  -5   3   5  382.52    6.22
  -5  -3   5  352.85    9.25
  -5   3   5  384.52    6.25
   5   3   6   19.71    2.67
  -5  -3   6   21.79    3.26
  -5   3   6   20.82    2.06
  -5   3   6   22.08    2.16
  -5  -3   6   20.74    3.02
  -5  -3   7  171.53    6.76
  -5   3   7  163.83    4.84
  -5  -3   7  161.09    6.59
  -5   3   7  167.86    4.94
   5   3   8   13.33    2.53
  -5   3   8   12.60    2.12
   5  -3   8   11.83    3.07
  -5   3   8   12.17    2.25
  -5  -3   8   15.21    3.03
  -5  -3   8   10.67    2.66
   5   3   9   25.36    3.12
  -5  -3   9   32.03    3.96
  -5  -3   9   36.32    4.18
  -5   3   9   33.92    3.07
   5  -3   9   33.16    4.13
  -5   3   9   25.08    2.79
   5   3  10   10.90    2.88
  -5  -3  10   21.16    3.72
   5  -3  10    7.97    3.50
  -5   3  10   11.67    2.58
  -5   3  10   18.10    2.90
  -5  -3  10   15.36    3.44
  -5  -3  11   11.88    3.11
   5   3  11    8.32    2.54
   5  -3  11    4.57    3.10
  -5   3  11    4.10    2.43
  -5  -3  11    4.40    2.91
  -5   3  11    7.15    2.48
  -5  -3  12    0.27    2.88
   5  -3  12    0.75    3.46
   5   3  12    3.48    2.98
  -5  -3  12   -3.53    3.26
  -5  -4 -11    7.07    4.05
  -5  -4 -10  200.87    9.26
  -5  -4  -9   94.39    6.60
  -5  -4  -8   69.45    5.50
  -5  -4  -7   21.57    3.87
  -5  -4  -6 1522.32   21.63
   5  -4  -6 1434.05   13.03
   5  -4  -5  115.02    3.47
  -5  -4  -5  124.38    6.40
  -5   4  -5  110.86    4.60
  -5   4  -5  101.81    4.39
   5  -4  -4  684.15    6.78
  -5   4  -4  655.23    9.63
  -5   4  -4  675.96    9.60
  -5  -4  -3   13.11    3.01
  -5   4  -3   13.10    2.46
  -5   4  -3   15.04    2.13
  -5  -4  -3    9.94    2.91
  -5   4  -3   11.11    2.00
  -5  -4  -2 2727.96   26.37
  -5  -4  -2 2753.85   26.01
  -5   4  -2 2815.88   16.81
  -5   4  -2 2835.63   16.77
  -5  -4  -1  112.53    5.75
  -5   4  -1  128.73    3.98
  -5  -4  -1  120.31    5.74
  -5   4  -1  121.13    3.40
  -5   4  -1  119.11    3.29
  -5   4   0  303.73    5.11
  -5  -4   0  285.28    8.52
  -5   4   0  307.56    4.98
  -5  -4   0  284.80    8.41
  -5   4   0  298.10    4.49
  -5   4   0  292.37    4.44
   5   4   1  112.66    5.20
  -5  -4   1  111.88    5.56
  -5   4   1  120.31    2.69
  -5  -4   1  115.48    5.56
  -5   4   1  124.34    2.66
  -5   4   1  118.16    2.59
  -5   4   2 2749.74   11.55
  -5   4   2 2726.26   10.64
   5   4   2 2694.48   23.25
  -5  -4   2 2749.09   25.42
  -5   4   2 2794.80   10.62
  -5  -4   2 2740.32   24.99
   5   4   3   10.57    2.31
  -5   4   3   10.86    0.88
  -5   4   3    9.87    0.93
  -5  -4   3    8.32    2.71
  -5   4   3   11.81    0.89
  -5  -4   3   12.62    2.92
  -5  -4   4  710.89   13.04
   5   4   4  730.43   12.54
  -5  -4   4  715.53   13.31
  -5   4   4  716.26    6.03
  -5   4   4  718.58    6.02
  -5  -4   5  116.62    5.67
   5   4   5  123.74    5.56
  -5  -4   5  129.24    6.10
  -5   4   5  133.85    3.11
  -5   4   5  132.38    3.09
   5   4   6 1455.35   18.14
  -5  -4   6 1555.94   19.91
  -5  -4   6 1532.01   19.79
  -5   4   6 1477.34   11.43
  -5   4   6 1487.08   11.19
  -5  -4   7   24.01    3.38
  -5  -4   7   20.61    3.50
  -5   4   7   20.40    2.00
  -5   4   7   14.82    1.80
   5   4   8   83.26    5.08
  -5  -4   8   83.73    5.49
  -5  -4   8   75.59    5.33
   5  -4   8   74.31    5.11
  -5   4   8   76.02    3.43
  -5   4   8   81.70    3.55
   5   4   9  110.72    5.84
  -5  -4   9  123.76    6.59
  -5  -4   9  113.44    6.31
   5  -4   9   98.25    6.15
   5   4  10  197.34    7.88
  -5  -4  10  195.93    8.28
   5  -4  10  183.58    8.57
  -5  -4  11   11.45    4.02
   5   4  11    3.60    2.97
   5  -4  11    4.52    3.63
  -5  -4  11   12.61    3.66
  -5  -5 -10   22.28    4.60
  -5  -5  -9  324.74   11.67
  -5  -5  -8    4.67    3.67
  -5  -5  -7  361.98   11.20
  -5  -5  -6    9.13    3.23
  -5  -5  -5  111.76    6.61
  -5  -5  -5  128.89    6.96
  -5   5  -4   22.14    2.94
  -5  -5  -4   31.51    3.95
  -5  -5  -4   30.12    3.81
  -5   5  -3  130.18    3.14
  -5   5  -3  148.55    5.29
  -5  -5  -3  142.17    6.71
  -5  -5  -3  143.37    6.53
  -5   5  -2   12.53    1.90
  -5  -5  -2   12.28    3.11
  -5   5  -2    9.07    1.65
  -5  -5  -2   11.64    3.19
  -5   5  -2   11.48    1.58
  -5   5  -2    7.99    1.51
  -5   5  -1   21.89    2.08
  -5   5  -1   16.90    1.24
  -5   5  -1   17.18    1.49
  -5  -5  -1   26.06    3.57
  -5   5  -1   20.07    1.26
  -5   5  -1   18.19    1.45
  -5  -5  -1   25.06    3.40
   5   5   0   24.23    3.52
  -5  -5   0   21.74    3.19
  -5  -5   0   23.92    3.38
  -5   5   0   18.07    2.13
   5   5   1   27.86    3.58
  -5  -5   1   23.65    3.36
  -5  -5   1   25.00    3.44
   5   5   2   13.64    2.65
  -5  -5   2   13.49    3.08
  -5  -5   2   10.91    3.00
  -5  -5   3  155.60    6.48
   5   5   3  155.76    6.45
  -5  -5   3  144.66    6.39
  -5  -5   4   35.64    3.78
   5   5   4   27.36    3.46
  -5  -5   4   30.96    3.70
  -5  -5   5  127.90    6.17
   5   5   5  115.98    5.82
  -5  -5   5  116.83    6.00
   5   5   6    5.85    2.51
  -5  -5   6    6.08    2.75
  -5  -5   6    5.43    2.81
   5   5   7  400.80   10.90
  -5  -5   7  383.37   10.55
  -5  -5   7  377.40   10.52
   5  -5   8    6.69    3.00
  -5  -5   8   10.91    3.09
  -5  -5   8    9.97    3.27
   5   5   9  343.02   10.78
  -5  -5   9  345.94   10.84
  -5  -5   9  353.99   10.93
  -5  -5  10   18.68    3.99
   5   5  10   25.60    4.00
  -5  -5  10   32.90    4.61
   5  -5  10   20.00    4.31
  -5  -6  -8  215.69    9.78
  -5  -6  -7   24.63    4.64
  -5  -6  -7   18.14    4.74
  -5  -6  -6  197.43    8.88
  -5  -6  -6  196.81    8.78
  -5  -6  -5   48.83    5.01
  -5  -6  -5   53.09    4.98
  -5  -6  -4  264.25    9.64
  -5  -6  -4  255.32    9.06
  -5  -6  -3    3.18    2.91
  -5  -6  -3    6.81    3.12
  -5   6  -2  362.76    7.22
  -5  -6  -2  362.06   10.58
  -5  -6  -2  354.69   10.24
  -5   6  -1   15.67    2.21
  -5  -6  -1   14.31    3.22
  -5  -6  -1   11.77    3.25
  -5   6   0  312.97    7.35
   5   6   0  329.92    9.90
  -5  -6   0  347.33    9.91
  -5  -6   0  346.76    9.73
  -5   6   1   18.00    2.48
   5   6   1   21.42    3.39
  -5  -6   1   19.61    3.38
  -5  -6   1   20.04    3.32
   5   6   2  338.42    9.94
  -5  -6   2  358.09   10.15
  -5  -6   2  371.80   10.40
   5   6   3    9.89    3.16
  -5  -6   3    3.83    2.76
  -5  -6   3    3.96    3.00
  -5  -6   4  258.04    8.64
  -5  -6   4  252.30    8.67
  -5  -6   5   47.52    4.48
   5   6   5   60.72    4.90
  -5  -6   5   60.49    4.97
   5   6   6  200.50    8.18
  -5  -6   6  206.67    8.02
  -5  -6   6  187.43    7.81
   5   6   7   20.79    3.54
  -5  -6   7   26.71    4.13
  -5  -6   7   22.82    3.73
   5   6   8  210.57    9.02
  -5  -6   8  225.48    9.05
  -5  -6   8  224.92    9.11
  -5  -7  -6   25.49    4.85
  -5  -7  -6   28.95    5.04
  -5  -7  -5  209.83    9.49
  -5  -7  -5  221.02    9.40
  -5  -7  -4  103.61    6.72
  -5  -7  -4  112.93    6.73
  -5  -7  -3  167.44    7.76
  -5  -7  -3  176.50    7.96
  -5  -7  -2   26.41    4.04
  -5  -7  -2   22.79    3.96
  -5  -7  -1  532.96   13.10
  -5  -7  -1  527.79   12.77
   5   7   0  102.24    6.38
  -5  -7   0   92.83    5.89
  -5  -7   0  106.80    6.16
   5   7   1  509.33   13.67
  -5  -7   1  486.08   12.20
  -5  -7   1  497.97   12.22
  -5   7   2   15.35    2.66
   5   7   2   10.21    3.34
  -5  -7   2   14.86    3.26
  -5  -7   2   20.35    3.77
  -5  -7   3  183.78    7.75
   5   7   3  173.97    7.81
  -5  -7   3  173.57    7.71
  -5  -7   4   96.77    6.07
   5   7   4  105.60    6.47
  -5  -7   4   94.19    5.99
  -5  -7   5  208.76    8.35
  -5  -7   5  194.22    8.09
   5   7   6   17.55    3.75
  -5  -7   6   16.73    3.82
  -5  -7   6   19.69    4.08
  -6   0 -12   21.14    4.47
  -6   0 -11  720.24   16.49
  -6   0 -10    8.93    3.08
  -6   0  -9  413.88   12.03
  -6   0  -8   50.83    4.90
  -6   0  -7  370.66   10.64
  -6   0  -6    7.60    2.67
  -6   0  -5  932.03   15.62
  -6   0  -4   85.92    5.06
  -6   0  -3  822.17   13.92
   6   0  -3  787.57   12.99
  -6   0  -2   17.36    2.75
   6   0  -2   24.59    3.08
  -6   0  -1  730.21   12.69
   6   0  -1  720.59   11.89
  -6   0   0   76.49    3.74
   6   0   0   71.33    4.14
  -6   0   0   70.54    4.35
  -6   0   0   84.25    4.48
  -6   0   1  773.10   12.49
  -6   0   1  786.32   12.44
  -6   0   2   25.31    2.83
  -6   0   2   24.55    2.79
  -6   0   3  814.77   12.36
  -6   0   3  786.38   12.05
  -6   0   4   92.42    4.47
  -6   0   4   84.00    4.38
  -6   0   5  964.77   13.48
  -6   0   5  958.34   13.62
  -6   0   6   13.18    2.69
  -6   0   6   10.90    2.45
  -6   0   7  366.19    8.78
  -6   0   7  368.31    8.84
   6   0   8   62.81    3.03
  -6   0   8   51.89    3.88
  -6   0   8   50.81    3.86
  -6   0   9  431.39   10.07
  -6   0   9  439.27   10.15
  -6   0  10   17.12    3.05
  -6   0  10   22.24    3.28
  -6   0  11  747.32   14.34
  -6   0  11  747.94   14.28
  -6   0  12   22.11    3.85
  -6   0  12   25.99    3.93
  -6   1 -12    6.40    3.27
  -6  -1 -12   10.32    3.87
  -6  -1 -11   28.78    4.83
  -6   1 -11   17.05    3.68
  -6   1 -10   37.56    4.31
  -6  -1 -10   48.10    5.15
  -6   1  -9   21.35    3.78
  -6  -1  -9   27.34    4.20
  -6   1  -8  152.59    7.21
  -6  -1  -8  185.71    8.08
  -6   1  -7   69.62    4.85
  -6  -1  -7   65.82    5.17
  -6  -1  -6   60.73    4.84
  -6   1  -6   67.00    4.90
  -6   1  -5   67.89    4.70
  -6  -1  -5   86.90    5.42
  -6   1  -4  157.10    6.24
  -6  -1  -4  176.01    7.03
   6  -1  -4  169.04    6.21
  -6  -1  -4  170.08    5.40
  -6  -1  -3  160.41    5.21
  -6   1  -3  138.88    3.41
  -6   1  -3  155.15    6.05
   6  -1  -3  157.37    5.87
  -6  -1  -3  151.41    6.39
  -6   1  -2    1.03    1.98
  -6  -1  -2    4.16    2.27
  -6  -1  -2    5.12    1.82
  -6   1  -2    6.15    1.55
  -6   1  -2    3.91    2.17
   6  -1  -2    2.98    2.14
  -6  -1  -1  180.09    5.57
  -6   1  -1  195.59    4.88
  -6   1  -1  181.41    6.50
  -6  -1  -1  169.93    6.55
   6  -1  -1  171.38    5.72
  -6   1  -1  179.85    6.21
  -6  -1  -1  174.07    6.49
  -6  -1   0  781.90   11.43
   6  -1   0  718.78   11.36
  -6   1   0  759.04   11.91
  -6  -1   0  777.23   13.44
  -6   1   0  772.08   11.79
  -6  -1   0  739.66   12.67
  -6  -1   1  169.78    5.69
  -6   1   1  173.47    5.80
  -6  -1   1  178.67    6.49
  -6   1   1  182.29    5.85
  -6  -1   1  182.93    6.49
  -6  -1   2    2.59    2.12
  -6  -1   2    3.17    2.02
  -6   1   2    5.53    1.98
  -6  -1   2   -0.48    2.17
  -6   1   2    1.31    1.77
  -6  -1   3  144.81    5.79
  -6   1   3  140.98    5.08
  -6  -1   3  144.08    5.72
  -6   1   3  153.11    5.22
  -6   1   4  160.41    5.31
  -6  -1   4  148.68    5.94
  -6   1   4  157.46    5.37
  -6  -1   4  162.80    6.15
  -6  -1   5   79.04    4.53
  -6   1   5   70.31    3.78
  -6  -1   5   76.83    4.53
  -6   1   5   78.32    4.00
  -6  -1   6   70.16    4.40
  -6   1   6   72.74    3.83
   6   1   6   81.17    3.78
  -6  -1   6   67.66    4.32
  -6   1   6   71.99    3.84
  -6  -1   7   61.28    4.19
   6   1   7   78.41    3.82
  -6   1   7   69.92    3.97
  -6  -1   7   74.96    4.44
  -6   1   7   59.93    3.76
  -6  -1   8  181.35    6.90
  -6   1   8  183.08    6.20
  -6  -1   8  181.10    6.86
  -6   1   8  170.64    5.98
   6   1   9   31.42    3.06
  -6  -1   9   26.80    3.45
  -6   1   9   25.72    3.07
  -6  -1   9   24.11    3.36
  -6   1   9   29.14    3.18
   6   1  10   44.31    3.43
  -6  -1  10   41.70    4.11
  -6   1  10   46.31    3.97
  -6  -1  10   35.85    3.96
  -6   1  10   41.51    3.88
  -6   1  11   17.90    3.25
  -6  -1  11   27.52    3.82
  -6   1  11   22.72    3.42
  -6  -1  11   19.52    3.48
  -6  -1  12   14.64    3.53
  -6   1  12    7.44    3.01
  -6  -1  12   14.42    3.66
  -6   1  12   10.14    3.23
  -6  -2 -11   91.59    7.04
  -6  -2 -10   22.53    4.39
  -6   2  -9   80.25    5.50
  -6  -2  -9   87.54    6.33
  -6   2  -8   74.58    5.29
  -6  -2  -8   91.98    6.32
  -6   2  -7  453.85   11.20
  -6  -2  -7  463.19   12.51
   6  -2  -6   64.81    4.52
  -6   2  -6   71.00    4.79
  -6  -2  -6   70.85    5.49
   6  -2  -6   70.14    4.61
  -6   2  -5  993.41   15.39
  -6  -2  -5  945.63   16.56
  -6   2  -4  179.99    6.68
   6  -2  -4  186.60    6.15
  -6  -2  -4  185.56    7.49
  -6  -2  -4  183.12    6.05
  -6  -2  -3 1541.31   16.52
  -6   2  -3 1464.57   16.36
   6  -2  -3 1490.02   15.61
  -6   2  -3 1540.79   17.47
  -6  -2  -3 1568.61   20.27
  -6  -2  -2  172.11    7.09
   6  -2  -2  152.85    5.17
  -6   2  -2  161.05    5.55
  -6   2  -2  164.00    5.82
  -6  -2  -2  168.25    7.06
  -6  -2  -1 1572.23   16.92
   6  -2  -1 1516.52   15.39
  -6   2  -1 1652.68   17.94
  -6  -2  -1 1546.17   19.70
  -6   2  -1 1672.50   17.46
  -6  -2  -1 1510.37   19.25
  -6   2  -1 1538.68   16.00
  -6  -2   0  236.78    6.88
  -6   2   0  244.19    6.63
  -6  -2   0  260.93    8.33
  -6   2   0  258.35    6.59
  -6  -2   0  260.66    8.14
  -6   2   1 1530.79   15.38
  -6  -2   1 1546.09   19.19
  -6   2   1 1577.67   15.40
  -6  -2   1 1553.58   19.01
  -6  -2   2  164.38    6.53
  -6   2   2  163.48    5.07
  -6  -2   2  155.81    6.26
  -6   2   2  162.46    5.00
  -6  -2   3 1460.67   18.40
  -6   2   3 1498.60   14.81
  -6  -2   3 1474.23   18.27
  -6   2   3 1520.46   14.83
  -6   2   4  181.82    5.26
   6   2   4  183.44    5.83
  -6  -2   4  174.82    6.78
  -6   2   4  174.38    5.24
  -6  -2   4  172.09    6.66
  -6  -2   5 1037.31   15.54
  -6   2   5 1014.01   12.00
  -6  -2   5 1018.31   15.65
  -6   2   5 1007.20   11.98
  -6  -2   6   65.28    4.44
   6   2   6   70.04    3.95
  -6   2   6   71.63    3.70
  -6  -2   6   65.23    4.49
  -6   2   6   75.85    3.81
  -6  -2   7  464.94   10.71
  -6   2   7  474.89    9.02
  -6  -2   7  456.48   10.76
  -6   2   7  463.53    8.87
   6   2   8   92.05    4.68
  -6  -2   8   92.67    5.50
  -6   2   8   90.04    4.35
  -6  -2   8   93.04    5.40
  -6   2   8   97.81    4.52
   6   2   9   90.36    4.78
  -6  -2   9   82.36    5.33
  -6   2   9   89.81    4.74
  -6  -2   9   93.41    5.68
  -6   2   9   85.75    4.65
   6   2  10   20.73    3.12
  -6   2  10   18.92    3.05
  -6  -2  10   17.12    3.36
  -6   2  10   13.33    2.86
  -6  -2  10   15.30    3.25
  -6  -2  11   99.71    6.21
  -6   2  11   96.74    5.42
  -6  -2  11   99.38    6.32
  -6   2  11   86.50    5.20
  -6  -2  12   31.71    4.39
  -6   2  12   25.89    3.95
  -6  -2  12   36.48    4.82
  -6   2  12   30.24    4.03
  -6  -3 -11   -0.24    4.11
  -6  -3 -10  179.52    9.02
  -6  -3  -9   21.11    4.37
  -6   3  -8  893.08   15.79
  -6  -3  -8 1020.83   19.12
  -6  -3  -7   14.00    3.48
  -6   3  -7    9.85    2.81
  -6   3  -6  218.73    7.86
  -6  -3  -6  232.32    9.04
   6  -3  -6  236.21    7.16
  -6   3  -5   66.53    4.53
   6  -3  -5   60.63    3.91
  -6  -3  -5   65.98    5.15
   6  -3  -4 2232.36   18.15
  -6  -3  -4 2258.86   25.71
  -6   3  -4 2123.85   18.98
  -6   3  -4 2045.92   19.58
  -6   3  -3   64.92    3.77
   6  -3  -3   64.21    3.58
  -6  -3  -3   71.29    5.19
  -6   3  -3   72.37    4.25
  -6   3  -2  959.40   11.99
  -6  -3  -2  921.36   15.94
  -6  -3  -2  927.89   15.77
  -6   3  -1  106.72    4.24
  -6   3  -1  107.79    4.62
  -6  -3  -1  111.90    5.92
  -6   3  -1  125.06    4.95
  -6  -3  -1  104.67    5.64
  -6   3   0 6553.00   31.52
  -6  -3   0 6450.05   41.67
  -6   3   0 6407.60   29.73
  -6   3   0 6560.31   30.46
  -6  -3   0 6354.07   40.91
  -6   3   1  112.95    4.15
  -6  -3   1  108.25    5.63
  -6   3   1  103.65    3.91
  -6  -3   2  855.46   14.96
  -6   3   2  983.24   10.87
  -6  -3   2  864.58   14.81
  -6   3   2  979.32   10.75
  -6   3   3   69.09    3.13
   6   3   3   68.96    4.22
  -6  -3   3   71.39    4.81
  -6   3   3   74.18    3.31
  -6  -3   3   70.05    4.67
  -6  -3   4 2276.82   24.00
  -6   3   4 2284.19   15.98
   6   3   4 2251.17   21.06
  -6  -3   4 2302.75   24.41
  -6   3   4 2258.69   15.94
  -6  -3   5   65.43    4.74
   6   3   5   63.29    3.92
  -6   3   5   68.26    3.13
  -6  -3   5   62.49    4.77
  -6   3   5   66.38    3.14
  -6  -3   6  224.93    7.99
  -6  -3   6  218.72    7.98
  -6   3   6  229.31    5.56
   6   3   7   16.36    2.91
  -6   3   7   18.50    2.30
  -6   3   7   16.56    2.29
  -6  -3   7   20.92    3.44
  -6  -3   7   18.84    3.17
   6   3   8 1014.22   15.47
  -6  -3   8  991.79   16.79
  -6   3   8  977.25   12.80
  -6  -3   8  979.83   16.77
   6   3   9   17.98    3.16
  -6   3   9   17.84    2.64
  -6  -3   9   28.30    4.09
  -6  -3   9   19.14    3.56
  -6   3   9   16.84    2.58
   6   3  10  193.03    7.61
  -6  -3  10  179.77    8.09
  -6  -3  10  182.34    8.05
  -6  -3  11    3.95    3.09
  -6  -3  11    9.58    3.21
  -6  -4 -10   16.87    4.35
  -6  -4  -9   20.50    4.24
  -6   4  -8   36.54    4.11
  -6  -4  -8   46.15    5.40
  -6  -4  -7    2.45    3.32
  -6   4  -7   -0.73    2.44
  -6  -4  -6   27.27    4.12
  -6   4  -6   27.69    3.65
  -6   4  -5   41.51    3.88
  -6  -4  -5   45.57    4.83
  -6  -4  -4   63.86    5.48
  -6   4  -4   67.52    4.66
  -6  -4  -3   27.30    3.69
  -6  -4  -3   29.83    4.02
  -6   4  -3   34.54    3.30
  -6   4  -3   27.84    2.66
  -6   4  -3   23.24    2.57
  -6  -4  -2   50.20    4.66
  -6   4  -2   57.74    3.64
  -6  -4  -2   52.85    4.69
  -6   4  -2   49.02    2.96
  -6   4  -2   50.34    3.03
  -6   4  -1  204.70    5.91
  -6  -4  -1  205.13    8.11
  -6   4  -1  221.79    5.74
  -6  -4  -1  212.28    7.98
  -6   4  -1  213.95    4.96
  -6   4  -1  227.55    5.35
  -6   4   0   64.16    2.89
  -6   4   0   60.81    3.19
  -6  -4   0   65.86    4.97
  -6   4   0   58.79    3.03
  -6  -4   0   63.88    4.79
  -6   4   1  226.18    4.75
  -6  -4   1  197.70    7.73
  -6   4   1  220.47    4.65
  -6  -4   1  201.18    7.61
  -6   4   1  208.36    4.77
  -6   4   2   50.48    2.34
   6   4   2   51.91    3.86
  -6   4   2   61.76    2.58
  -6  -4   2   61.34    4.80
  -6   4   2   61.85    2.42
  -6  -4   2   49.66    4.44
  -6   4   3   29.26    1.85
   6   4   3   28.03    3.35
  -6  -4   3   26.24    3.65
  -6   4   3   32.08    1.79
  -6  -4   3   24.12    3.49
  -6  -4   4   58.43    4.62
   6   4   4   65.55    4.27
  -6   4   4   66.46    2.47
  -6  -4   4   61.60    4.76
  -6   4   4   66.50    2.49
  -6  -4   5   45.83    4.39
   6   4   5   42.41    3.90
  -6   4   5   42.72    2.19
  -6  -4   5   41.16    4.29
  -6   4   5   46.59    2.25
  -6  -4   6   33.09    4.03
   6   4   6   26.00    3.47
  -6  -4   6   28.11    3.92
   6   4   7    4.92    2.44
  -6  -4   7   -0.88    2.67
  -6  -4   7    2.71    2.81
   6   4   8   48.80    4.27
  -6  -4   8   41.10    4.42
  -6  -4   8   47.40    4.75
   6   4   9   17.33    3.33
  -6  -4   9   17.67    3.64
  -6  -4   9   14.64    3.53
   6   4  10    7.95    3.18
  -6  -4  10    8.52    3.54
  -6  -4  10    6.06    3.32
  -6  -5  -9   11.70    4.35
  -6   5  -8  351.31   10.51
  -6  -5  -8  425.76   13.48
  -6  -5  -7    8.15    3.57
  -6   5  -7   10.27    3.22
  -6   5  -6  257.40    8.60
  -6  -5  -6  289.03   11.12
  -6  -5  -6  283.23   10.80
  -6   5  -5   28.27    3.69
  -6  -5  -5   34.90    4.67
  -6  -5  -5   30.10    4.47
  -6  -5  -4  529.78   13.54
  -6   5  -4  521.58   10.66
  -6  -5  -4  511.07   13.16
  -6   5  -3   10.43    2.85
  -6  -5  -3   10.68    3.41
  -6  -5  -3   19.79    4.12
  -6  -5  -2  191.31    8.17
  -6  -5  -2  194.51    8.13
  -6   5  -1   13.81    1.86
  -6  -5  -1   19.07    3.56
  -6  -5  -1   18.26    3.77
  -6  -5   0 1129.80   18.32
  -6  -5   0 1166.33   18.30
  -6  -5   1   25.59    3.73
  -6  -5   1   29.07    3.85
   6   5   2  185.31    7.31
  -6  -5   2  179.24    7.60
  -6  -5   2  174.58    7.51
   6   5   3   14.90    3.03
  -6  -5   3    4.88    2.92
  -6  -5   3    9.27    3.30
  -6  -5   4  512.57   12.35
   6   5   4  484.53   11.51
  -6  -5   4  490.20   12.31
   6   5   5   23.72    3.56
  -6  -5   5   31.13    4.10
  -6  -5   5   23.22    3.78
  -6  -5   6  283.44    9.77
  -6  -5   6  272.24    9.63
   6   5   7    6.40    2.94
  -6  -5   7    5.30    3.20
  -6  -5   7    9.41    3.41
   6   5   8  416.10   11.57
  -6  -5   8  415.54   12.20
  -6  -5   8  417.31   12.17
   6   5   9    7.91    3.25
  -6  -5   9   22.10    4.29
  -6  -5   9   16.52    3.97
  -6  -6  -7   91.66    7.42
  -6  -6  -7   94.28    7.13
  -6  -6  -6   14.29    4.11
  -6  -6  -6   27.05    4.78
  -6  -6  -5  301.63   11.08
  -6  -6  -5  295.18   10.69
  -6  -6  -4    7.72    3.68
  -6  -6  -4    8.48    4.20
  -6  -6  -3  103.94    6.78
  -6  -6  -3  113.81    6.78
  -6  -6  -2   21.96    3.99
  -6  -6  -2   26.55    4.20
  -6  -6  -1  199.82    8.44
  -6  -6  -1  195.55    8.20
  -6  -6   0    6.93    2.92
  -6  -6   0    6.44    3.35
  -6  -6   1  207.15    8.41
  -6  -6   1  211.88    8.32
   6   6   2   16.41    3.37
  -6  -6   2   16.71    3.72
  -6  -6   3  113.93    6.34
   6   6   3  114.21    6.39
  -6  -6   3  120.01    6.60
   6   6   4    9.96    3.16
  -6  -6   4    4.87    3.10
  -6  -6   4    3.11    3.07
  -6  -6   5  292.15    9.98
   6   6   5  300.68   10.07
  -6  -6   5  310.88   10.38
   6   6   6   22.94    3.76
  -6  -6   6   26.63    4.30
  -6  -6   6   22.10    3.98
   6   6   7   93.80    6.36
  -6  -6   7  103.95    6.74
  -6  -6   7  106.51    6.70
  -6  -7  -4  127.63    8.15
  -6  -7  -4  132.84    7.92
  -6  -7  -3  118.55    7.36
  -6  -7  -3  117.49    7.07
  -6  -7  -2  348.04   11.49
  -6  -7  -2  334.65   11.19
  -6  -7  -1  105.64    6.79
  -6  -7  -1   96.40    6.55
  -6  -7   0   72.36    5.88
  -6  -7   0   69.93    5.56
  -6  -7   1   96.28    6.75
  -6  -7   1  100.68    6.70
  -6  -7   2  352.74   10.97
   6   7   2  351.39   11.42
  -6  -7   2  339.43   11.08
  -6  -7   3  109.26    6.82
   6   7   3  101.55    6.71
  -6  -7   3  120.17    7.25
  -6  -7   4  131.51    7.42
   6   7   4  130.23    7.53
  -6  -7   4  141.26    7.56
  -7   0 -11    6.80    4.10
  -7   0 -10    0.17    3.53
  -7   0  -9    1.89    3.13
  -7   0  -8   -1.11    3.09
  -7   0  -7    0.71    3.00
  -7   0  -6    6.50    3.01
  -7   0  -5    4.69    2.99
  -7   0  -4    2.45    3.08
  -7   0  -3   -3.93    2.61
  -7   0  -3   -0.66    1.78
  -7   0  -2    2.49    2.65
  -7   0  -2    0.35    2.05
  -7   0  -2   -0.35    2.68
  -7   0  -1    2.57    2.45
  -7   0  -1    3.37    2.12
  -7   0  -1    3.84    2.65
  -7   0   0   -1.12    2.22
  -7   0   0   -2.46    2.16
  -7   0   0    0.56    2.35
  -7   0   1   -2.65    2.41
  -7   0   1   -1.43    2.26
  -7   0   1    3.67    2.56
  -7   0   2   -0.82    2.26
  -7   0   2    0.08    2.36
  -7   0   3   -0.29    2.20
  -7   0   3   -4.11    2.35
  -7   0   4   -0.41    2.14
  -7   0   4    1.27    2.15
  -7   0   5   -4.80    2.24
  -7   0   5    0.73    2.18
  -7   0   6    3.03    2.22
  -7   0   6   -2.68    2.19
  -7   0   7   -0.44    2.16
  -7   0   7   -2.74    2.37
  -7   0   8    1.00    2.21
  -7   0   8    4.30    2.38
  -7   0   9   -0.92    2.48
  -7   0   9   -1.49    2.49
  -7   0  10    0.06    2.50
  -7   0  10   -0.48    2.60
  -7   0  11    4.32    2.94
  -7   0  11    2.77    2.90
  -7   1 -11  168.88    8.84
  -7  -1 -11  198.90    9.70
  -7   1 -10  385.66   12.26
  -7  -1 -10  402.67   12.99
  -7   1  -9  382.45   12.07
  -7  -1  -9  437.09   13.61
  -7   1  -8   64.00    5.50
  -7  -1  -8   61.49    5.45
  -7   1  -7  773.75   15.80
  -7  -1  -7  740.28   16.03
  -7   1  -6  478.42   12.14
  -7  -1  -6  441.78   12.19
  -7   1  -5  238.80    8.57
  -7  -1  -5  267.88    9.67
  -7   1  -4   56.38    4.74
  -7  -1  -4   61.01    4.92
  -7  -1  -4   56.72    3.73
  -7  -1  -3  729.04   11.68
  -7   1  -3  698.23   13.52
  -7  -1  -3  699.54   14.23
  -7  -1  -2  338.72    8.21
  -7   1  -2  342.58    6.97
  -7  -1  -2  333.67   10.09
  -7   1  -2  360.62    9.72
  -7  -1  -2  360.34   10.55
  -7   1  -1 1353.36   14.28
  -7   1  -1 1320.62   17.55
  -7  -1  -1 1316.38   18.90
  -7   1  -1 1327.32   17.23
  -7  -1  -1 1361.05   18.86
  -7  -1   0   47.37    3.77
  -7   1   0   46.26    3.49
  -7   1   0   50.86    4.03
  -7  -1   0   40.56    4.06
  -7   1   0   48.84    3.81
  -7  -1   0   41.19    3.96
  -7   1   1 1310.65   16.68
  -7  -1   1 1310.17   18.23
  -7   1   1 1321.87   16.55
  -7  -1   1 1309.95   17.97
  -7  -1   2  330.94    9.26
  -7   1   2  330.80    8.34
  -7  -1   2  336.93    9.21
  -7   1   2  319.43    8.10
  -7  -1   3  638.96   12.54
  -7   1   3  656.05   11.40
  -7  -1   3  647.71   12.42
  -7   1   3  662.73   11.28
  -7   1   4   65.76    3.99
  -7  -1   4   66.72    4.70
  -7   1   4   62.85    4.03
  -7  -1   4   56.61    4.35
  -7  -1   5  252.75    7.92
  -7   1   5  259.06    7.33
  -7   1   5  271.65    7.52
  -7  -1   6  474.64   10.90
  -7   1   6  451.83    9.59
  -7  -1   6  486.46   11.04
  -7   1   6  469.39    9.73
  -7  -1   7  781.37   14.01
  -7   1   7  809.49   13.02
  -7  -1   7  803.64   14.22
  -7   1   7  787.41   12.75
  -7  -1   8   67.39    4.71
  -7   1   8   62.95    4.32
  -7  -1   8   65.95    4.75
  -7   1   8   70.04    4.54
  -7  -1   9  416.76   10.98
  -7   1   9  415.39   10.09
  -7  -1   9  421.65   10.99
  -7   1   9  413.73   10.06
  -7  -1  10  421.16   11.42
  -7   1  10  411.94   10.53
  -7  -1  10  402.76   11.09
  -7   1  10  404.08   10.36
  -7  -1  11  199.89    8.51
  -7   1  11  182.62    7.63
  -7   1  11  197.69    7.75
  -7   2 -10  124.43    7.45
  -7  -2 -10  128.22    8.44
  -7   2  -9   63.68    5.63
  -7  -2  -9   78.96    6.69
  -7   2  -8   33.17    4.33
  -7  -2  -8   33.20    4.92
  -7   2  -7   40.36    4.44
  -7  -2  -7   45.42    5.17
  -7   2  -6  565.66   13.33
  -7  -2  -6  577.30   14.62
  -7   2  -5  127.77    6.24
  -7  -2  -5  148.53    7.47
  -7   2  -4  317.67    9.33
  -7  -2  -4  321.25   10.40
  -7  -2  -3  111.99    6.61
   7  -2  -3  108.16    5.41
  -7   2  -3  108.99    5.68
  -7  -2  -3  117.03    6.66
   7  -2  -2  816.14   12.89
  -7  -2  -2  851.07   16.01
  -7  -2  -2  853.54   15.72
  -7   2  -1  236.09    5.98
   7  -2  -1  249.14    7.20
  -7   2  -1  246.40    7.58
  -7  -2  -1  268.93    9.16
  -7   2  -1  258.15    7.53
  -7  -2  -1  257.71    8.91
  -7  -2   0   24.00    3.69
  -7   2   0   21.15    2.93
  -7  -2   0   21.87    3.59
  -7   2   0   17.92    2.78
  -7   2   1  246.35    7.16
  -7  -2   1  256.19    8.69
  -7   2   1  243.67    6.96
  -7  -2   1  245.19    8.36
  -7  -2   2  877.14   15.43
  -7   2   2  869.34   12.60
  -7  -2   2  868.29   15.19
  -7   2   2  866.83   12.41
  -7  -2   3  104.12    5.72
  -7   2   3  114.38    4.96
  -7  -2   3  109.36    5.81
  -7   2   3  114.00    4.84
  -7   2   4  341.10    7.81
  -7  -2   4  307.61    9.47
  -7   2   4  329.43    7.82
  -7  -2   4  320.12    9.48
  -7  -2   5  131.78    6.26
  -7   2   5  137.59    5.20
  -7  -2   5  122.67    6.24
  -7   2   5  137.20    5.30
  -7  -2   6  556.07   12.34
  -7   2   6  561.66   10.06
  -7  -2   6  551.29   12.39
  -7   2   6  548.27    9.94
  -7  -2   7   36.95    3.98
   7   2   7   46.24    3.87
  -7   2   7   40.33    3.38
  -7  -2   7   40.82    4.21
  -7   2   7   37.29    3.26
   7   2   8   39.56    3.67
  -7  -2   8   40.63    4.26
  -7   2   8   39.29    3.45
  -7  -2   8   36.05    4.08
  -7   2   8   42.45    3.54
   7   2   9   69.41    4.49
  -7  -2   9   67.78    5.33
  -7   2   9   65.83    4.47
  -7  -2   9   66.42    5.33
  -7   2   9   59.44    4.21
  -7  -2  10  144.88    7.41
  -7   2  10  118.93    5.84
  -7  -2  10  149.57    7.57
  -7   2  10  126.85    6.07
  -7   3 -10   13.10    3.99
  -7  -3 -10   19.67    4.82
  -7   3  -9   31.00    4.41
  -7  -3  -9   33.40    5.28
  -7   3  -8   24.87    4.08
  -7  -3  -8   28.34    4.97
  -7   3  -7   82.79    5.79
  -7  -3  -7   97.74    6.93
  -7   3  -6   27.80    3.96
  -7  -3  -6   31.29    4.66
  -7   3  -5   84.67    5.64
  -7  -3  -5   90.85    6.25
  -7   3  -4   20.05    3.23
  -7  -3  -4   21.81    4.26
  -7  -3  -4   16.31    4.02
   7  -3  -3  167.67    5.84
  -7  -3  -3  158.49    7.82
  -7   3  -3  175.11    6.94
  -7  -3  -3  177.00    7.97
  -7   3  -2    8.52    2.86
  -7  -3  -2   13.84    3.57
  -7  -3  -2    7.75    3.10
  -7   3  -2    6.98    2.55
  -7   3  -1  169.61    6.41
  -7  -3  -1  167.72    7.68
  -7   3  -1  179.89    6.29
  -7  -3  -1  161.37    7.34
  -7   3   0    0.28    2.20
  -7  -3   0    4.44    2.79
  -7   3   0    3.27    2.16
  -7   3   0    4.25    2.32
  -7  -3   0    2.45    2.72
  -7  -3   1  162.45    7.32
  -7   3   1  180.57    5.75
  -7   3   1  151.81    5.62
  -7  -3   1  173.14    7.34
  -7   3   1  182.73    5.69
  -7  -3   2    8.20    2.90
  -7   3   2    9.82    2.20
  -7  -3   2    8.54    3.04
  -7   3   2    8.35    2.17
  -7  -3   3  159.91    7.16
  -7   3   3  173.54    5.35
  -7  -3   3  169.49    7.26
  -7   3   4   21.18    2.43
  -7  -3   4   17.40    3.36
  -7  -3   4   15.45    3.52
  -7   3   4   16.94    2.30
  -7  -3   5   78.06    5.37
  -7   3   5   84.05    3.89
   7   3   5   92.27    5.14
  -7  -3   5   74.26    5.30
  -7   3   5   81.02    3.81
  -7  -3   6   26.54    3.72
   7   3   6   26.59    3.39
  -7   3   6   28.99    2.75
  -7  -3   6   26.72    3.87
  -7   3   6   29.48    2.77
  -7  -3   7   89.43    5.86
   7   3   7   89.76    5.10
  -7   3   7   89.02    4.28
  -7  -3   7   84.44    5.81
  -7   3   7   83.63    4.28
   7   3   8   28.28    3.32
  -7  -3   8   26.60    3.86
  -7  -3   8   19.01    3.78
   7   3   9   39.83    4.22
  -7  -3   9   36.20    4.36
  -7  -3   9   35.62    4.43
  -7  -3  10   16.45    3.90
  -7  -3  10   18.46    3.90
  -7   4  -9   40.99    4.95
  -7  -4  -9   64.27    6.55
  -7   4  -8  103.97    6.60
  -7  -4  -8  140.74    8.50
  -7   4  -7   97.63    6.30
  -7  -4  -7   92.31    7.18
  -7   4  -6  754.12   15.37
  -7  -4  -6  732.50   17.12
  -7  -4  -5   45.14    5.31
  -7   4  -5   40.98    4.33
  -7  -4  -4  486.27   13.70
  -7   4  -4  533.35   12.00
  -7  -4  -4  502.99   13.64
  -7  -4  -3   62.82    5.72
  -7   4  -3   58.60    4.46
  -7  -4  -3   71.08    5.75
  -7   4  -2 1219.63   16.50
  -7  -4  -2 1030.16   19.07
  -7   4  -2 1254.11   16.80
  -7  -4  -2 1057.94   18.81
  -7   4  -1   84.15    4.47
  -7  -4  -1   68.98    5.59
  -7   4  -1   84.15    4.36
  -7  -4  -1   76.54    5.75
  -7   4   0  131.52    4.89
  -7  -4   0  122.72    6.76
  -7   4   0  140.29    4.87
  -7  -4   0  114.29    6.43
  -7  -4   1   66.92    5.30
  -7   4   1   73.90    3.52
  -7  -4   1   66.28    5.12
  -7   4   1   68.75    3.45
  -7   4   2 1136.44   11.79
  -7  -4   2 1095.95   18.93
  -7  -4   2 1119.82   18.98
  -7  -4   3   63.95    5.10
  -7  -4   3   61.28    5.08
  -7  -4   4  516.90   12.84
   7   4   4  486.03   11.39
  -7  -4   4  499.76   12.70
  -7  -4   5   36.96    4.52
   7   4   5   36.50    4.02
  -7  -4   5   34.43    4.57
  -7  -4   6  699.71   15.03
  -7  -4   6  674.28   14.83
  -7  -4   7   94.80    6.25
   7   4   7   92.62    5.61
  -7  -4   7  110.34    6.67
   7   4   8  145.71    7.06
  -7  -4   8  138.46    7.37
  -7  -4   8  154.65    7.80
   7   4   9   62.23    5.23
  -7  -5  -7  173.81    9.91
  -7  -5  -7  165.17    9.56
  -7  -5  -6   46.21    5.77
  -7  -5  -6   34.68    5.20
  -7  -5  -5   -1.37    3.36
  -7  -5  -5   -4.21    3.50
  -7  -5  -4   20.73    4.27
  -7  -5  -4   14.05    3.78
  -7  -5  -3   35.43    4.73
  -7  -5  -3   27.47    4.60
  -7  -5  -2   24.88    4.40
  -7  -5  -2   27.83    4.59
  -7  -5  -1  201.13    8.85
  -7  -5  -1  184.89    8.59
  -7  -5   0   -1.36    3.08
  -7  -5   0    6.92    3.58
  -7  -5   1  186.50    8.19
  -7  -5   1  188.37    8.15
  -7  -5   2   24.11    4.04
  -7  -5   2   27.23    4.23
  -7  -5   3   26.81    4.21
  -7  -5   3   37.84    4.69
   7   5   4   12.53    3.30
  -7  -5   4    7.91    3.34
  -7  -5   4   14.45    3.83
   7   5   5    6.56    2.95
  -7  -5   5    0.95    3.22
  -7  -5   5    1.13    3.16
  -7  -5   6   36.30    4.70
   7   5   6   28.18    3.95
  -7  -5   6   36.84    4.86
  -7  -5   7  142.97    7.63
   7   5   7  161.88    7.63
  -7  -5   7  162.31    8.11
  -7  -6  -5  106.50    7.86
  -7  -6  -5  102.56    7.60
  -7  -6  -4  211.24   10.02
  -7  -6  -4  229.34   10.16
  -7  -6  -3   71.11    6.36
  -7  -6  -3   68.90    6.26
  -7  -6  -2  308.36   11.19
  -7  -6  -2  316.94   11.12
  -7  -6  -1   54.81    5.38
  -7  -6  -1   59.06    5.45
  -7  -6   0  305.74   10.83
  -7  -6   0  315.25   10.75
  -7  -6   1   64.52    5.79
  -7  -6   1   68.14    5.72
  -7  -6   2  333.22   11.35
  -7  -6   2  341.96   11.41
  -7  -6   3   73.24    5.85
   7   6   3   73.97    5.72
  -7  -6   3   60.29    5.61
  -7  -6   4  254.90    9.97
   7   6   4  240.08    9.55
  -7  -6   4  230.43    9.63
  -7  -6   5  107.21    6.94
   7   6   5  108.52    6.95
  -7  -6   5  112.75    7.05
  -8   0  -9  303.80   11.69
  -8   0  -8  866.88   18.61
  -8   0  -7  188.75    8.95
  -8   0  -6  160.25    8.26
  -8   0  -5  845.83   17.37
  -8   0  -4  463.93   12.48
  -8   0  -3  399.27   12.26
  -8   0  -3  426.02   12.09
  -8   0  -2    6.54    2.97
  -8   0  -2    6.02    3.00
  -8   0  -1  492.56   12.40
  -8   0  -1  523.93   12.66
  -8   0   0   28.69    3.85
  -8   0   0   21.88    3.53
  -8   0   1  471.33   11.52
  -8   0   1  509.47   11.76
  -8   0   2    3.43    2.45
  -8   0   2    3.72    2.48
  -8   0   3  372.02    9.97
  -8   0   3  370.11    9.79
  -8   0   4  494.07   11.47
  -8   0   4  500.06   11.51
  -8   0   5  825.59   14.36
  -8   0   5  797.41   14.29
  -8   0   6  152.45    6.59
  -8   0   6  145.85    6.49
  -8   0   7  191.26    7.28
  -8   0   7  194.41    7.41
  -8   0   8  917.92   15.94
  -8   0   8  937.08   16.11
  -8   0   9  316.39    9.91
  -8   0   9  316.80    9.93
  -8   1  -9   18.13    4.50
  -8  -1  -9   22.40    4.80
  -8   1  -8  211.02    9.52
  -8  -1  -8  211.36    9.67
  -8  -1  -7   23.30    4.59
  -8   1  -7   20.07    4.05
  -8   1  -6   89.78    6.28
  -8  -1  -6  110.92    7.29
  -8  -1  -5   20.61    4.17
  -8   1  -5   28.21    4.36
  -8   1  -4   83.21    5.86
  -8  -1  -4   85.13    6.23
  -8  -1  -3   25.66    4.12
  -8  -1  -3   32.28    4.57
  -8   1  -3   29.59    3.93
  -8   1  -2    9.08    3.13
  -8  -1  -2    8.80    3.12
  -8   1  -2    2.96    2.98
  -8  -1  -2    9.90    3.21
  -8   1  -1   13.84    3.10
  -8  -1  -1   22.76    3.91
  -8  -1  -1   19.98    3.93
  -8   1   0    1.50    2.56
  -8  -1   0    1.57    2.71
  -8   1   0   -2.62    2.50
  -8   1   0    4.92    2.85
  -8  -1   0    1.01    2.78
  -8   1   1   12.43    2.89
  -8  -1   1   16.05    3.26
  -8   1   1   18.82    3.21
  -8  -1   1   20.72    3.57
  -8  -1   2    7.01    2.65
  -8   1   2    7.44    2.63
  -8  -1   2    7.26    2.83
  -8   1   2    2.73    2.54
  -8  -1   3   26.30    3.52
  -8   1   3   33.26    3.60
  -8  -1   3   26.22    3.48
  -8   1   3   27.14    3.23
  -8   1   4   79.85    4.78
  -8  -1   4   74.47    5.20
  -8   1   4   80.57    4.80
  -8  -1   4   89.43    5.56
  -8  -1   5   23.50    3.52
  -8   1   5   24.39    3.26
  -8  -1   5   21.12    3.55
  -8   1   5   24.91    3.30
  -8  -1   6  107.25    5.95
  -8   1   6  114.35    5.62
  -8  -1   6  108.83    5.88
  -8   1   6  112.39    5.56
  -8  -1   7   30.80    3.91
  -8   1   7   27.67    3.45
  -8  -1   7   31.75    4.03
  -8   1   7   26.92    3.40
  -8  -1   8  218.24    8.31
  -8   1   8  224.29    7.81
  -8  -1   8  214.45    8.25
  -8   1   8  222.99    7.76
  -8  -1   9   25.92    3.90
  -8   1   9   24.77    3.72
  -8  -1   9   26.06    3.98
  -8   1   9   23.87    3.57
  -8   2  -9  127.84    7.96
  -8  -2  -9  147.81    8.68
  -8   2  -8  205.21    9.57
  -8  -2  -8  215.47   10.29
  -8   2  -7  180.19    8.59
  -8  -2  -7  183.83    9.58
  -8   2  -6   96.24    6.34
  -8  -2  -6  109.65    7.26
  -8   2  -5  499.65   13.32
  -8  -2  -5  513.64   14.14
  -8  -2  -4  113.76    7.31
  -8   2  -4  116.16    6.67
  -8  -2  -3  358.83   11.74
  -8   2  -3  387.51   11.12
  -8  -2  -3  353.43   11.46
  -8   2  -2  119.17    6.53
  -8  -2  -2  121.84    7.02
  -8   2  -2  104.68    5.99
  -8  -2  -2  110.55    6.55
  -8   2  -1  383.81   10.69
  -8  -2  -1  365.28   11.42
  -8   2  -1  392.80   10.59
  -8  -2  -1  367.60   11.24
  -8   2   0   52.53    4.34
  -8  -2   0   57.60    5.06
  -8   2   0   57.41    4.30
  -8  -2   0   64.57    5.25
  -8   2   1  387.48    9.72
  -8  -2   1  387.54   11.24
  -8   2   1  374.08    9.34
  -8  -2   1  382.08   11.04
  -8  -2   2  110.68    6.36
  -8   2   2  116.26    5.56
  -8  -2   2  108.05    6.27
  -8   2   2  107.61    5.30
  -8  -2   3  345.48   10.52
  -8   2   3  372.62    9.25
  -8  -2   3  344.94   10.34
  -8   2   3  371.17    9.14
  -8   2   4  125.66    5.46
  -8  -2   4  114.44    6.44
  -8   2   4  118.64    5.39
  -8  -2   4  129.67    6.83
  -8  -2   5  470.44   12.01
  -8   2   5  500.66   10.29
  -8  -2   5  492.77   12.46
  -8   2   5  494.34   10.32
  -8  -2   6   95.42    6.05
  -8   2   6   95.15    4.79
  -8  -2   6  102.28    6.26
  -8   2   6   84.81    4.71
  -8  -2   7  191.39    8.27
  -8   2   7  197.23    6.87
  -8  -2   7  182.31    8.23
  -8   2   7  181.25    6.54
  -8  -2   8  222.47    8.93
  -8   2   8  227.84    7.60
  -8  -2   8  222.02    8.91
  -8   2   8  211.45    7.38
  -8  -2   9  133.53    7.44
  -8  -2   9  158.31    7.94
  -8   3  -8  489.09   14.15
  -8  -3  -8  561.37   16.40
  -8   3  -7  307.82   11.19
  -8  -3  -7  348.58   12.74
  -8   3  -6  251.23    9.72
  -8  -3  -6  241.42   10.75
  -8  -3  -5  162.18    9.03
  -8   3  -5  178.73    8.31
  -8  -3  -5  183.00    9.51
  -8  -3  -4  202.95    9.39
  -8   3  -4  206.92    8.53
  -8  -3  -4  190.17    9.06
  -8  -3  -3  512.79   14.34
  -8  -3  -3  494.71   13.89
  -8   3  -2  362.71   10.31
  -8  -3  -2  367.90   12.19
  -8   3  -2  388.69   10.33
  -8  -3  -2  357.32   11.64
  -8   3  -1  236.09    8.18
  -8  -3  -1  247.36    9.88
  -8   3  -1  231.62    7.86
  -8  -3  -1  237.96    9.48
  -8   3   0  669.53   12.45
  -8  -3   0  667.43   15.51
  -8   3   0  667.56   12.33
  -8  -3   0  647.66   15.13
  -8  -3   1  236.93    9.25
  -8   3   1  243.75    7.39
  -8  -3   1  218.68    8.82
  -8   3   1  242.03    7.31
  -8  -3   2  332.52   10.70
  -8   3   2  354.51    8.48
  -8  -3   2  333.18   10.52
  -8   3   3  494.08    9.66
  -8  -3   3  481.64   12.83
  -8   3   3  504.17    9.82
  -8  -3   3  497.79   12.94
  -8   3   4  209.39    6.47
  -8  -3   4  214.67    8.97
  -8   3   4  213.95    6.49
  -8  -3   4  212.94    8.80
  -8  -3   5  166.54    7.77
  -8  -3   5  181.53    8.20
  -8  -3   6  286.97   10.14
  -8  -3   6  239.73    9.33
  -8  -3   7  320.18   10.89
  -8  -3   7  322.20   10.99
  -8  -3   8  558.52   13.92
  -8  -3   8  535.19   13.75
  -8  -4  -7  239.86   11.68
  -8   4  -7  210.14    9.58
  -8  -4  -7  221.52   10.92
  -8  -4  -6   31.33    5.60
  -8   4  -6   18.05    4.16
  -8  -4  -5  140.01    8.65
  -8   4  -5  139.93    7.69
  -8  -4  -5  128.07    8.20
  -8   4  -4    3.41    3.30
  -8  -4  -4    2.38    3.65
  -8  -4  -4    1.65    3.80
  -8   4  -3  219.77    8.89
  -8  -4  -3  194.94    9.56
  -8   4  -3  210.43    8.76
  -8  -4  -3  189.66    9.12
  -8  -4  -2   42.30    5.52
  -8  -4  -2   42.60    5.07
  -8  -4  -1  117.68    7.42
  -8  -4  -1  118.22    7.23
  -8  -4   0   38.94    5.04
  -8  -4   0   27.00    4.44
  -8  -4   1  116.10    7.06
  -8  -4   1  118.63    7.08
  -8  -4   2   43.39    5.07
  -8  -4   2   44.04    4.93
  -8  -4   3  204.27    9.00
  -8  -4   3  191.50    8.61
  -8  -4   4    7.82    3.23
  -8  -4   4    0.92    3.05
  -8  -4   5  139.86    7.45
  -8  -4   5  158.09    7.97
  -8  -4   6   26.98    4.29
  -8  -4   6   27.48    4.35
   8   4   7  241.46    9.36
  -8  -5  -5  109.16    8.09
  -8  -5  -5   82.02    7.19
  -8  -5  -4  145.50    8.95
  -8  -5  -4  141.41    8.74
  -8  -5  -3  106.75    7.68
  -8  -5  -3   94.42    7.19
  -8  -5  -2  140.01    8.60
  -8  -5  -2  136.43    8.26
  -8  -5  -1    5.33    3.72
  -8  -5  -1   13.80    4.24
  -8  -5   0  187.16    9.12
  -8  -5   0  204.14    9.28
  -8  -5   1   12.25    4.09
  -8  -5   1    9.34    3.93
  -8  -5   2  144.25    8.07
  -8  -5   2  147.90    8.09
  -8  -5   3  106.75    7.17
  -8  -5   3  106.00    7.17
  -8  -5   4  144.87    7.78
  -8  -5   4  150.61    8.16
  -9   0  -7   -5.37    4.28
  -9   0  -6    2.61    3.36
  -9   0  -5   -1.91    3.40
  -9   0  -4   -1.98    3.74
  -9   0  -4    0.75    3.70
  -9   0  -3    1.22    3.39
  -9   0  -3    3.67    3.46
  -9   0  -2    2.84    3.04
  -9   0  -2    5.80    3.63
  -9   0  -1   -2.77    3.44
  -9   0  -1   -4.36    3.40
  -9   0   0   -1.12    2.85
  -9   0   0   -2.46    2.89
  -9   0   1    3.66    2.83
  -9   0   1   -1.39    2.92
  -9   0   2    0.58    2.76
  -9   0   2   -5.89    3.07
  -9   0   3    1.19    2.73
  -9   0   3    8.76    2.95
  -9   0   4    1.36    2.58
  -9   0   4    5.91    2.95
  -9   0   5   -1.89    2.60
  -9   0   5    1.30    2.79
  -9   0   6   -1.39    2.87
  -9   0   6    0.01    2.85
  -9   0   7    2.29    3.00
  -9   0   7    0.36    2.93
  -9   1  -7  333.47   12.72
  -9  -1  -7  310.45   12.50
  -9   1  -6  401.38   13.25
  -9  -1  -6  388.31   13.38
  -9   1  -5  145.20    8.19
  -9  -1  -5  141.48    8.42
  -9   1  -4  273.92   11.15
  -9  -1  -4  265.21   11.11
  -9   1  -4  280.34   10.93
  -9  -1  -4  264.89   11.07
  -9   1  -3  156.06    8.08
  -9  -1  -3  150.04    8.25
  -9   1  -3  157.68    8.04
  -9  -1  -3  153.34    8.08
  -9   1  -2  411.89   12.34
  -9  -1  -2  404.04   12.83
  -9  -1  -2  431.27   13.09
  -9   1  -1  315.74   10.68
  -9  -1  -1  303.01   11.06
  -9   1  -1  323.87   10.55
  -9  -1  -1  330.09   11.18
  -9   1   0  113.57    6.59
  -9  -1   0  118.98    7.14
  -9   1   0  124.07    6.69
  -9  -1   0  115.56    6.83
  -9  -1   1  295.70   10.37
  -9   1   1  306.35    9.82
  -9  -1   1  321.40   10.46
  -9   1   1  312.77    9.78
  -9  -1   2  416.26   11.99
  -9   1   2  443.36   11.66
  -9  -1   2  433.32   12.09
  -9   1   2  444.83   11.52
  -9  -1   3  153.98    7.48
  -9   1   3  173.65    7.32
  -9  -1   3  156.37    7.48
  -9   1   3  159.56    6.95
  -9   1   4  240.54    8.25
  -9  -1   4  258.09    9.64
  -9   1   4  241.57    8.39
  -9  -1   4  247.58    9.30
  -9  -1   5  136.47    7.00
  -9   1   5  128.27    6.31
  -9  -1   5  153.14    7.45
  -9   1   5  137.55    6.64
  -9  -1   6  392.62   11.29
  -9   1   6  408.40   10.85
  -9  -1   6  383.93   11.27
  -9   1   6  419.28   11.06
  -9  -1   7  325.57   10.66
  -9   1   7  317.56    9.58
  -9  -1   7  336.36   10.88
  -9   1   7  323.34    9.80
  -9   2  -7   77.72    6.95
  -9   2  -6  156.41    9.03
  -9  -2  -6  167.12    9.57
  -9  -2  -5  152.29    9.38
  -9   2  -5  152.34    8.44
  -9   2  -4  161.08    9.03
  -9  -2  -4  174.82    9.29
  -9   2  -4  170.70    8.82
  -9  -2  -4  155.05    8.64
  -9   2  -3   21.89    4.43
  -9   2  -3   26.27    4.69
  -9  -2  -3   25.51    4.57
  -9  -2  -3   22.45    4.40
  -9   2  -2  132.78    7.47
  -9  -2  -2  118.33    7.65
  -9   2  -2  124.57    7.09
  -9  -2  -2  117.85    7.32
  -9   2  -1  229.70    9.14
  -9  -2  -1  245.33   10.32
  -9   2  -1  238.78    9.06
  -9  -2  -1  239.21    9.98
  -9   2   0    4.72    3.24
  -9  -2   0    5.81    3.33
  -9   2   0    9.62    3.45
  -9  -2   0    2.12    3.24
  -9  -2   1  215.38    9.16
  -9   2   1  217.29    8.20
  -9  -2   1  229.66    9.30
  -9   2   1  219.92    8.12
  -9  -2   2  118.13    6.98
  -9   2   2  124.34    6.26
  -9  -2   2  120.95    6.86
  -9   2   2  125.25    6.14
  -9  -2   3   16.04    3.55
  -9  -2   3   25.12    4.27
  -9   2   3   16.51    3.38
  -9   2   3   23.05    3.49
  -9   2   4  163.29    6.80
  -9  -2   4  148.82    7.88
  -9   2   4  162.43    6.76
  -9  -2   4  164.52    8.04
  -9  -2   5  155.63    7.82
  -9   2   5  152.76    6.53
  -9  -2   5  150.66    7.79
  -9   2   5  153.68    6.57
  -9  -2   6  166.99    8.11
  -9   2   6  155.58    6.50
  -9  -2   6  169.49    8.25
  -9   2   6  174.51    6.96
  -9  -2   7   77.88    6.04
  -9  -2   7   86.98    6.45
  -9  -3  -5   87.41    7.69
  -9   3  -5   90.92    7.05
  -9  -3  -5   98.68    7.56
  -9   3  -4   45.45    5.99
  -9  -3  -4   37.29    5.71
  -9   3  -4   43.91    5.61
  -9  -3  -4   44.03    5.53
  -9   3  -3   41.02    5.09
  -9  -3  -3   42.91    5.92
  -9   3  -3   43.29    4.83
  -9  -3  -3   55.49    6.06
  -9   3  -2   32.21    4.83
  -9  -3  -2   42.87    5.64
  -9   3  -2   35.34    4.66
  -9  -3  -2   42.78    5.28
  -9   3  -1   17.55    3.83
  -9  -3  -1   21.36    4.42
  -9   3  -1   24.38    4.23
  -9  -3  -1   19.36    4.31
  -9   3   0   46.34    4.56
  -9  -3   0   37.66    4.83
  -9   3   0   53.57    4.67
  -9  -3   0   47.52    5.07
  -9  -3   1   22.96    4.21
  -9   3   1   19.01    3.45
  -9   3   1   14.82    3.38
  -9  -3   2   28.53    4.75
  -9  -3   2   36.12    4.79
  -9  -3   3   51.93    5.29
  -9  -3   3   37.78    4.81
  -9  -3   4   40.13    4.83
  -9  -3   4   39.49    4.86
  -9  -3   5   90.02    6.46
  -9  -3   5   93.22    6.71
  -9  -4  -3   69.69    6.91
  -9  -4  -3   67.40    6.83
  -9  -4  -2  118.88    8.29
  -9  -4  -2  113.82    7.95
  -9  -4  -1  313.29   12.19
  -9  -4  -1  328.33   12.18
  -9  -4   0   69.98    6.53
  -9  -4   0   63.80    6.08
  -9  -4   1  314.89   11.82
  -9  -4   1  323.54   11.80
  -9  -4   2  116.68    7.68
  -9  -4   2   98.41    7.05
  -9  -4   3   64.91    6.10
  -9  -4   3   71.67    6.31
 -10   0  -4  498.94   15.58
 -10   0  -4  484.71   15.04
 -10   0  -3  277.42   11.65
 -10   0  -3  284.47   11.49
 -10   0  -2  293.22   11.82
 -10   0  -2  324.66   12.04
 -10   0  -1   92.19    7.13
 -10   0  -1   81.83    6.50
 -10   0   0 1378.58   23.16
 -10   0   0 1386.66   22.94
 -10   0   1   88.84    6.68
 -10   0   1   81.37    6.31
 -10   0   2  273.82   10.32
 -10   0   2  272.11   10.07
 -10   0   3  274.64   10.17
 -10   0   3  279.40   10.15
 -10   0   4  513.74   13.44
 -10   0   4  477.94   13.04
 -10   1  -4    6.44    4.48
 -10  -1  -4   13.26    4.86
 -10   1  -4   11.78    4.61
 -10  -1  -4    8.44    4.76
 -10   1  -3   40.73    5.68
 -10  -1  -3   47.63    5.97
 -10   1  -3   42.58    5.62
 -10  -1  -3   48.97    6.10
 -10   1  -2   47.36    6.05
 -10  -1  -2   48.62    6.00
 -10   1  -2   58.85    5.91
 -10  -1  -2   48.69    5.88
 -10  -1  -1   27.93    4.78
 -10   1  -1   35.66    5.04
 -10   1  -1   25.45    5.00
 -10  -1  -1   26.77    5.06
 -10   1   0    2.66    3.51
 -10  -1   0    3.11    3.74
 -10   1   0    7.59    3.83
 -10  -1   0    9.65    4.11
 -10  -1   1   28.18    4.56
 -10  -1   1   30.05    4.78
 -10   1   1   35.15    4.75
 -10   1   1   31.52    4.52
 -10  -1   2   43.90    5.49
 -10   1   2   49.77    5.15
 -10  -1   2   51.28    5.58
 -10   1   2   39.17    4.79
 -10  -1   3   43.65    5.05
 -10   1   3   52.34    5.33
 -10  -1   3   37.73    4.78
 -10   1   3   42.97    4.90
 -10  -1   4    4.65    3.55
 -10   1   4    7.66    3.33
 -10  -1   4    5.12    3.59
 -10   1   4   -0.68    3.25
 -10   2  -3   83.75    7.30
 -10  -2  -3   80.87    7.48
 -10   2  -3   73.02    6.65
 -10  -2  -3   90.15    7.33
 -10   2  -2  423.83   13.67
 -10  -2  -2  433.50   14.72
 -10   2  -2  438.38   13.55
 -10  -2  -2  431.44   14.38
 -10   2  -1    5.42    3.77
 -10  -2  -1   -3.88    4.06
 -10   2  -1   -3.47    3.82
 -10  -2  -1   -2.13    3.96
 -10  -2   0  941.63   20.33
 -10   2   0  942.32   18.49
 -10  -2   0  937.79   19.81
 -10   2   0  934.26   17.93
 -10  -2   1    1.65    3.70
 -10   2   1    1.25    3.35
 -10  -2   1   -1.30    3.79
 -10   2   1    0.82    3.77
 -10  -2   2  383.59   12.77
 -10   2   2  399.60   11.53
 -10  -2   2  389.11   12.65
 -10   2   2  425.11   11.75
 -10  -2   3   69.58    6.22
 -10  -2   3   80.36    6.36
   0   0   0    0.00    0.00
TITL kat1b in Pna2(1)
REM Pna2(1) (#33, found as Pbn2(1) in ba-c setting)
CELL 0.71073   8.069016   6.997019  11.700147  90.0000  90.0000  90.0000
ZERR    4.00   0.000244   0.000227   0.000630   0.0000   0.0000   0.0000
LATT -1
SYMM -x,-y, z+1/2
SYMM  x+1/2,-y+1/2, z
SYMM -x+1/2, y+1/2, z+1/2
SFAC C H N O P
UNIT 8.00 40.00 8.00 12.00 4.00
TREF
HKLF 4
END
_computing_structure_solution     'SHELXT 2014/5 (Sheldrick, 2014)'
;
_shelx_hkl_checksum              78941
_shelx_res_file
;
    jk010.res created by SHELXL-2014/7
TITL JK010_a.res in P1                New: Pna21
CELL  0.71073    8.0690    6.9970   11.7001    90.000    90.000    90.000
ZERR        4    0.0002    0.0002    0.0006     0.000     0.000     0.000
LATT  -1
SYMM             - X ,            - Y ,    0.50000 + Z
SYMM     0.50000 - X ,    0.50000 + Y ,    0.50000 + Z
SYMM     0.50000 + X ,    0.50000 - Y ,              Z
SFAC  C  H  N  O  P
UNIT   8 44 8 12 4
L.S. 4
FMAP 2
size 0.18 0.18 0.02
rem yellow plate
temp -173
PLAN 20
mpla 3 n1 c1 c2 n2
eqiv $1 1/2+x,1/2-y,z
htab n1 o1_$1
eqiv $2 x,y+1,z
htab n1 o1_$2
htab n1 o2
htab o3 o2_$1
ACTA
BOND $H
htab
CONF
TWIN
WGHT    0.037400    0.203000
BASF   0.15065
FVAR       1.18680
RESI 0
N1    3    0.541551    0.585179    0.225517    11.00000    0.00990    0.01076 =
         0.01889   -0.00033   -0.00011    0.00023
AFIX 137
H1N   2    0.645506    0.597211    0.196231    11.00000   -1.20000
H2N   2    0.477916    0.684809    0.201573    11.00000   -1.20000
H3N   2    0.496001    0.473457    0.201053    11.00000   -1.20000
AFIX   0
N2    3    0.549909    0.585277    0.349639    11.00000    0.01137    0.01424 =
         0.01798   -0.00070   -0.00074    0.00051
C1    1    0.380686    0.572370    0.393585    11.00000    0.01242    0.02058 =
         0.02363   -0.00162    0.00205   -0.00070
AFIX 137
H1A   2    0.316858    0.683408    0.367728    11.00000   -1.50000
H1B   2    0.383200    0.569921    0.477314    11.00000   -1.50000
H1C   2    0.328555    0.455129    0.365173    11.00000   -1.50000
AFIX   0
C2    1    0.647093    0.418600    0.384482    11.00000    0.01722    0.02088 =
         0.02368    0.00230   -0.00284    0.00499
AFIX 137
H2A   2    0.757546    0.425451    0.349894    11.00000   -1.50000
H2B   2    0.591225    0.301786    0.358965    11.00000   -1.50000
H2C   2    0.657592    0.416935    0.467923    11.00000   -1.50000
AFIX   0
P1    5    0.457973    0.059340    0.106151    11.00000    0.00737    0.00953 =
         0.01936    0.00036    0.00029    0.00031
AFIX  13  1.3200
H1    2    0.466575    0.052935   -0.006448    11.00000   -1.20000
AFIX   0
O1    4    0.358703   -0.110128    0.144091    11.00000    0.00966    0.01000 =
         0.02634    0.00134    0.00105   -0.00050
O2    4    0.392023    0.252626    0.137974    11.00000    0.00970    0.01120 =
         0.02865   -0.00226   -0.00106    0.00166
O3    4    0.637462    0.028464    0.153068    11.00000    0.00755    0.01273 =
         0.03858    0.00403   -0.00304   -0.00093
AFIX   3
H1O   2    0.705939    0.122385    0.141665    11.00000   -1.20000
AFIX   0
HKLF 4 1 -1.0000  0.0000  0.0000  0.0000  1.0000  0.0000  0.0000  0.0000 -1.0000
REM  JK010_a.res in P1                New: Pna21
REM R1 =  0.0249 for    1365 Fo > 4sig(Fo)  and  0.0258 for all    1395 data
REM     77 parameters refined using      1 restraints
END
WGHT      0.0375      0.2018
REM Instructions for potential hydrogen bonds
HTAB N1 O1_$1
HTAB N1 O1_$2
HTAB N1 O2
HTAB O3 O2_$1
REM Highest difference peak  0.235,  deepest hole -0.279,  1-sigma level  0.046
Q1    1   0.5297  0.0602  0.0322  11.00000  0.05    0.24
Q2    1   0.4379  0.1844  0.1116  11.00000  0.05    0.23
Q3    1   0.5470  0.0575  0.1762  11.00000  0.05    0.22
Q4    1   0.5632  0.0438  0.1020  11.00000  0.05    0.19
Q5    1   0.3885 -0.0279  0.1187  11.00000  0.05    0.18
Q6    1   0.4622  0.5612  0.3666  11.00000  0.05    0.18
Q7    1   0.4111 -0.0590  0.1050  11.00000  0.05    0.17
Q8    1   0.4650 -0.2113  0.1052  11.00000  0.05    0.16
Q9    1   0.4920  0.0631 -0.0460  11.00000  0.05    0.15
Q10   1   0.6820  0.0685  0.1563  11.00000  0.05    0.15
Q11   1   0.2733 -0.0987  0.0812  11.00000  0.05    0.14
Q12   1   0.5067  0.5917  0.2849  11.00000  0.05    0.14
Q13   1   0.3221  0.2740  0.1186  11.00000  0.05    0.13
Q14   1   0.3546  0.2455  0.1998  11.00000  0.05    0.13
Q15   1   0.6613 -0.0579  0.1446  11.00000  0.05    0.13
Q16   1   0.3267  0.4754  0.3932  11.00000  0.05    0.13
Q17   1   0.6261  0.3015  0.3793  11.00000  0.05    0.12
Q18   1   0.4168  0.3891  0.3586  11.00000  0.05    0.12
Q19   1   0.4750  0.2789  0.2255  11.00000  0.05    0.12
Q20   1   0.4258  0.2737  0.1461  11.00000  0.05    0.12
;
_shelx_res_checksum              19740
loop_
_space_group_symop_operation_xyz
'x, y, z'
'-x, -y, z+1/2'
'-x+1/2, y+1/2, z+1/2'
'x+1/2, -y+1/2, z'
loop_
_atom_site_type_symbol
_atom_site_label
_atom_site_fract_x
_atom_site_fract_y
_atom_site_fract_z
_atom_site_U_iso_or_equiv
_atom_site_adp_type
_atom_site_calc_flag
_atom_site_occupancy
N N1 0.5416(2) 0.5852(2) 0.22552(17) 0.0132(4) Uani d 1
H H1n 0.6455 0.5972 0.1962 0.016 Uiso calc 1
H H2n 0.4779 0.6848 0.2016 0.016 Uiso calc 1
H H3n 0.4960 0.4735 0.2011 0.016 Uiso calc 1
N N2 0.5499(2) 0.5853(3) 0.34964(17) 0.0145(4) Uani d 1
C C1 0.3807(3) 0.5724(3) 0.3936(3) 0.0189(5) Uani d 1
H H1a 0.3169 0.6834 0.3677 0.028 Uiso calc 1
H H1b 0.3832 0.5699 0.4773 0.028 Uiso calc 1
H H1c 0.3286 0.4551 0.3652 0.028 Uiso calc 1
C C2 0.6471(3) 0.4186(3) 0.3845(2) 0.0206(5) Uani d 1
H H2a 0.7575 0.4255 0.3499 0.031 Uiso calc 1
H H2b 0.5912 0.3018 0.3590 0.031 Uiso calc 1
H H2c 0.6576 0.4169 0.4679 0.031 Uiso calc 1
P P1 0.45797(6) 0.05934(7) 0.10615(6) 0.01209(15) Uani d 1
H H1 0.4666 0.0529 -0.0064 0.015 Uiso calc 1
O O1 0.35870(18) -0.1101(2) 0.14409(14) 0.0153(3) Uani d 1
O O2 0.39202(17) 0.2526(2) 0.13797(14) 0.0165(4) Uani d 1
O O3 0.63746(19) 0.0285(2) 0.15307(17) 0.0196(4) Uani d 1
H H1o 0.7059 0.1224 0.1417 0.024 Uiso d 1
loop_
_atom_site_aniso_label
_atom_site_aniso_U_11
_atom_site_aniso_U_22
_atom_site_aniso_U_33
_atom_site_aniso_U_12
_atom_site_aniso_U_13
_atom_site_aniso_U_23
N1 0.0099(8) 0.0108(8) 0.0189(10) 0.0002(6) -0.0001(7) -0.0003(7)
N2 0.0114(9) 0.0142(9) 0.0180(11) 0.0005(6) -0.0007(7) -0.0007(8)
C1 0.0124(10) 0.0206(11) 0.0236(13) -0.0007(8) 0.0021(10) -0.0016(9)
C2 0.0172(11) 0.0209(12) 0.0237(13) 0.0050(8) -0.0028(10) 0.0023(10)
P1 0.0074(2) 0.0095(2) 0.0194(3) 0.00031(18) 0.0003(3) 0.0004(2)
O1 0.0097(6) 0.0100(7) 0.0263(9) -0.0005(6) 0.0011(6) 0.0013(6)
O2 0.0097(6) 0.0112(7) 0.0286(10) 0.0017(6) -0.0011(6) -0.0023(6)
O3 0.0075(6) 0.0127(7) 0.0386(10) -0.0009(6) -0.0030(7) 0.0040(7)
loop_
_atom_type_symbol
_atom_type_description
_atom_type_scat_dispersion_real
_atom_type_scat_dispersion_imag
_atom_type_scat_source
C C 0.0033 0.0016 'International Tables Vol C Tables 4.2.6.8 and 6.1.1.4'
H H 0.0000 0.0000 'International Tables Vol C Tables 4.2.6.8 and 6.1.1.4'
N N 0.0061 0.0033 'International Tables Vol C Tables 4.2.6.8 and 6.1.1.4'
O O 0.0106 0.0060 'International Tables Vol C Tables 4.2.6.8 and 6.1.1.4'
P P 0.1023 0.0942 'International Tables Vol C Tables 4.2.6.8 and 6.1.1.4'
loop_
_geom_angle_atom_site_label_1
_geom_angle_atom_site_label_2
_geom_angle_atom_site_label_3
_geom_angle
N2 N1 H1n 109.5
N2 N1 H2n 109.5
H1n N1 H2n 109.5
N2 N1 H3n 109.5
H1n N1 H3n 109.5
H2n N1 H3n 109.5
N1 N2 C1 107.94(18)
N1 N2 C2 107.62(17)
C1 N2 C2 110.69(18)
N2 C1 H1a 109.5
N2 C1 H1b 109.5
H1a C1 H1b 109.5
N2 C1 H1c 109.5
H1a C1 H1c 109.5
H1b C1 H1c 109.5
N2 C2 H2a 109.5
N2 C2 H2b 109.5
H2a C2 H2b 109.5
N2 C2 H2c 109.5
H2a C2 H2c 109.5
H2b C2 H2c 109.5
O1 P1 O2 116.76(9)
O1 P1 O3 106.37(9)
O2 P1 O3 111.46(9)
O1 P1 H1 107.3
O2 P1 H1 107.3
O3 P1 H1 107.3
P1 O3 H1o 115.5
loop_
_geom_bond_atom_site_label_1
_geom_bond_atom_site_label_2
_geom_bond_distance
N1 N2 1.454(3)
N1 H1n 0.91
N1 H2n 0.91
N1 H3n 0.91
N2 C1 1.462(3)
N2 C2 1.463(3)
C1 H1a 0.98
C1 H1b 0.98
C1 H1c 0.98
C2 H2a 0.98
C2 H2b 0.98
C2 H2c 0.98
P1 O1 1.4982(15)
P1 O2 1.5003(16)
P1 O3 1.5638(16)
P1 H1 1.32
O3 H1o 0.8689
loop_
_geom_hbond_atom_site_label_D
_geom_hbond_atom_site_label_H
_geom_hbond_atom_site_label_A
_geom_hbond_site_symmetry_A
_geom_hbond_distance_DH
_geom_hbond_distance_HA
_geom_hbond_distance_DA
_geom_hbond_angle_DHA
N1 H1n O1 4 0.91 1.83 2.736(2) 176
N1 H2n O1 1_565 0.91 1.85 2.762(2) 176
N1 H3n O2 . 0.91 1.91 2.814(2) 175
O3 H1o O2 4 0.87 1.74 2.568(2) 159

_cod_database_fobs_code 2241794
