#------------------------------------------------------------------------------
#$Date: 2015-11-07 04:36:47 +0200 (Sat, 07 Nov 2015) $
#$Revision: 170179 $
#$URL: svn://www.crystallography.net/cod/cif/2/24/12/2241297.cif $
#------------------------------------------------------------------------------
#
# This file is available in the Crystallography Open Database (COD),
# http://www.crystallography.net/. The original data for this entry
# were provided by IUCr Journals, http://journals.iucr.org/.
#
# The file may be used within the scientific community so long as
# proper attribution is given to the journal article from which the
# data were obtained.
#
data_2241297
loop_
_publ_author_name
'Durka, Krzysztof'
'Kli\'s, Tomasz'
'Serwatowski, Janusz'
_publ_section_title
;
 Crystal structure of (2',3,6'-trichlorobiphenyl-2-yl)boronic acid
 tetrahydrofuran monosolvate
;
_journal_coeditor_code           SJ5482
_journal_issue                   12
_journal_name_full               'Acta Crystallographica Section E'
_journal_page_first              1471
_journal_page_last               1474
_journal_paper_doi               10.1107/S205698901502054X
_journal_volume                  71
_journal_year                    2015
_chemical_formula_iupac          'C12 H8 B Cl3 O2, C4 H8 O'
_chemical_formula_moiety         'C12 H8 B Cl3 O2, C4 H8 O'
_chemical_formula_sum            'C16 H16 B Cl3 O3'
_chemical_formula_weight         373.45
_chemical_melting_point          411
_chemical_name_systematic
;
(2',3,6'-Trichlorobiphenyl-2-yl)boronic acid
tetrahydrofuran monosolvate
;
_space_group_crystal_system      triclinic
_space_group_IT_number           2
_space_group_name_Hall           '-P 1'
_space_group_name_H-M_alt        'P -1'
_symmetry_space_group_name_Hall  '-P 1'
_symmetry_space_group_name_H-M   'P -1'
_atom_sites_solution_hydrogens   mixed
_audit_creation_method           SHELXL-2013
_cell_angle_alpha                98.683(3)
_cell_angle_beta                 97.737(3)
_cell_angle_gamma                99.398(3)
_cell_formula_units_Z            2
_cell_length_a                   8.3306(3)
_cell_length_b                   8.7122(2)
_cell_length_c                   12.4307(4)
_cell_measurement_reflns_used    14113
_cell_measurement_temperature    130(2)
_cell_measurement_theta_max      32.3510
_cell_measurement_theta_min      2.3770
_cell_volume                     868.07(5)
_computing_cell_refinement
;
CrysAlis PRO (Agilent, 2014)
;
_computing_data_collection
;
CrysAlis PRO (Agilent, 2014)
;
_computing_data_reduction
;
CrysAlis PRO (Agilent, 2014)
;
_computing_molecular_graphics
;
DIAMOND (Brandenburg, 2005)
;
_computing_publication_material
;
publCIF (Westrip, 2010)
;
_computing_structure_refinement
;
SHELXL2013 (Sheldrick, 2015)
;
_computing_structure_solution
;
SHELXS97 (Sheldrick, 2015)
;
_diffrn_ambient_temperature      130.0(10)
_diffrn_detector_area_resol_mean 5.2195
_diffrn_measured_fraction_theta_full 1.000
_diffrn_measured_fraction_theta_max 0.961
_diffrn_measurement_device       'four-circle diffractometer'
_diffrn_measurement_device_type
'Agilent SuperNova Dual Source diffractometer with an Atlas detector'
_diffrn_measurement_method       '\w scans'
_diffrn_radiation_monochromator  mirror
_diffrn_radiation_type           'Mo K\a'
_diffrn_radiation_wavelength     0.71073
_diffrn_reflns_av_R_equivalents  0.0322
_diffrn_reflns_limit_h_max       12
_diffrn_reflns_limit_h_min       -12
_diffrn_reflns_limit_k_max       13
_diffrn_reflns_limit_k_min       -13
_diffrn_reflns_limit_l_max       18
_diffrn_reflns_limit_l_min       -18
_diffrn_reflns_number            28647
_diffrn_reflns_theta_full        25.242
_diffrn_reflns_theta_max         32.609
_diffrn_reflns_theta_min         2.408
_exptl_absorpt_coefficient_mu    0.537
_exptl_absorpt_correction_T_max  1.00000
_exptl_absorpt_correction_T_min  0.79472
_exptl_absorpt_correction_type   multi-scan
_exptl_absorpt_process_details
;
(CrysAlis PRO; Agilent, 2014)
;
_exptl_crystal_colour            colourless
_exptl_crystal_density_diffrn    1.429
_exptl_crystal_description       fragment
_exptl_crystal_F_000             384
_exptl_crystal_size_max          0.15
_exptl_crystal_size_mid          0.12
_exptl_crystal_size_min          0.10
_refine_diff_density_max         0.446
_refine_diff_density_min         -0.364
_refine_ls_extinction_method     none
_refine_ls_goodness_of_fit_ref   1.047
_refine_ls_hydrogen_treatment    mixed
_refine_ls_matrix_type           full
_refine_ls_number_parameters     214
_refine_ls_number_reflns         6107
_refine_ls_number_restraints     2
_refine_ls_restrained_S_all      1.047
_refine_ls_R_factor_all          0.0426
_refine_ls_R_factor_gt           0.0335
_refine_ls_shift/su_max          0.001
_refine_ls_shift/su_mean         0.000
_refine_ls_structure_factor_coef Fsqd
_refine_ls_weighting_details
'w=1/[\s^2^(Fo^2^)+(0.0328P)^2^+0.3549P] where P=(Fo^2^+2Fc^2^)/3'
_refine_ls_weighting_scheme      calc
_refine_ls_wR_factor_gt          0.0781
_refine_ls_wR_factor_ref         0.0847
_reflns_number_gt                5162
_reflns_number_total             6107
_reflns_threshold_expression     'I > 2\s(I)'
_cod_data_source_file            sj5482sup1.cif
_cod_data_source_block           I
_cod_database_code               2241297
_shelx_space_group_comment
;
The symmetry employed for this shelxl refinement is uniquely defined
by the following loop, which should always be used as a source of
symmetry information in preference to the above space-group names.
They are only intended as comments.
;
_shelx_hkl_file
;
   0   0   1    0.00    0.90
   0   0  -1    0.00    0.83
   0   0   2  486.00    8.96
   0   0   2 4697.51   22.53
   0   0  -3  457.13    6.61
   0   0   3  442.75    6.94
   0   0  -3  440.81    8.01
   0   0   3  450.25    8.51
   0   0   3  447.98    7.83
   0   0   3  443.14    9.09
   0   0   4   89.81    4.41
   0   0   4   99.09    5.00
   0   0  -4   91.30    3.47
   0   0   4   96.25    3.70
   0   0   4   91.23    4.13
   0   0  -4   98.35    4.35
   0   0  -5  294.22    6.93
   0   0   5  290.85    8.21
   0   0   5  285.67    8.80
   0   0   5  303.98    9.85
   0   0  -5  286.79    8.36
   0   0   6   26.62    2.82
   0   0  -6   18.30    1.99
   0   0  -6   20.79    2.68
   0   0   6   28.51    3.19
   0   0   6   32.53    3.71
   0   0  -7 2465.11   29.99
   0   0  -7 2390.16   23.77
   0   0   7 2405.44   28.25
   0   0   7 2491.03   33.95
   0   0   7 2501.93   30.81
   0   0   8    1.24    1.07
   0   0  -8    0.92    1.08
   0   0   8    2.04    1.79
   0   0   8    1.62    1.12
   0   0  -8    0.38    0.55
   0   0   9   64.90    6.44
   0   0  -9   51.29    5.02
   0   0   9   60.12    5.54
   0   0   9   66.50    5.46
   0   0  10   70.43    6.33
   0   0  10   67.67    5.86
   0   0  10   63.64    6.88
   0   0 -10   65.92    6.10
   0   0  11    4.62    1.87
   0   0  11    6.51    2.73
   0   0 -11    1.99    1.51
   0   0  12   10.60    3.30
   0   0 -12   16.35    3.51
   0   0  12   21.75    4.00
   0   0  13   11.55    3.44
   0   0 -13   15.63    3.69
   0   0  13   20.10    3.94
   0   0  14  216.44   15.69
   0   0 -14  211.10   13.24
   0   0 -14  196.87   13.22
   0   0  14  194.76   12.78
   0   0 -15    2.66    2.16
   0   0  15    0.88    1.51
   0   0  15    1.39    1.55
   0   0 -15    3.04    2.10
   0   0 -16  102.08   10.36
   0   0  16   97.43   11.94
   0   0  16  104.14   10.32
   0   0 -16   88.90   10.13
   0   0 -17    0.27    1.48
   0   0  17   -1.91    2.32
   0   0 -17   -0.33    1.74
   0   0  17   -0.56    1.77
   0   0  18   18.28    4.74
   0   0  18   12.12    5.05
   0  -1  18   15.68    5.70
   0  -1  17   62.66   10.04
   0   1 -17   48.92    7.82
   0   1 -17   54.35    7.84
   0  -1  17   54.25    7.42
   0  -1  16   72.17   10.38
   0   1 -16   83.76    9.19
   0  -1  16   78.24    8.49
   0   1 -16   67.47    8.72
   0  -1  15   11.28    3.22
   0   1 -15    7.07    3.11
   0  -1  15    8.99    3.85
   0  -1  14    1.19    2.38
   0  -1  14   -0.65    1.55
   0   1 -14    1.22    1.28
   0  -1  13   15.93    4.37
   0   1 -13   20.19    4.16
   0  -1  13   22.57    3.98
   0  -1  12  100.88    8.32
   0  -1  12  111.66    8.36
   0  -1  12  102.36    9.82
   0   1 -12  120.17    7.50
   0   1 -12  119.02    9.20
   0  -1  11   24.46    4.67
   0  -1  11   24.69    3.80
   0   1 -11   26.04    4.13
   0   1 -11   18.93    2.88
   0  -1  11   18.12    3.40
   0  -1  10 1371.07   27.64
   0  -1  10 1429.44   32.47
   0  -1  10 1457.01   26.89
   0   1 -10 1486.66   23.40
   0   1 -10 1427.45   27.92
   0   1  -9   80.47    5.17
   0  -1   9   86.04    6.51
   0  -1   9   79.50    5.94
   0   1  -9   66.71    5.58
   0  -1   9   74.37    6.97
   0   1  -8  893.76   15.98
   0  -1   8  874.20   19.36
   0  -1   8  866.23   22.14
   0  -1   8  857.52   18.05
   0   1  -8  858.73   18.89
   0  -1   7   93.22    5.54
   0  -1   7   90.39    5.90
   0   1  -7   94.93    4.92
   0  -1   7  107.84    7.28
   0   1  -7   99.65    5.94
   0   1  -6  193.32    7.60
   0  -1   6  190.39    7.18
   0   1  -6  197.86    6.54
   0  -1   6  189.03    7.83
   0  -1   5  640.82   13.38
   0  -1   5  644.41   11.76
   0   1  -5  693.93   11.43
   0   1  -5  689.96   12.97
   0   1  -4  145.61    4.85
   0   1  -4  137.68    5.25
   0  -1   4  139.04    5.62
   0  -1   4  138.74    4.77
   0   1  -3 3592.34   23.40
   0   1  -3 3419.34   21.57
   0  -1   3 3549.98   19.70
   0  -1   3 3464.41   25.05
   0  -1   2   16.87    0.98
   0  -1   2   16.33    1.50
   0   1  -2   16.94    1.02
   0   1  -2   16.03    1.37
   0   1  -2   16.69    1.41
   0   1  -1 1015.94    9.09
   0  -1   1 1025.68    8.99
   0  -1   1  772.22    7.95
   0  -1   1 1030.38    9.68
   0   1  -1  820.01    9.17
   0  -1   0  465.66    6.25
   0  -1   0  479.97    6.01
   0  -1  -1  587.56    7.74
   0  -1  -1  596.39    6.92
   0   1   1  599.77    8.04
   0  -1  -2   85.76    2.41
   0   1   2   77.06    2.87
   0  -1  -2   72.67    3.10
   0  -1  -2   77.89    3.15
   0   1   2   75.47    3.54
   0  -1  -2   75.77    3.28
   0  -1  -3  554.80   10.59
   0   1   3  548.09   10.97
   0  -1  -3  570.57    9.94
   0   1   3  573.35    6.37
   0   1   3  569.79    9.82
   0  -1  -3  544.64    9.46
   0  -1  -4 2010.58   20.68
   0   1   4 2009.83   14.72
   0   1   4 2025.33   23.31
   0   1   4 2064.56   22.10
   0  -1  -5  364.20    9.73
   0   1   5  347.67   10.33
   0  -1  -5  332.47    9.55
   0   1   5  327.94    6.88
   0   1   5  338.38   10.45
   0  -1  -6   71.38    4.87
   0   1   6   68.43    3.48
   0   1   6   69.02    5.15
   0  -1  -6   73.93    4.81
   0   1   6   73.14    5.23
   0   1   7  460.74   14.30
   0   1   7  445.04   14.19
   0  -1  -7  451.26   13.14
   0  -1  -7  477.40   13.16
   0  -1  -8  261.82   10.91
   0  -1  -8  254.87   10.43
   0   1   8  257.79   11.71
   0   1   8  255.47   11.32
   0   1   9  442.80   16.49
   0  -1  -9  451.66   15.23
   0   1   9  420.35   15.39
   0  -1  -9  473.22   15.00
   0  -1 -10   43.31    5.13
   0   1  10   38.39    5.01
   0  -1 -10   47.68    5.18
   0   1  10   27.96    4.58
   0  -1 -11    4.55    1.98
   0   1  11    4.54    1.75
   0   1  11    2.40    1.79
   0  -1 -11    6.83    2.31
   0   1  12   66.75    7.87
   0  -1 -12   68.89    7.22
   0   1  12   62.88    7.01
   0  -1 -12   58.80    6.51
   0  -1 -13   14.53    3.52
   0   1  13    9.99    3.19
   0   1  13   11.63    3.62
   0  -1 -13   13.55    3.58
   0   1  14    3.98    2.37
   0  -1 -14    1.52    1.75
   0   1  14   -0.65    1.72
   0  -1 -14    4.97    2.51
   0  -1 -15  407.14   20.71
   0   1  15  411.38   22.79
   0  -1 -15  424.70   20.43
   0   1  15  422.13   20.64
   0   1  16   29.57    5.93
   0  -1 -16   36.83    6.45
   0   1  16   37.62    7.43
   0  -1 -16   39.42    6.96
   0  -1 -17  128.36   12.58
   0  -1 -17  116.95   12.26
   0   1  17  102.14   12.53
   0   1  17  116.42   11.76
   0  -2  18   -1.93    4.02
   0  -2  18    1.37    1.76
   0   2 -17    1.15    1.91
   0  -2  17    1.63    1.62
   0  -2  17    2.04    2.75
   0   2 -16   13.16    4.03
   0  -2  16    9.96    4.05
   0  -2  15  211.50   12.63
   0  -2  15  210.17   16.84
   0   2 -15  200.67   14.05
   0   2 -15  215.37   11.82
   0   2 -14    9.98    2.63
   0  -2  14    6.77    2.84
   0   2 -14    7.85    2.96
   0  -2  14    7.53    2.46
   0  -2  14    3.72    2.40
   0  -2  13   58.46    7.01
   0   2 -13   47.20    5.08
   0   2 -13   51.39    6.36
   0  -2  13   57.48    6.00
   0  -2  13   48.84    7.28
   0  -2  12   18.17    3.25
   0   2 -12   19.51    3.89
   0   2 -12   26.32    3.70
   0  -2  12   18.71    3.91
   0  -2  12   24.31    5.02
   0  -2  11    1.04    1.15
   0  -2  11   -0.72    2.12
   0  -2  11    1.89    1.95
   0   2 -11    0.26    1.26
   0   2 -11    0.46    1.35
   0  -2  10  110.22    6.93
   0   2 -10  100.82    7.47
   0  -2  10  102.55    7.98
   0  -2  10  105.10    9.01
   0   2 -10  102.43    6.45
   0   2  -9  345.78   12.92
   0   2  -9  350.00   11.23
   0  -2   9  338.86   13.56
   0  -2   9  321.66   14.83
   0  -2   9  346.50   11.45
   0  -2   8  362.01   13.21
   0   2  -8  337.68   11.97
   0  -2   8  331.21   10.30
   0   2  -8  340.52   10.48
   0  -2   8  341.49   14.14
   0   2  -7   72.03    5.12
   0   2  -7   60.35    4.19
   0  -2   7   58.18    5.02
   0  -2   7   58.10    3.99
   0   2  -6  558.77   13.25
   0   2  -6  520.96   11.89
   0  -2   6  545.96   10.76
   0  -2   6  549.28   14.28
   0   2  -5    5.72    1.29
   0  -2   5    5.23    1.43
   0  -2   5    3.99    0.87
   0   2  -5    7.07    1.50
   0  -2   5    7.80    1.82
   0  -2   4    9.24    1.72
   0   2  -4    7.24    1.37
   0  -2   4    6.88    1.26
   0   2  -4    6.32    1.24
   0  -2   4    8.49    1.00
   0  -2   4    6.10    1.43
   0   2  -3  173.56    5.73
   0  -2   3  161.91    6.06
   0   2  -3  160.75    3.25
   0   2  -3  168.65    5.95
   0  -2   3  159.38    5.37
   0  -2   3  166.05    6.16
   0  -2   3  165.68    3.09
   0  -2   2 5275.33   29.42
   0  -2   2 5079.84   28.65
   0  -2   2 5019.84   27.60
   0  -2   2 5156.40   30.32
   0   2  -2 5277.90   32.26
   0   2  -2 5052.47   28.94
   0  -2   1 4424.13   26.26
   0  -2   1 4522.46   21.39
   0   2  -1 4368.76   25.62
   0  -2   1 4563.36   25.24
   0  -2   1 4496.11   27.10
   0   2  -1 4509.08   29.44
   0  -2   1 4485.15   27.28
   0  -2   0   10.41    1.06
   0   2   0   10.71    0.80
   0  -2   0    9.94    1.29
   0  -2   0   11.24    0.82
   0   2   0    9.90    1.05
   0  -2   0    9.99    1.31
   0   2   0   11.65    1.37
   0   2   1  388.82    7.89
   0   2   1  395.15    5.86
   0  -2  -1  392.34    7.87
   0  -2  -1  384.21    8.43
   0  -2  -1  403.91    5.40
   0   2   1  393.65    5.33
   0  -2  -1  391.13    6.39
   0   2   2  398.19    9.24
   0  -2  -2  418.92    8.45
   0   2   2  422.19    5.04
   0   2   2  437.40    6.17
   0  -2  -2  423.81    5.42
   0  -2  -2  421.54    5.52
   0  -2  -2  408.29    8.16
   0  -2  -2  434.05    9.43
   0  -2  -3  470.25   11.08
   0   2   3  444.82    8.25
   0  -2  -3  429.75    9.85
   0  -2  -3  427.83   10.04
   0   2   3  432.20   10.79
   0   2   3  446.87    5.13
   0  -2  -4  373.44   10.38
   0  -2  -4  377.49    9.88
   0   2   4  388.95   11.22
   0  -2  -4  383.19   10.25
   0   2   4  379.40    9.20
   0   2   4  390.52    5.54
   0   2   5 1604.65   24.69
   0  -2  -5 1576.31   22.44
   0   2   5 1584.10   13.09
   0   2   5 1626.02   21.71
   0  -2  -5 1580.05   22.28
   0   2   6    6.70    1.00
   0   2   6    5.19    1.77
   0   2   6    7.48    1.82
   0  -2  -6    4.86    1.45
   0  -2  -6    6.70    1.69
   0  -2  -7  369.85   12.52
   0   2   7  362.72   12.62
   0   2   7  374.85   13.73
   0  -2  -7  362.85   12.37
   0  -2  -8   -0.25    1.03
   0  -2  -8    0.32    0.93
   0   2   8    2.52    1.18
   0   2   8    1.47    1.06
   0   2   9  266.09   12.87
   0  -2  -9  251.62   11.75
   0   2   9  278.91   12.97
   0  -2  -9  251.64   11.66
   0  -2 -10  233.94   12.02
   0   2  10  223.43   12.51
   0   2  10  244.51   12.99
   0  -2 -10  230.65   11.90
   0   2  11   -0.01    1.39
   0   2  11    0.32    1.37
   0  -2 -11    0.05    1.25
   0  -2 -11    0.02    1.06
   0   2  12  435.08   19.61
   0   2  12  428.29   19.03
   0  -2 -12  440.01   18.31
   0  -2 -12  406.35   17.86
   0   2  13    3.58    2.54
   0  -2 -13    3.51    2.23
   0   2  13    4.91    2.41
   0  -2 -13    6.37    2.53
   0  -2 -14   27.69    5.25
   0  -2 -14   26.21    5.20
   0   2  14   22.12    4.69
   0   2  14   19.69    4.87
   0  -2 -15    7.74    3.24
   0   2  15    6.82    3.15
   0  -2 -15    5.82    2.80
   0   2  15    6.18    3.12
   0  -2 -16    1.63    2.35
   0   2  16    1.49    1.41
   0   2  17    0.08    1.79
   0  -2 -17   -3.52    2.50
   0  -3  18  155.43   13.03
   0  -3  18  190.16   18.68
   0  -3  17    2.43    2.16
   0   3 -17    3.23    2.23
   0  -3  17    0.97    2.37
   0  -3  16    4.85    3.00
   0  -3  16    3.36    1.94
   0   3 -16    9.98    3.70
   0  -3  15    2.62    1.89
   0   3 -15   -0.74    1.50
   0   3 -15    1.48    1.33
   0  -3  15    4.78    3.46
   0  -3  15    0.75    1.59
   0   3 -14   -0.20    1.29
   0  -3  14   -0.12    1.29
   0   3 -14    1.84    1.96
   0  -3  14    3.17    2.08
   0  -3  14    1.59    1.74
   0  -3  13  106.22    7.62
   0   3 -13  105.96    9.14
   0  -3  13  122.16    9.31
   0  -3  13  115.00   11.48
   0   3 -13  121.23    8.31
   0  -3  13  112.32   10.08
   0   3 -12  443.74   17.65
   0   3 -12  432.73   15.06
   0  -3  12  429.82   14.45
   0  -3  12  422.22   20.61
   0  -3  12  467.07   19.49
   0  -3  12  449.44   16.81
   0   3 -11 2871.56   42.26
   0  -3  11 3023.55   47.21
   0   3 -11 2924.56   37.24
   0  -3  11 2988.22   41.19
   0  -3  11 2925.50   35.29
   0  -3  11 2839.19   50.81
   0  -3  10  516.91   20.34
   0  -3  10  537.27   14.08
   0  -3  10  563.13   17.05
   0  -3  10  533.99   18.88
   0   3 -10  505.26   14.93
   0   3 -10  519.29   17.00
   0   3  -9  789.12   19.69
   0  -3   9  749.83   15.38
   0  -3   9  744.08   22.92
   0  -3   9  805.12   19.42
   0  -3   9  782.07   21.65
   0   3  -9  754.39   17.55
   0  -3   8  290.89   11.08
   0  -3   8  280.59    8.61
   0  -3   8  281.27   13.23
   0   3  -8  286.39   11.19
   0  -3   8  295.04   12.68
   0   3  -8  263.97   10.00
   0  -3   7  171.46    9.18
   0  -3   7  157.34    9.17
   0   3  -7  160.61    7.54
   0   3  -7  172.47    8.27
   0  -3   7  163.60    5.85
   0  -3   7  175.15    8.07
   0  -3   6  307.39   10.09
   0  -3   6  298.60    6.81
   0   3  -6  320.05   10.56
   0   3  -6  295.06    9.96
   0  -3   6  297.08   11.31
   0  -3   5 1143.55   10.88
   0  -3   5 1154.71   20.70
   0  -3   5 1185.48   18.79
   0   3  -5 1161.50   18.81
   0   3  -5 1107.07   18.81
   0   3  -4  910.62    8.06
   0  -3   4  925.36    7.50
   0  -3   4  923.83   17.18
   0   3  -4  930.38   15.93
   0  -3   4  898.70   17.01
   0  -3   4  915.87   14.74
   0  -3   4  944.01   16.02
   0   3  -4  929.75   16.96
   0  -3   3   77.86    4.49
   0  -3   3   75.67    4.21
   0  -3   3   80.55    4.51
   0   3  -3   79.35    4.43
   0   3  -3   85.17    5.07
   0  -3   3   81.82    4.76
   0  -3   2   66.78    4.07
   0   3  -2   78.77    4.81
   0   3  -2   67.26    3.90
   0  -3   2   64.90    3.95
   0  -3   2   70.46    3.61
   0  -3   2   69.47    2.46
   0  -3   2   64.07    3.84
   0  -3   2   66.79    4.02
   0   3  -1  554.89    5.80
   0  -3   1  523.44   11.53
   0   3  -1  519.40   10.67
   0  -3   1  529.65    8.04
   0  -3   1  562.73   11.85
   0   3  -1  527.84    7.42
   0  -3   1  527.62    5.72
   0  -3   1  519.19    9.94
   0  -3   1  569.13   11.58
   0   3  -1  529.19   12.23
   0   3   0  738.60   12.77
   0   3   0  745.57   10.87
   0  -3   0  783.72    8.01
   0  -3   0  742.67   13.81
   0  -3   0  745.47   10.77
   0  -3   0  778.63   14.52
   0  -3   0  782.56   13.45
   0   3   1  425.01    7.89
   0  -3  -1  445.01   10.19
   0   3   1  401.04    9.33
   0  -3  -1  427.19    7.16
   0  -3  -1  415.93    7.33
   0  -3  -1  403.76   10.49
   0  -3  -2 1263.20   19.34
   0  -3  -2 1253.48   15.35
   0  -3  -2 1317.39   11.50
   0   3   2 1253.07   11.68
   0  -3  -2 1244.21   17.33
   0   3   2 1254.12   18.33
   0  -3  -3  431.48   11.81
   0  -3  -3  457.10   10.77
   0  -3  -3  422.63   10.35
   0   3   3  434.03    5.94
   0   3   3  415.23    7.25
   0  -3  -3  470.90    6.80
   0   3   3  433.74   11.93
   0   3   4  565.97   14.71
   0  -3  -4  556.20   14.13
   0  -3  -4  563.22    8.03
   0  -3  -4  554.36   13.16
   0   3   4  566.90   10.52
   0   3   4  580.68    6.56
   0  -3  -5  957.36   19.48
   0   3   5  952.52    8.94
   0   3   5  944.08   15.91
   0  -3  -5  937.16   11.46
   0  -3  -5  978.60   21.21
   0   3   5  977.87   20.73
   0  -3  -6    5.91    2.08
   0   3   6    6.77    1.63
   0  -3  -6    3.04    1.37
   0   3   6    3.98    1.63
   0   3   6    6.06    0.82
   0  -3  -7   -0.52    1.26
   0  -3  -7    3.38    1.51
   0  -3  -7    1.68    1.18
   0   3   7    2.96    1.71
   0   3   7    1.36    1.06
   0  -3  -8   71.97    6.88
   0   3   8   77.08    7.06
   0   3   8   73.36    6.04
   0  -3  -8   64.62    5.83
   0  -3  -8   79.11    6.74
   0   3   9  205.44   12.00
   0   3   9  211.95   11.12
   0  -3  -9  207.81   12.32
   0  -3  -9  196.87   10.84
   0  -3  -9  210.16   11.48
   0  -3 -10    0.88    1.26
   0   3  10   -0.01    1.76
   0  -3 -10   -1.86    2.00
   0   3  10    0.47    0.99
   0  -3 -10   -0.36    1.14
   0   3  11  333.72   16.71
   0  -3 -11  330.90   17.27
   0   3  11  323.75   15.67
   0  -3 -11  326.17   15.61
   0  -3 -11  341.52   16.36
   0  -3 -12    4.01    2.49
   0   3  12    1.91    1.65
   0   3  12    5.69    2.69
   0  -3 -12    7.16    3.03
   0  -3 -12    4.97    2.21
   0  -3 -13    1.93    1.55
   0   3  13    5.74    2.83
   0  -3 -13   -1.09    2.20
   0  -3 -14   76.73    8.98
   0   3  14   61.60    8.43
   0  -3 -14   74.40    8.99
   0  -3 -14   69.21    9.29
   0   3  15   49.56    7.84
   0  -3 -15   42.75    7.21
   0  -3 -15   55.13    8.67
   0  -3 -16   21.99    5.49
   0   3  16   19.81    5.10
   0  -3 -16   16.02    4.95
   0  -4  18   46.21    7.34
   0  -4  17    0.96    1.79
   0   4 -17   -0.10    1.48
   0  -4  17    1.29    2.51
   0   4 -16  132.79   12.07
   0  -4  16  115.27   12.13
   0  -4  16  121.36   13.83
   0  -4  16  135.31   11.59
   0   4 -16  121.06    9.64
   0   4 -15    1.92    1.28
   0  -4  15    5.81    3.56
   0   4 -15    6.66    2.79
   0  -4  15    6.74    2.70
   0  -4  15    3.53    2.19
   0  -4  14  159.46   11.53
   0   4 -14  161.66   10.38
   0   4 -14  172.60   12.36
   0  -4  14  161.61   13.18
   0  -4  14  165.55   14.70
   0   4 -13   37.58    5.60
   0  -4  13   28.51    5.98
   0  -4  13   35.33    5.31
   0  -4  13   40.24    6.47
   0   4 -13   28.91    4.25
   0  -4  12   11.53    3.44
   0   4 -12    7.04    2.27
   0  -4  12   10.73    2.88
   0   4 -12   11.20    3.19
   0  -4  12   13.56    4.11
   0  -4  11  213.82   14.20
   0   4 -11  234.45   12.28
   0  -4  11  253.99   14.24
   0  -4  11  221.43    8.88
   0  -4  11  239.58   12.30
   0   4 -11  219.56   10.79
   0  -4  10  143.08    9.19
   0   4 -10  146.28    8.64
   0  -4  10  145.13   11.02
   0  -4  10  164.47   10.96
   0   4 -10  149.53    9.36
   0  -4  10  155.97    6.94
   0  -4   9    0.37    1.26
   0   4  -9   -0.22    1.05
   0  -4   9   -0.94    1.48
   0  -4   9   -0.30    0.65
   0   4  -9   -0.28    1.14
   0   4  -8    8.63    2.17
   0  -4   8   12.21    2.57
   0   4  -8   15.94    2.93
   0  -4   8   10.84    2.83
   0  -4   8   13.35    1.66
   0  -4   8    9.87    2.56
   0   4  -7  230.58   10.06
   0  -4   7  241.66   11.71
   0  -4   7  232.26   10.07
   0   4  -7  237.68   10.20
   0  -4   7  231.33    5.79
   0  -4   7  241.96   11.40
   0   4  -6   59.22    4.91
   0  -4   6   64.42    2.51
   0  -4   6   65.12    5.62
   0  -4   6   63.83    4.65
   0   4  -6   54.95    4.85
   0  -4   6   63.73    5.60
   0  -4   6   60.70    4.97
   0  -4   5  699.62   17.17
   0  -4   5  701.31   16.13
   0  -4   5  686.52   14.80
   0   4  -5  718.85   16.00
   0   4  -5  709.01   16.93
   0  -4   4  602.40   14.37
   0   4  -4  610.13   15.50
   0  -4   4  592.01   10.28
   0   4  -4  598.42   14.06
   0  -4   4  584.56   14.30
   0  -4   4  601.76   13.77
   0  -4   4  576.80   14.67
   0   4  -3   34.68    3.73
   0  -4   3   34.60    3.33
   0  -4   3   29.40    2.89
   0  -4   3   27.16    3.05
   0   4  -3   36.05    3.33
   0  -4   3   25.80    2.96
   0  -4   3   31.74    2.03
   0  -4   2  847.84   16.68
   0   4  -2  838.65    8.93
   0  -4   2  853.82   15.50
   0  -4   2  903.62   17.29
   0   4  -2  884.68   16.18
   0  -4   2  893.87   17.19
   0   4  -2  868.53   18.33
   0  -4   2  867.53   13.55
   0  -4   2  852.52    8.58
   0   4  -1   60.19    3.03
   0  -4   1   54.58    3.64
   0  -4   1   57.81    4.40
   0   4  -1   53.75    4.56
   0  -4   1   57.85    4.52
   0  -4   1   49.93    4.02
   0   4  -1   54.30    3.99
   0  -4   1   61.82    2.16
   0  -4   1   60.03    2.92
   0   4  -1   60.90    2.16
   0  -4   0  225.86    6.81
   0  -4   0  223.07    4.85
   0   4   0  228.60    8.26
   0  -4   0  215.73    8.25
   0   4   0  223.84    6.82
   0  -4   0  234.01    9.06
   0  -4   0  231.18    9.17
   0  -4  -1    6.22    1.53
   0  -4  -1    6.69    1.07
   0  -4  -1    4.47    1.56
   0   4   1    8.28    1.32
   0   4   1    7.94    1.56
   0  -4  -1    9.50    2.06
   0  -4  -1    8.40    1.27
   0  -4  -2  219.10    8.32
   0  -4  -2  199.21    6.52
   0  -4  -2  201.58    8.81
   0   4   2  201.85    8.07
   0   4   2  209.73    5.86
   0  -4  -2  199.21    5.31
   0   4   3  174.21    8.13
   0  -4  -3  165.21    4.51
   0  -4  -3  181.05    7.74
   0  -4  -3  162.25    6.71
   0   4   3  160.49    4.41
   0  -4  -3  165.94    8.28
   0   4   4 1370.11   14.30
   0  -4  -4 1384.29   26.64
   0   4   4 1438.10   25.09
   0  -4  -4 1455.87   26.01
   0   4   4 1477.67   24.88
   0  -4  -4 1399.68   12.87
   0  -4  -4 1370.33   21.62
   0   4   4 1432.60   11.51
   0  -4  -4 1381.95   25.02
   0   4   5  830.14   19.47
   0   4   5  774.04   19.57
   0  -4  -5  787.94   10.14
   0  -4  -5  804.38   21.26
   0   4   5  779.68   13.24
   0   4   5  773.79    7.68
   0  -4  -5  783.79   19.60
   0  -4  -6  399.96    7.82
   0   4   6  379.30    5.19
   0  -4  -6  391.87   14.43
   0   4   6  397.78   10.86
   0   4   6  395.43   14.89
   0  -4  -6  407.58   15.90
   0  -4  -7  725.46   20.65
   0   4   7  672.90   15.94
   0   4   7  712.96   21.22
   0  -4  -7  726.20   22.30
   0  -4  -7  723.19   11.46
   0   4   8   32.63    4.95
   0   4   8   35.09    4.02
   0  -4  -8   31.28    5.01
   0  -4  -8   32.67    4.65
   0  -4  -9  192.40   11.84
   0   4   9  190.29   12.03
   0   4   9  188.80   10.07
   0  -4  -9  196.17   12.85
   0   4  10  332.45   16.59
   0  -4 -10  303.89   16.69
   0  -4 -10  319.37   16.06
   0   4  11   46.11    6.61
   0  -4 -11   50.37    6.82
   0  -4 -11   36.87    6.24
   0  -4 -12  359.25   18.83
   0  -4 -12  330.31   19.32
   0   4  12  322.51   17.98
   0  -4 -13   21.29    5.36
   0  -4 -13   24.66    5.39
   0   4  13   31.11    5.96
   0  -4 -14   73.89    9.35
   0  -4 -14   67.58    9.65
   0   4  14   86.84   10.22
   0  -4 -15   -0.30    1.70
   0  -4 -15   -0.73    2.50
   0   4  15   -2.25    3.21
   0  -5  17   31.89    6.72
   0   5 -17   37.80    5.79
   0   5 -17   41.82    7.18
   0  -5  17   28.52    5.92
   0  -5  17   35.87    8.32
   0   5 -16    7.19    2.73
   0  -5  16    3.97    2.43
   0  -5  16    4.33    3.47
   0  -5  16    5.28    3.01
   0   5 -16    2.83    2.61
   0  -5  15   -1.57    2.28
   0  -5  15    4.34    2.43
   0   5 -15    3.76    2.16
   0   5 -15    4.99    2.69
   0  -5  15    3.19    2.87
   0   5 -14   64.18    6.76
   0   5 -14   64.03    7.72
   0  -5  14   66.33    9.60
   0  -5  14   61.43    7.46
   0  -5  14   64.56    8.64
   0   5 -13  340.90   15.09
   0  -5  13  340.30   20.51
   0  -5  13  341.77   18.77
   0   5 -13  345.14   16.74
   0  -5  13  337.49   16.80
   0   5 -12   45.28    5.89
   0  -5  12   48.81    6.90
   0  -5  12   36.13    6.55
   0  -5  12   36.71    5.40
   0   5 -12   35.57    4.79
   0  -5  11   -0.17    1.78
   0  -5  11    0.54    1.61
   0   5 -11    0.06    1.06
   0   5 -11    0.20    1.27
   0  -5  11    3.78    1.97
   0  -5  10   28.24    4.35
   0  -5  10   24.77    4.59
   0  -5  10   27.84    5.15
   0   5 -10   27.41    4.21
   0   5 -10   27.80    4.05
   0   5  -9   84.04    6.91
   0  -5   9   85.91    7.89
   0  -5   9   83.02    8.09
   0   5  -9   99.25    7.59
   0  -5   9   89.03    6.43
   0  -5   9   78.34    6.96
   0   5  -8  119.53    7.95
   0  -5   8  114.63    8.05
   0   5  -8  105.45    7.56
   0  -5   8   95.07    7.91
   0  -5   8   84.72    7.67
   0  -5   8  107.37    6.93
   0  -5   7  484.08   17.18
   0  -5   7  491.62   14.45
   0  -5   7  482.95   16.92
   0  -5   7  514.23   16.28
   0   5  -7  464.08   15.50
   0   5  -7  461.06   15.00
   0   5  -6  749.06   18.38
   0   5  -6  734.43   19.43
   0  -5   6  748.09   19.02
   0  -5   6  748.94   20.01
   0  -5   6  718.19   19.34
   0  -5   6  723.81   17.34
   0  -5   5  242.98    7.37
   0  -5   5  255.09   10.82
   0  -5   5  246.17   10.94
   0   5  -5  252.29   11.31
   0  -5   5  256.67   10.26
   0   5  -5  238.53   10.04
   0  -5   4  408.45   12.39
   0  -5   4  410.77   13.02
   0   5  -4  438.94   14.67
   0  -5   4  414.71   13.33
   0  -5   4  441.35   13.94
   0   5  -4  418.78   12.85
   0  -5   4  410.04    8.28
   0  -5   3  354.47   11.74
   0  -5   3  375.28    6.62
   0   5  -3  368.61   13.42
   0  -5   3  375.57   10.79
   0  -5   3  365.79   12.38
   0  -5   3  364.69   12.42
   0   5  -3  386.98   12.08
   0  -5   3  411.32   13.20
   0   5  -3  369.06    4.76
   0   5  -3  345.71    4.81
   0  -5   2    6.09    1.73
   0  -5   2    8.94    0.85
   0  -5   2    8.41    1.46
   0  -5   2    5.78    1.76
   0   5  -2    7.21    1.83
   0   5  -2    6.55    2.04
   0   5  -2    7.87    1.07
   0  -5   2    2.95    1.34
   0  -5   2    9.22    2.12
   0  -5   2    5.61    1.58
   0   5  -1 1252.51   24.62
   0  -5   1 1330.19   14.39
   0  -5   1 1328.24   24.27
   0  -5   1 1317.66   10.56
   0  -5   1 1353.99   24.13
   0   5  -1 1335.36   22.04
   0  -5   1 1299.55   22.84
   0   5  -1 1321.46   16.07
   0  -5   1 1302.46   19.57
   0   5   0  302.00   10.70
   0  -5   0  308.40   12.19
   0  -5   0  293.74    8.65
   0  -5   0  310.55   11.08
   0  -5   0  306.22    6.11
   0  -5   0  307.62   11.89
   0   5   0  303.12    8.79
   0  -5   0  298.26   11.57
   0  -5  -1 2090.16   31.55
   0   5   1 1998.13   23.00
   0  -5  -1 2031.53   30.61
   0  -5  -1 1972.04   18.68
   0   5   1 1985.31   30.60
   0  -5  -1 1987.67   27.97
   0   5   1 1983.70   27.79
   0   5   1 1996.36   25.12
   0  -5  -1 2085.32   32.58
   0  -5  -1 1923.11   20.47
   0   5   2 1110.90   23.45
   0  -5  -2 1091.59   23.04
   0  -5  -2 1144.85   14.50
   0  -5  -2 1181.04   24.51
   0  -5  -2 1176.31   21.58
   0  -5  -2 1154.16   24.91
   0  -5  -2 1070.37   16.07
   0   5   2 1112.64   15.53
   0   5   2 1119.00   20.46
   0  -5  -3  242.54   11.20
   0   5   3  234.01    6.29
   0  -5  -3  233.95   11.62
   0   5   3  237.36   10.99
   0  -5  -3  245.01   11.50
   0  -5  -3  227.12    8.39
   0  -5  -3  238.47    9.82
   0   5   3  232.27   10.03
   0  -5  -3  236.73    6.04
   0   5   4  209.16    5.04
   0  -5  -4  206.37   11.36
   0  -5  -4  208.17   10.92
   0  -5  -4  218.08    9.61
   0   5   4  194.84    9.86
   0  -5  -4  206.80   10.60
   0   5   4  185.27    9.83
   0  -5  -4  208.31    5.22
   0  -5  -5   45.03    5.59
   0   5   5   44.40    4.94
   0   5   5   41.90    4.93
   0  -5  -5   45.51    5.18
   0  -5  -6    1.36    1.41
   0  -5  -6   -0.56    1.19
   0   5   6    1.98    1.52
   0  -5  -7   14.46    3.41
   0   5   7   13.12    3.15
   0  -5  -7   10.80    3.22
   0  -5  -8   93.35    9.16
   0  -5  -8  102.30    8.87
   0   5   8  106.80    9.09
   0   5   9  109.05    9.64
   0  -5  -9  102.61    9.30
   0  -5 -10   29.87    5.37
   0   5  10   38.61    6.02
   0  -5 -10   25.40    5.40
   0  -5 -11   63.55    8.61
   0  -5 -11   76.48    8.93
   0  -5 -12   14.28    4.16
   0  -5 -12   10.84    3.92
   0   5  12   15.52    4.28
   0  -5 -13    0.12    1.52
   0  -5 -13   -4.43    3.02
   0   5  13   -1.58    2.61
   0  -5 -14    1.11    2.21
   0   5  14    2.55    2.21
   0  -5 -14   -4.49    2.90
   0  -5 -15   -1.29    2.71
   0   6 -17    0.17    1.42
   0  -6  17   -1.57    2.72
   0  -6  17    4.66    3.31
   0  -6  17   -1.95    2.65
   0  -6  16  174.37   17.34
   0  -6  16  193.87   15.21
   0   6 -16  175.44   12.36
   0  -6  16  170.35   15.60
   0   6 -16  147.88   13.04
   0  -6  15   49.31    8.06
   0  -6  15   45.45    8.58
   0  -6  15   39.75    6.61
   0   6 -15   36.53    5.60
   0   6 -15   37.11    6.38
   0   6 -14   20.34    4.10
   0  -6  14   11.13    3.55
   0   6 -14   10.05    3.20
   0  -6  14   25.94    5.83
   0  -6  14   19.20    5.59
   0   6 -13    5.99    2.41
   0   6 -13    6.38    2.72
   0  -6  13    6.79    2.90
   0  -6  13    0.92    2.32
   0  -6  13    5.25    3.03
   0   6 -12    8.99    2.78
   0  -6  12    2.84    1.91
   0  -6  12    3.01    2.70
   0   6 -12    3.40    1.80
   0  -6  12   10.13    3.06
   0  -6  11  165.32   13.17
   0   6 -11  152.82   10.26
   0  -6  11  173.58   12.82
   0   6 -11  179.49   11.50
   0  -6  11  168.62   11.62
   0  -6  10   -0.82    1.50
   0   6 -10    1.36    1.35
   0  -6  10    0.69    1.42
   0  -6  10    0.81    1.61
   0   6 -10   -1.28    1.59
   0  -6  10   -0.76    1.25
   0  -6   9  668.62   19.03
   0  -6   9  652.17   22.54
   0   6  -9  694.67   20.96
   0  -6   9  660.29   21.30
   0   6  -9  649.61   20.50
   0  -6   9  670.97   23.63
   0  -6   8  115.96    9.15
   0  -6   8  141.15    9.66
   0   6  -8  138.29    9.31
   0  -6   8  117.12    6.91
   0  -6   8  143.92    8.73
   0  -6   8  111.77    9.06
   0   6  -8  134.17    8.89
   0  -6   7 1037.55   18.48
   0  -6   7 1006.64   25.50
   0   6  -7 1046.19   25.40
   0  -6   7 1021.17   25.85
   0  -6   7 1024.16   24.90
   0   6  -7 1054.55   23.87
   0  -6   7 1016.30   22.88
   0  -6   6   39.77    4.58
   0   6  -6   37.63    4.45
   0  -6   6   40.36    5.00
   0  -6   6   39.78    4.89
   0   6  -6   42.66    5.25
   0  -6   6   27.13    2.70
   0  -6   6   34.67    4.66
   0  -6   5   -0.64    1.23
   0  -6   5   -1.22    0.60
   0  -6   5    0.79    1.27
   0  -6   5    0.38    1.21
   0   6  -5    2.11    1.72
   0   6  -5    0.62    0.81
   0   6  -4   27.81    4.10
   0  -6   4   25.39    3.82
   0  -6   4   30.86    2.09
   0   6  -4   27.55    3.64
   0  -6   4   30.86    3.56
   0  -6   4   26.54    3.69
   0  -6   4   30.34    3.87
   0   6  -3   88.38    2.94
   0  -6   3   98.19    7.19
   0  -6   3   84.77    6.17
   0  -6   3   88.66    6.86
   0  -6   3   91.84    6.95
   0   6  -3   88.75    6.34
   0  -6   3   86.34    2.74
   0   6  -3   95.16    7.57
   0  -6   3   89.83    5.49
   0  -6   2  278.38   11.88
   0  -6   2  262.76    8.10
   0  -6   2  259.66   10.10
   0  -6   2  274.03   12.40
   0   6  -2  256.54   10.67
   0  -6   2  262.81   11.67
   0  -6   2  255.48   11.60
   0   6  -2  265.32    6.80
   0   6  -2  266.64   12.48
   0   6  -1   57.10    5.11
   0  -6   1   53.09    5.16
   0  -6   1   47.87    4.18
   0  -6   1   61.95    6.02
   0  -6   1   54.86    5.41
   0   6  -1   65.44    6.19
   0  -6   1   51.52    2.03
   0  -6   1   54.32    5.50
   0   6  -1   59.15    3.80
   0  -6   1   62.74    3.09
   0  -6   0 1200.33   19.21
   0  -6   0 1229.58   25.86
   0  -6   0 1165.50   12.48
   0  -6   0 1152.18   23.74
   0   6   0 1221.63   23.73
   0  -6   0 1248.12   26.55
   0  -6   0 1252.23   27.39
   0   6   0 1222.53   19.36
   0   6   0 1179.07   20.98
   0   6   1   11.65    2.06
   0   6   1    7.81    2.71
   0  -6  -1    4.91    1.81
   0   6   1    9.36    2.25
   0   6   1   11.09    2.10
   0  -6  -1    7.58    1.51
   0  -6  -1   10.92    2.77
   0  -6  -1   14.03    3.14
   0  -6  -1    9.77    2.53
   0  -6  -1    9.69    1.45
   0  -6  -2   19.98    3.56
   0   6   2   16.54    3.29
   0  -6  -2   19.87    3.65
   0   6   2   16.82    2.18
   0  -6  -2   15.74    2.98
   0   6   2   16.03    2.74
   0  -6  -2   19.28    2.12
   0  -6  -2   21.02    3.84
   0   6   2   14.79    2.76
   0  -6  -3   15.98    3.31
   0   6   3   15.90    3.39
   0   6   3   15.20    2.76
   0   6   3   17.43    1.96
   0  -6  -3   11.00    2.96
   0  -6  -3   18.95    1.89
   0  -6  -3   19.73    3.59
   0  -6  -3   19.19    3.18
   0  -6  -4    8.24    2.63
   0  -6  -4    2.85    2.06
   0  -6  -4    2.05    1.32
   0   6   4    1.52    1.39
   0  -6  -4    4.46    1.84
   0   6   4    6.66    2.08
   0  -6  -5   70.55    6.95
   0   6   5   76.50    6.93
   0   6   5   69.06    6.62
   0  -6  -5   60.85    7.02
   0  -6  -6   62.08    7.37
   0  -6  -6   62.39    6.88
   0   6   6   73.05    7.09
   0  -6  -7   14.80    4.04
   0  -6  -7   19.95    4.16
   0   6   7   13.97    3.43
   0  -6  -8    1.52    2.20
   0  -6  -8   -1.26    1.97
   0   6   8   -0.97    1.34
   0  -6  -9    1.37    1.59
   0  -6  -9    2.22    2.18
   0   6   9    2.33    1.99
   0  -6 -10  171.18   14.37
   0   6  10  180.63   13.46
   0  -6 -10  176.33   13.71
   0   6  11   -2.11    1.86
   0  -6 -11    2.41    2.68
   0  -6 -11    0.67    1.41
   0  -6 -12   14.35    4.89
   0  -6 -12   13.66    4.24
   0   6  12   12.73    3.76
   0   6  13   19.58    5.08
   0  -6 -13   19.24    5.27
   0  -6 -13   21.56    5.53
   0  -6 -14   -0.81    3.39
   0   7 -17    9.06    3.21
   0   7 -16   39.37    6.95
   0  -7  16   40.03    7.16
   0   7 -16   28.55    5.32
   0  -7  16   41.95    7.97
   0  -7  16   42.77    8.91
   0   7 -15   26.78    5.03
   0  -7  15   34.14    6.81
   0  -7  15   24.99    5.60
   0  -7  15   33.59    7.55
   0   7 -15   32.15    6.05
   0  -7  14    4.11    2.48
   0  -7  14    2.74    2.59
   0   7 -14    2.09    1.89
   0   7 -14    3.97    2.35
   0  -7  14    3.96    3.02
   0   7 -13   -2.21    2.13
   0  -7  13    4.27    3.42
   0   7 -13   -0.51    1.86
   0  -7  13    6.57    3.38
   0  -7  13    0.49    1.84
   0   7 -12    2.43    1.78
   0  -7  12   -0.12    1.77
   0   7 -12    0.15    1.25
   0  -7  12   -1.42    2.39
   0  -7  11    8.22    3.30
   0  -7  11   11.14    3.33
   0   7 -11   11.59    3.30
   0  -7  11    5.42    2.90
   0   7 -11    7.71    2.81
   0  -7  10    6.28    2.41
   0   7 -10    7.49    2.49
   0  -7  10   -0.91    2.08
   0   7 -10    9.43    2.77
   0  -7  10    6.30    2.68
   0   7  -9   22.98    4.15
   0  -7   9   25.41    4.47
   0  -7   9   20.42    4.48
   0   7  -9   26.72    4.55
   0  -7   9   22.04    4.44
   0  -7   9   18.05    3.54
   0   7  -8  171.13   10.52
   0   7  -8  162.84   10.88
   0  -7   8  165.13   11.48
   0  -7   8  174.98   10.44
   0  -7   8  157.18   11.07
   0  -7   8  174.59   11.38
   0  -7   7   10.78    3.13
   0  -7   7    4.04    2.26
   0  -7   7   10.63    2.98
   0  -7   7   10.76    2.73
   0   7  -7    9.41    3.09
   0   7  -7   10.97    2.88
   0  -7   6  112.85    8.78
   0  -7   6  123.12    9.06
   0   7  -6  128.14    8.65
   0   7  -6  113.68    9.09
   0  -7   6  118.98    8.48
   0  -7   6  118.64    8.48
   0  -7   5  101.78    7.83
   0   7  -5   96.30    8.30
   0  -7   5  102.44    7.94
   0   7  -5  104.24    7.65
   0  -7   5  115.45    7.68
   0  -7   5  111.35    8.57
   0  -7   4   82.50    7.12
   0  -7   4   91.22    7.65
   0  -7   4  100.61    7.50
   0   7  -4  108.00    7.66
   0   7  -4  101.08    8.41
   0   7  -3   44.22    5.66
   0   7  -3   44.98    4.90
   0  -7   3   49.27    4.15
   0  -7   3   36.27    4.40
   0  -7   3   37.57    5.01
   0  -7   3   50.83    5.65
   0  -7   3   41.72    5.09
   0  -7   2   56.02    6.05
   0   7  -2   57.43    3.45
   0   7  -2   56.46    6.38
   0  -7   2   51.05    5.70
   0  -7   2   47.95    4.68
   0  -7   2   59.12    6.57
   0   7  -2   61.62    5.75
   0  -7   2   52.81    5.73
   0   7  -1  968.84   25.73
   0  -7   1  964.08   23.93
   0  -7   1  981.33   24.97
   0  -7   1  976.80   20.04
   0  -7   1 1023.89   26.60
   0   7  -1  990.83   22.94
   0   7  -1  988.23   16.68
   0  -7   1  962.91   25.00
   0   7   0  364.25   14.11
   0  -7   0  373.66   15.63
   0   7   0  363.26   12.62
   0  -7   0  356.63   11.32
   0  -7   0  394.86   16.76
   0   7   0  354.85   15.75
   0  -7   0  365.08   14.65
   0   7   0  384.03   11.58
   0  -7   0  370.22   15.67
   0  -7  -1  287.63   14.63
   0  -7  -1  311.86   14.60
   0   7   1  312.56   11.44
   0  -7  -1  311.13   13.41
   0  -7  -1  312.24    9.84
   0  -7  -1  302.67   14.41
   0   7   1  298.88   10.66
   0   7   1  306.64   13.16
   0   7   1  284.60   14.13
   0   7   2  632.15   21.14
   0   7   2  613.61   18.91
   0  -7  -2  637.00   19.18
   0  -7  -2  644.99   21.43
   0  -7  -2  615.47   20.75
   0   7   2  616.64   14.08
   0  -7  -2  623.95   21.96
   0   7   2  618.52   17.31
   0  -7  -3   13.47    2.87
   0  -7  -3   18.81    3.88
   0  -7  -3   15.61    3.74
   0   7   3   23.25    3.86
   0   7   3   17.74    3.22
   0  -7  -3   17.34    3.81
   0   7   3   17.95    3.86
   0   7   4   20.76    4.05
   0  -7  -4   26.38    3.96
   0   7   4   25.20    4.07
   0  -7  -4   25.30    4.62
   0  -7  -4   24.13    4.46
   0  -7  -4   29.80    5.19
   0   7   5    6.48    2.28
   0  -7  -5    7.24    2.43
   0  -7  -5    4.04    2.39
   0   7   5    6.69    2.32
   0  -7  -6   16.48    4.02
   0   7   6   11.33    3.20
   0  -7  -6    9.39    3.25
   0   7   6   19.24    4.03
   0  -7  -7  303.02   18.03
   0   7   7  338.05   16.98
   0  -7  -7  313.61   16.95
   0   7   8   22.44    4.71
   0  -7  -8   13.92    3.89
   0  -7  -8   19.16    4.96
   0  -7  -9  274.41   17.31
   0   7   9  309.58   17.50
   0  -7  -9  279.34   18.59
   0   7  10   68.01    8.64
   0  -7 -10   50.85    8.38
   0  -7 -10   59.74    8.56
   0  -7 -11    0.43    1.92
   0  -7 -11    5.28    3.04
   0   7  11    4.54    2.79
   0  -7 -12   -2.29    2.93
   0   7  12   -2.48    2.45
   0  -7 -12   -0.37    2.35
   0  -7 -13   33.09    7.25
   0   8 -16   36.77    6.22
   0  -8  15   29.23    7.26
   0  -8  15   33.74    7.16
   0  -8  15   39.80    7.25
   0   8 -15   35.51    6.58
   0   8 -15   33.63    5.93
   0  -8  14   42.04    8.13
   0   8 -14   35.84    6.12
   0   8 -14   34.25    6.16
   0  -8  14   42.75    7.80
   0  -8  14   33.70    6.58
   0   8 -13   12.19    3.57
   0  -8  13    8.12    3.75
   0  -8  13   12.62    4.02
   0   8 -13   15.16    4.21
   0  -8  13    9.21    3.64
   0  -8  12   51.02    7.59
   0  -8  12   57.04    8.45
   0   8 -12   43.19    6.39
   0   8 -12   52.34    7.07
   0  -8  12   50.86    8.11
   0  -8  11  211.11   14.66
   0  -8  11  202.77   15.28
   0  -8  11  207.03   14.99
   0   8 -11  227.86   14.29
   0   8 -11  220.57   13.91
   0  -8  10    7.92    3.13
   0   8 -10   13.80    3.52
   0   8 -10   19.57    4.36
   0  -8  10   10.93    3.59
   0  -8  10    9.61    3.41
   0   8  -9  559.01   20.68
   0  -8   9  565.15   22.86
   0   8  -9  565.48   21.88
   0  -8   9  533.88   19.57
   0  -8   9  559.49   22.56
   0  -8   9  557.67   22.86
   0  -8   8    0.05    1.29
   0  -8   8    1.99    1.53
   0  -8   8    1.06    1.83
   0   8  -8    2.44    2.06
   0  -8   8    1.23    1.59
   0   8  -8    2.54    1.85
   0  -8   7   62.12    6.77
   0   8  -7   76.88    7.41
   0  -8   7   60.86    6.70
   0   8  -7   67.24    7.50
   0  -8   7   68.71    7.63
   0  -8   7   76.32    7.83
   0   8  -6  118.85    9.93
   0  -8   6   99.69    7.86
   0  -8   6  111.62    9.43
   0  -8   6  121.34    9.53
   0   8  -6  105.19    8.37
   0  -8   6  111.56    8.92
   0   8  -5    7.64    2.53
   0  -8   5    5.98    2.52
   0  -8   5    7.16    2.31
   0   8  -5    9.72    3.20
   0  -8   5    5.25    1.98
   0   8  -4  133.07   10.36
   0  -8   4  125.94    9.76
   0  -8   4  121.07    9.36
   0  -8   4  129.13    9.05
   0   8  -4  130.66    8.97
   0   8  -3   30.11    4.47
   0  -8   3   33.74    5.07
   0  -8   3   35.00    5.24
   0  -8   3   28.24    4.69
   0   8  -3   33.74    5.36
   0   8  -2   64.74    7.31
   0   8  -2   69.87    6.60
   0  -8   2   56.59    6.55
   0  -8   2   63.49    6.72
   0  -8   2   64.78    7.32
   0  -8   2   52.43    5.28
   0  -8   2   58.36    6.54
   0   8  -1    2.08    1.26
   0   8  -1    3.17    1.59
   0  -8   1    4.63    2.14
   0   8  -1    7.87    2.70
   0  -8   1    3.36    2.20
   0  -8   1    9.26    2.83
   0  -8   1    3.57    1.51
   0  -8   1    5.96    2.31
   0  -8   0   17.92    2.76
   0   8   0   17.74    3.23
   0  -8   0   23.13    4.05
   0  -8   0   21.91    4.32
   0  -8   0   22.44    4.52
   0   8   0   19.26    4.18
   0  -8   0   25.10    4.63
   0   8   0   21.99    4.19
   0   8   0   21.05    2.94
   0   8   0   24.99    4.11
   0  -8  -1   95.76    8.74
   0   8   1   98.40    8.02
   0   8   1   94.48    8.82
   0  -8  -1   86.15    7.74
   0  -8  -1   84.54    8.64
   0   8   1   83.73    6.16
   0   8   1   77.69    7.98
   0  -8  -1   97.10    8.83
   0  -8  -2   30.21    5.05
   0   8   2   26.90    3.87
   0   8   2   24.50    4.54
   0  -8  -2   20.99    4.20
   0  -8  -2   22.47    4.78
   0  -8  -2   23.97    4.09
   0   8   2   24.15    4.16
   0  -8  -3   49.83    6.66
   0   8   3   47.03    5.37
   0  -8  -3   45.11    6.69
   0   8   3   41.35    5.39
   0  -8  -3   40.23    5.95
   0   8   3   48.20    6.49
   0  -8  -3   51.20    5.94
   0  -8  -4    8.85    2.97
   0   8   4   10.70    3.21
   0  -8  -4    9.01    3.58
   0   8   4    7.96    2.52
   0  -8  -4   10.87    2.97
   0   8   4    7.23    2.32
   0  -8  -4   11.02    3.30
   0  -8  -5   61.58    8.20
   0   8   5   67.49    7.16
   0   8   5   53.32    6.85
   0  -8  -5   58.74    7.47
   0   8   6    6.31    2.42
   0  -8  -6    6.33    2.83
   0   8   6    3.96    2.15
   0  -8  -6   10.69    3.61
   0   8   7   22.20    4.49
   0  -8  -7   27.78    5.48
   0  -8  -8  109.48   12.00
   0  -8  -8  112.69   11.48
   0   8   8  133.40   11.55
   0  -8  -9    1.01    2.10
   0  -8  -9   -4.42    2.93
   0   8   9    0.27    1.68
   0   8  10    1.84    1.66
   0  -8 -10    1.34    1.82
   0  -8 -11   36.73    7.87
   0  -8 -11   41.03    7.91
   0   8  11   35.23    6.53
   0  -9  15   22.26    6.62
   0   9 -14   42.06    6.83
   0  -9  14   39.58    7.42
   0   9 -14   33.00    6.34
   0  -9  14   45.63    8.57
   0  -9  14   34.11    7.24
   0  -9  13    1.11    2.27
   0   9 -13    0.70    1.60
   0  -9  13   -5.39    3.22
   0  -9  13    4.88    3.11
   0   9 -13    1.73    2.34
   0  -9  12   40.98    7.57
   0   9 -12   42.62    6.78
   0  -9  12   43.94    7.30
   0   9 -12   41.13    6.68
   0  -9  12   53.40    8.48
   0  -9  11   99.63   10.92
   0  -9  11   93.12   10.64
   0   9 -11  103.23    9.98
   0  -9  11  109.69   11.39
   0   9 -11  103.60   10.29
   0   9 -10    6.36    3.01
   0  -9  10    0.89    1.36
   0  -9  10    4.33    2.83
   0   9 -10    8.48    3.22
   0  -9  10    7.78    2.98
   0  -9   9    7.13    2.74
   0  -9   9    5.20    2.89
   0  -9   9    7.43    2.97
   0   9  -9    8.20    2.85
   0   9  -9    9.79    3.46
   0   9  -8   -1.25    1.96
   0  -9   8    0.16    1.10
   0  -9   8    2.01    1.58
   0  -9   8    0.02    1.27
   0   9  -8    0.78    1.58
   0   9  -7   -1.06    1.90
   0  -9   7    1.96    1.62
   0  -9   7    2.41    1.97
   0  -9   7   -0.94    1.80
   0   9  -7    4.79    2.63
   0  -9   6   67.53    7.47
   0   9  -6   67.05    7.07
   0   9  -6   59.14    7.47
   0  -9   6   55.75    7.17
   0  -9   6   54.10    6.74
   0   9  -5   14.26    3.90
   0  -9   5    8.87    2.81
   0   9  -5    8.35    2.54
   0  -9   5   13.12    3.46
   0  -9   5    8.96    2.79
   0  -9   4   68.62    7.74
   0   9  -4   74.67    8.38
   0  -9   4   57.39    6.40
   0   9  -4   67.11    6.96
   0  -9   4   66.52    7.48
   0  -9   3    2.05    1.68
   0   9  -3    1.50    1.59
   0   9  -3    2.00    1.75
   0  -9   3    1.87    1.17
   0  -9   3   -0.32    1.36
   0   9  -3    0.12    1.36
   0  -9   3    0.74    1.48
   0   9  -2  130.38    9.57
   0  -9   2  127.04   10.47
   0   9  -2  154.49   11.94
   0   9  -2  137.27    9.63
   0  -9   2  139.68   10.82
   0  -9   2  150.65   11.21
   0  -9   2  155.18   12.16
   0  -9   2  140.96    9.06
   0  -9   1   51.68    6.56
   0   9  -1   55.13    7.28
   0  -9   1   61.78    7.37
   0   9  -1   60.66    6.18
   0   9  -1   62.19    6.70
   0  -9   1   62.74    7.40
   0  -9   1   63.65    7.87
   0   9   0   50.89    7.03
   0  -9   0   76.31    8.35
   0  -9   0   61.70    7.50
   0   9   0   69.89    8.14
   0   9   0   80.20    7.64
   0  -9   0   62.50    7.13
   0  -9   0   78.23    8.93
   0   9   1  121.14   10.55
   0  -9  -1  139.29   11.43
   0  -9  -1  146.80   12.37
   0  -9  -1  131.14   10.17
   0   9   1  134.50   11.34
   0   9   1  142.58   10.31
   0  -9  -1  140.92   11.48
   0  -9  -2   -0.82    2.37
   0   9   2    2.28    1.82
   0  -9  -2    4.54    2.38
   0  -9  -2   -1.27    1.46
   0   9   2   -0.73    1.64
   0   9   2    0.22    1.07
   0  -9  -2   -4.56    2.38
   0   9   3    5.57    2.13
   0  -9  -3    3.97    2.64
   0  -9  -3    1.77    2.00
   0   9   3    5.05    2.23
   0   9   3    3.23    1.78
   0  -9  -3    6.63    2.60
   0  -9  -3    4.13    2.67
   0   9   3    2.01    1.73
   0   9   4   10.73    3.07
   0   9   4   13.71    3.22
   0  -9  -4   12.96    3.81
   0  -9  -4    8.03    3.05
   0   9   4    4.94    2.64
   0  -9  -4   15.85    3.73
   0  -9  -4    7.44    3.38
   0  -9  -5   54.83    8.33
   0   9   5   58.79    6.94
   0   9   5   47.61    6.98
   0  -9  -5   55.13    7.72
   0  -9  -6  127.67   12.88
   0   9   6  138.44   11.95
   0  -9  -6  131.53   12.24
   0   9   6  127.38   10.58
   0  -9  -7    7.16    3.59
   0  -9  -7    9.85    3.62
   0   9   7    9.25    3.13
   0  -9  -8  284.30   20.19
   0  -9  -8  280.69   19.03
   0   9   8  275.71   17.13
   0  -9  -9    5.56    3.55
   0  -9  -9    4.85    2.83
   0   9   9    6.68    3.12
   0  -9 -10    1.79    2.20
   0   9  10    1.74    1.89
   0 -10  13    4.66    3.14
   0  10 -13   -2.99    2.70
   0 -10  13   -1.66    2.66
   0  10 -13   -0.98    1.91
   0 -10  12   47.77    8.10
   0  10 -12   34.59    6.24
   0 -10  12   48.58    8.21
   0  10 -12   35.29    6.41
   0 -10  11  213.79   16.73
   0 -10  11  210.13   16.39
   0  10 -11  235.08   16.34
   0  10 -11  215.28   14.86
   0 -10  10    9.97    3.60
   0  10 -10   10.29    3.42
   0 -10  10    8.91    3.77
   0  10 -10   15.57    4.57
   0  10  -9  255.04   15.39
   0 -10   9  248.10   16.80
   0  10  -9  265.00   17.02
   0 -10   9  247.62   17.13
   0 -10   8   99.84   10.70
   0 -10   8  114.40   11.02
   0  10  -8  106.18   10.81
   0  10  -8   90.49    8.98
   0 -10   7   30.83    5.82
   0 -10   7   20.35    4.52
   0  10  -7   26.27    5.31
   0  10  -7   18.60    4.13
   0 -10   7   15.27    3.82
   0  10  -6   58.16    7.92
   0 -10   6   46.02    7.08
   0  10  -6   57.92    7.04
   0 -10   6   42.13    6.39
   0 -10   6   42.31    6.28
   0  10  -5   13.15    3.36
   0  10  -5    7.75    3.18
   0 -10   5    7.59    2.71
   0 -10   5    4.49    2.39
   0 -10   5    6.44    2.62
   0 -10   4  385.90   17.32
   0 -10   4  368.36   18.79
   0  10  -4  382.18   17.43
   0 -10   4  347.06   18.64
   0  10  -4  341.40   17.12
   0  10  -4  377.58   19.99
   0  10  -3   75.68    9.08
   0  10  -3   77.35    7.84
   0 -10   3   63.07    7.95
   0  10  -3   64.02    7.20
   0 -10   3   72.50    8.53
   0 -10   3   73.32    8.64
   0 -10   2  506.79   21.86
   0  10  -2  493.12   19.70
   0 -10   2  545.88   24.48
   0  10  -2  512.33   23.01
   0 -10   2  516.95   22.58
   0 -10   2  469.10   21.59
   0  10  -1   14.49    4.11
   0  10  -1   27.02    4.70
   0 -10   1   25.57    5.29
   0  10  -1   24.16    5.23
   0 -10   1   24.06    4.89
   0 -10   1   17.53    4.46
   0 -10   1   27.66    5.97
   0  10   0   30.07    5.11
   0  10   0   23.15    5.12
   0 -10   0   26.12    5.32
   0 -10   0   29.28    5.80
   0  10   0   24.85    5.32
   0 -10   0   29.14    5.81
   0 -10   0   27.73    5.31
   0 -10  -1  118.10   10.39
   0 -10  -1  111.35   11.01
   0  10   1  102.19   10.58
   0  10   1   97.49   10.20
   0 -10  -1  113.72   11.68
   0 -10  -1  114.73   11.16
   0  10   2   -1.89    1.89
   0 -10  -2    1.62    2.68
   0 -10  -2    0.02    1.63
   0  10   2    0.63    1.57
   0 -10  -2    1.81    2.04
   0 -10  -2    1.15    1.72
   0 -10  -3  153.17   13.20
   0  10   3  123.10   11.29
   0 -10  -3  148.30   13.17
   0 -10  -3  151.58   11.70
   0  10   3  162.50   13.43
   0 -10  -3  171.74   14.68
   0 -10  -4    1.77    1.89
   0  10   4   -0.89    1.46
   0 -10  -4    0.48    1.81
   0 -10  -4   -1.59    2.50
   0  10   4   -0.22    2.24
   0 -10  -5  170.18   15.40
   0 -10  -5  190.15   15.39
   0  10   5  174.98   14.02
   0 -10  -6    2.63    2.03
   0  10   6    7.35    3.47
   0 -10  -6    3.86    2.64
   0 -10  -7    0.73    1.71
   0 -10  -7    5.18    3.26
   0  10   8   12.84    3.94
   0 -10  -8   10.65    4.30
   0 -10  -8   11.90    4.33
   0  10   9    0.26    1.81
   0  11 -12    6.04    3.04
   0  11 -11   20.02    5.33
   0 -11  11   13.25    4.42
   0  11 -11   12.04    3.87
   0 -11  11   13.56    4.19
   0  11 -10   39.54    7.15
   0 -11  10   36.64    7.24
   0  11 -10   31.36    5.68
   0 -11  10   35.11    6.84
   0  11  -9   -0.24    2.07
   0 -11   9    2.78    2.44
   0  11  -9    0.60    0.91
   0 -11   9   -0.75    2.16
   0  11  -8   31.31    5.65
   0 -11   8   13.00    3.84
   0 -11   8   21.91    5.47
   0  11  -8   25.29    5.61
   0  11  -7   99.31    9.65
   0  11  -7   83.58   10.04
   0 -11   7   80.06    9.94
   0 -11   7   76.32    9.10
   0  11  -6   27.15    5.46
   0  11  -6   19.66    5.00
   0 -11   6   25.26    5.33
   0 -11   6   20.73    4.99
   0  11  -6   24.36    4.83
   0 -11   5   13.08    3.98
   0 -11   5    8.63    3.45
   0  11  -5   12.19    3.65
   0  11  -5   17.44    4.24
   0  11  -5    9.88    3.65
   0 -11   4   21.71    5.04
   0 -11   4   16.84    4.70
   0  11  -4   23.51    5.48
   0 -11   3   49.82    7.58
   0 -11   3   52.28    7.77
   0 -11   3   42.84    7.03
   0  11  -3   47.57    7.56
   0 -11   2   26.70    5.78
   0 -11   2   26.82    5.60
   0 -11   2   30.75    6.10
   0  11  -2   18.42    5.05
   0  11  -2   19.94    4.84
   0 -11   1    0.34    1.82
   0  11  -1   -0.27    2.20
   0  11  -1    2.20    2.54
   0 -11   1    1.80    2.61
   0 -11   1    0.02    1.44
   0 -11   1    0.95    1.56
   0  11   0   18.68    4.90
   0 -11   0   22.40    5.06
   0  11   0   12.95    3.96
   0 -11   0   22.22    5.87
   0 -11   0   15.93    4.46
   0 -11   0   19.45    5.03
   0  11   1   12.55    3.93
   0 -11  -1   13.45    4.10
   0 -11  -1   13.48    3.83
   0  11   1   10.34    3.65
   0 -11  -1   10.27    3.80
   0 -11  -1    7.23    3.14
   0 -11  -2   88.77   10.57
   0 -11  -2   66.32    9.19
   0 -11  -2   67.64    8.40
   0  11   2   78.58    9.61
   0 -11  -2   70.67   10.08
   0  11   2   75.88    9.64
   0 -11  -3   12.87    4.38
   0 -11  -3   22.43    5.00
   0  11   3   22.07    5.54
   0 -11  -3   18.23    5.50
   0  11   3   23.27    5.24
   0  11   4   -1.56    2.63
   0 -11  -4   -1.45    1.56
   0 -11  -4    1.89    3.17
   0 -11  -5    5.11    3.34
   0 -11  -5    6.21    3.57
   0  11   5    1.39    1.92
   0 -12  10   28.14    6.45
   0  12  -9    4.57    2.58
   0 -12   9    2.88    2.23
   0  12  -8    4.82    2.68
   0 -12   8    3.73    2.33
   0  12  -7   -4.45    2.75
   0  12  -7   -5.22    2.80
   0 -12   7    2.93    2.42
   0 -12   6   82.55   10.57
   0  12  -6   76.58   10.03
   0  12  -5   -1.35    2.83
   0 -12   5   -4.12    2.42
   0 -12   5   -0.78    2.18
   0 -12   4   86.80   10.37
   0 -12   4   91.14   10.85
   0  12  -4   72.16    9.77
   0 -12   3  127.73   12.75
   0 -12   3  112.83   11.78
   0  12  -3  125.98   13.01
   0  12  -3  111.22   11.99
   0 -12   2   20.00    5.43
   0  12  -2   18.20    4.90
   0 -12   2   18.92    4.91
   0  12  -2   22.78    5.89
   0 -12   2   12.47    4.57
   0  12  -1    3.51    2.16
   0 -12   1    8.08    3.68
   0 -12   1    6.85    3.31
   0  12  -1    4.67    2.76
   0 -12   1    4.55    2.66
   0 -12   1    1.22    2.22
   0  12   0    6.04    2.78
   0 -12   0    7.09    3.70
   0 -12   0    2.56    2.26
   0 -12   0    1.61    1.83
   0  12   0    5.38    2.95
   0 -12   0   10.86    4.34
   0 -12  -1  246.57   18.19
   0  12   1  206.01   16.81
   0 -12  -1  228.03   17.53
   0  12   1  219.68   16.50
   0 -12  -1  199.89   15.19
   0 -12  -1  207.23   17.72
   0 -12  -2   52.39    7.70
   0 -12  -2   47.38    8.33
   0 -13   3    6.02    3.25
   0 -13   2   23.20    5.97
   1 -13   2    5.81    3.34
   1 -13   2    2.15    1.85
   1 -13   3  135.58   13.31
   1 -13   4    5.80    2.89
   1 -13   5  175.41   15.62
  -1  12   3   43.80    7.65
  -1  12   3   56.97    8.87
   1 -12  -2   11.49    4.41
  -1  12   2    8.97    3.64
   1 -12  -2    8.56    3.67
  -1  12   2   12.34    4.11
   1 -12  -1    7.67    3.71
   1 -12  -1   16.13    5.38
  -1  12   1    8.87    3.62
  -1  12   1    9.35    3.68
   1 -12   0   91.22   10.70
   1 -12   0   96.98   10.22
  -1  12   0  115.31   12.35
   1 -12   0  103.71   11.76
   1 -12   0   96.66   11.98
  -1  12   0   94.39   11.46
   1 -12   1   39.70    7.08
   1 -12   1   43.18    7.67
  -1  12  -1   36.43    7.25
  -1  12  -1   32.32    6.78
   1 -12   1   37.73    6.55
   1 -12   2   21.23    5.33
   1 -12   2   21.18    5.31
   1 -12   2   14.60    4.21
  -1  12  -2   15.08    4.71
  -1  12  -2   23.04    5.58
  -1  12  -3   19.25    5.32
   1 -12   3   14.62    4.21
   1 -12   3   19.67    5.01
  -1  12  -3   23.42    5.81
   1 -12   4    0.79    2.05
  -1  12  -4    0.16    1.71
  -1  12  -4    2.29    2.31
   1 -12   5    9.49    3.46
  -1  12  -5   10.08    3.43
  -1  12  -5   16.05    4.76
   1 -12   6    0.84    2.43
  -1  12  -6    5.93    2.81
  -1  12  -6   -1.58    2.71
  -1  12  -7   -0.77    2.06
   1 -12   7    3.70    2.81
  -1  12  -7    2.99    2.40
  -1  12  -8    1.22    1.78
  -1  12  -8    1.53    2.45
   1 -12   8    2.80    2.37
   1 -12   8   -0.60    1.97
  -1  12  -9    5.80    2.60
   1 -12   9    8.97    3.63
   1 -12   9   14.28    4.69
  -1  12 -10    6.12    3.02
   1 -12  10   -1.62    1.99
   1 -11  -6   11.54    4.87
   1 -11  -6   16.33    5.04
   1 -11  -5   -0.32    1.40
  -1  11   5   -1.51    2.03
   1 -11  -5   -1.54    1.99
   1 -11  -4    0.63    2.98
   1 -11  -4   -5.67    3.29
  -1  11   4    3.01    2.22
  -1  11   4    4.76    2.97
   1 -11  -3    9.47    3.68
  -1  11   3    7.68    3.16
   1 -11  -3    3.12    1.97
  -1  11   3    4.08    2.18
  -1  11   2    0.59    2.70
   1 -11  -2    0.02    2.12
  -1  11   2    2.10    1.64
   1 -11  -2   -0.07    2.38
   1 -11  -2    1.02    2.00
   1 -11  -1    4.34    3.26
   1 -11  -1    0.08    1.46
  -1  11   1    1.64    1.68
   1 -11  -1   -0.80    1.34
  -1  11   1    1.38    1.06
  -1  11   1   -1.00    1.24
   1 -11  -1    1.63    2.08
  -1  11   0   -0.41    1.59
   1 -11   0    1.33    2.10
   1 -11   0   -7.53    3.22
  -1  11   0   -0.08    2.13
  -1  11   0   -2.34    2.07
   1 -11   0   -0.05    1.47
   1 -11   0   -3.07    2.36
  -1  11  -1   52.88    8.09
  -1  11  -1   70.42    9.38
   1 -11   1   46.39    7.51
   1 -11   1   64.58    9.06
  -1  11  -1   63.09    7.89
   1 -11   1   60.12    7.76
   1 -11   1   80.21    9.38
   1 -11   2    3.24    2.30
   1 -11   2    3.99    2.51
  -1  11  -2    0.69    1.39
   1 -11   2    3.25    3.01
  -1  11  -2   -2.54    2.48
  -1  11  -2   -1.19    3.03
  -1  11  -3  275.21   18.31
   1 -11   3  268.69   17.46
  -1  11  -3  281.10   16.53
   1 -11   3  267.28   16.36
   1 -11   3  241.41   15.93
   1 -11   4    4.63    2.03
  -1  11  -4    4.95    2.31
  -1  11  -4    7.86    3.27
   1 -11   4    6.35    2.83
   1 -11   5   93.39    9.49
  -1  11  -5   88.20    9.20
   1 -11   5   75.93    9.23
  -1  11  -5   86.23   10.37
   1 -11   6   -0.56    1.63
   1 -11   6   -1.50    2.42
  -1  11  -6    1.26    1.36
  -1  11  -6   -1.26    2.55
   1 -11   7    3.11    2.21
  -1  11  -7    1.81    2.00
  -1  11  -7   -1.32    2.69
   1 -11   7   -2.15    2.80
   1 -11   8    8.10    3.26
  -1  11  -8   10.89    3.41
  -1  11  -8   11.02    4.11
   1 -11   8   12.05    3.95
   1 -11   9    5.42    2.90
  -1  11  -9    7.16    2.75
   1 -11   9    0.99    2.14
  -1  11 -10  173.73   13.91
   1 -11  10  162.78   14.68
  -1  11 -10  176.12   14.92
   1 -11  10  171.91   15.26
  -1  11 -11    6.20    2.93
   1 -11  11    5.43    2.85
  -1  11 -11    6.44    2.75
   1 -11  11    6.85    3.13
  -1  11 -12   78.41    9.71
  -1  10   9   15.36    4.32
  -1  10   8   96.53   10.06
   1 -10  -8  130.30   13.74
   1 -10  -8  120.34   13.77
   1 -10  -7   29.69    6.83
   1 -10  -7   29.86    6.45
   1 -10  -6  127.74   12.96
  -1  10   6  125.48   11.86
   1 -10  -6  131.99   13.69
   1 -10  -5   62.18    8.85
   1 -10  -5   66.39    9.54
  -1  10   5   73.03    8.92
  -1  10   5   58.55    7.68
  -1  10   4   -0.25    1.70
   1 -10  -4    0.34    1.82
   1 -10  -4   -1.56    1.90
   1 -10  -4    1.85    2.28
  -1  10   4   -0.27    1.51
   1 -10  -3   95.47   11.09
  -1  10   3   81.77    9.52
  -1  10   3   90.01    9.22
  -1  10   3  114.97   11.07
   1 -10  -3  102.71   10.99
   1 -10  -3  109.97    9.61
   1 -10  -2   74.89    9.06
  -1  10   2   80.90    9.33
   1 -10  -2   83.66   10.11
   1 -10  -2   88.32    9.96
  -1  10   2   89.62   10.08
  -1  10   2   81.61    8.78
   1 -10  -2   97.53    9.01
   1 -10  -1   97.86    9.94
   1 -10  -1  103.11   10.98
   1 -10  -1  100.40   10.50
  -1  10   1  104.68    9.79
  -1  10   1   98.85   10.30
  -1  10   1  102.46   10.66
   1 -10  -1  103.65    9.33
  -1  10   0  241.30   14.69
   1 -10   0  227.48   15.30
  -1  10   0  247.49   16.61
   1 -10   0  251.52   14.72
   1 -10   0  264.22   15.95
   1 -10   0  244.31   16.52
  -1  10   0  221.96   15.10
   1 -10   1   31.52    6.00
   1 -10   1   33.83    5.95
   1 -10   1   26.85    5.03
  -1  10  -1   21.32    4.88
  -1  10  -1   31.36    5.96
   1 -10   1   25.97    4.95
  -1  10  -1   25.34    4.87
   1 -10   2  192.28   13.17
  -1  10  -2  214.73   15.24
   1 -10   2  210.60   14.30
   1 -10   2  195.12   13.36
  -1  10  -2  186.44   12.81
   1 -10   3    9.49    3.14
   1 -10   3    7.13    2.55
   1 -10   3   -0.73    2.30
   1 -10   3    4.47    2.29
  -1  10  -3    3.82    2.24
  -1  10  -3    2.68    1.51
   1 -10   4  210.08   13.49
  -1  10  -4  218.65   15.44
   1 -10   4  204.33   13.92
   1 -10   4  212.86   13.18
  -1  10  -4  216.31   13.80
   1 -10   5   41.84    6.12
  -1  10  -5   39.28    6.52
   1 -10   5   38.28    5.82
  -1  10  -5   46.76    6.56
   1 -10   5   35.48    6.06
  -1  10  -6   97.83    9.45
   1 -10   6   98.65    9.70
   1 -10   6   94.25    9.87
  -1  10  -6  129.80   11.86
   1 -10   7  379.02   19.46
  -1  10  -7  369.35   18.53
   1 -10   7  373.66   19.88
  -1  10  -7  374.26   20.25
  -1  10  -8    4.96    2.61
   1 -10   8    2.96    2.51
  -1  10  -8    1.06    1.84
   1 -10   8   -2.07    2.27
   1 -10   9  185.47   14.57
  -1  10  -9  172.38   13.06
   1 -10   9  177.76   14.34
  -1  10  -9  171.36   13.92
   1 -10  10   10.50    3.83
  -1  10 -10    9.65    3.41
   1 -10  10   10.70    3.79
  -1  10 -10    4.03    2.30
   1 -10  11   79.22   10.18
   1 -10  11   68.57    9.56
  -1  10 -11   85.30    9.96
  -1  10 -11   86.80    9.77
   1 -10  12    1.78    2.38
  -1  10 -12    1.19    1.40
  -1  10 -12    1.94    2.31
   1 -10  12    3.23    3.32
  -1  10 -13   23.74    5.38
   1 -10  13   23.28    5.67
   1 -10  13   22.80    6.06
  -1  10 -13   26.69    5.70
   1  -9 -10   12.47    4.88
   1  -9 -10    8.41    3.83
  -1   9  10    6.88    3.21
   1  -9  -9   12.79    4.21
  -1   9   9   12.30    3.76
   1  -9  -9   20.17    6.08
   1  -9  -8    1.43    2.05
  -1   9   8   -0.10    1.77
  -1   9   7   21.67    4.51
   1  -9  -7   20.20    5.39
   1  -9  -7   21.94    5.17
  -1   9   6   23.16    4.75
  -1   9   6   23.55    4.75
   1  -9  -6   23.81    5.31
  -1   9   6   22.10    4.37
   1  -9  -6   18.38    4.85
  -1   9   5    8.62    3.06
   1  -9  -5   10.98    3.81
  -1   9   5   14.04    3.67
   1  -9  -5   10.58    3.44
  -1   9   5   14.78    3.22
  -1   9   4  110.04    8.66
   1  -9  -4  111.17   10.81
  -1   9   4  107.35   10.05
   1  -9  -4  102.65   10.90
   1  -9  -4  126.98    9.63
  -1   9   4  108.85    9.73
   1  -9  -3   42.20    5.52
  -1   9   3   44.88    6.45
   1  -9  -3   42.61    6.63
  -1   9   3   34.72    5.58
   1  -9  -3   34.23    6.20
   1  -9  -2    1.02    2.11
  -1   9   2    1.99    1.47
   1  -9  -2   -2.80    1.66
   1  -9  -2    1.72    2.01
   1  -9  -2    0.88    1.32
  -1   9   2    0.44    1.13
  -1   9   1    7.93    2.43
   1  -9  -1   15.90    3.90
  -1   9   1   10.37    3.31
   1  -9  -1    8.99    3.12
   1  -9  -1   13.58    3.23
  -1   9   1   10.59    3.29
   1  -9  -1   14.18    3.80
   1  -9   0    7.59    2.37
  -1   9   0   10.02    3.20
   1  -9   0   15.31    3.41
   1  -9   0   10.47    3.63
   1  -9   0   17.22    4.15
  -1   9   0   11.83    3.44
  -1   9   0   15.47    3.70
   1  -9   1  104.92    9.64
  -1   9  -1  115.86   10.71
   1  -9   1  121.80    8.53
   1  -9   1  126.15    9.82
  -1   9  -1  121.70    9.78
   1  -9   1  101.60    9.07
   1  -9   1  123.73   10.73
   1  -9   2    5.50    2.29
  -1   9  -2    6.78    2.89
   1  -9   2    9.53    3.31
   1  -9   2    6.52    2.33
  -1   9  -2    6.38    2.55
   1  -9   2   13.51    3.60
   1  -9   2    8.51    2.41
   1  -9   3    1.18    1.51
   1  -9   3    0.36    1.38
  -1   9  -3    0.16    1.61
   1  -9   3    4.64    2.10
   1  -9   3    2.95    1.70
  -1   9  -3    1.18    1.22
  -1   9  -4  101.28    9.96
   1  -9   4   92.66    8.30
   1  -9   4   96.87    8.96
  -1   9  -4  100.93    8.73
   1  -9   4  106.53    8.91
  -1   9  -5    6.19    2.46
   1  -9   5    5.47    2.18
   1  -9   5    5.09    2.12
   1  -9   5    3.96    1.86
  -1   9  -5    4.65    2.23
   1  -9   6   13.41    3.29
  -1   9  -6   12.51    3.32
   1  -9   6   12.01    3.32
  -1   9  -6   11.72    3.37
   1  -9   6   10.59    3.24
  -1   9  -7   50.64    7.04
   1  -9   7   55.28    7.17
   1  -9   7   57.02    7.20
  -1   9  -7   64.84    7.46
   1  -9   8  111.89   10.36
  -1   9  -8  114.25    9.95
  -1   9  -8  113.69   10.58
   1  -9   8  100.60    9.96
   1  -9   9    6.29    2.88
   1  -9   9   16.36    4.30
   1  -9   9   21.87    5.03
  -1   9  -9   13.56    3.87
  -1   9  -9   23.43    4.72
  -1   9 -10   55.07    7.59
   1  -9  10   41.17    6.93
   1  -9  10   46.63    7.19
  -1   9 -10   64.03    7.82
   1  -9  10   50.85    7.53
   1  -9  11   19.67    5.19
  -1   9 -11   21.60    4.84
  -1   9 -11   25.57    5.24
   1  -9  11   16.62    4.60
   1  -9  11   30.62    6.34
   1  -9  12  195.83   15.87
   1  -9  12  183.04   15.00
  -1   9 -12  187.37   13.98
   1  -9  12  164.94   15.05
  -1   9 -12  207.39   14.84
   1  -9  13    7.71    4.03
  -1   9 -13   10.11    3.50
   1  -9  13    4.68    3.33
  -1   9 -13    5.73    3.03
   1  -9  13   16.07    5.06
   1  -9  14    5.45    3.59
  -1   9 -14   16.16    4.66
  -1   9 -14    7.50    3.32
   1  -9  14   16.53    5.37
   1  -9  14    9.92    4.27
   1  -9  15  122.34   14.74
  -1   9 -15  136.81   12.16
   1  -8 -12    0.99    2.36
   1  -8 -12    1.69    2.48
  -1   8  12   -1.22    1.78
   1  -8 -11   14.93    4.63
  -1   8  11   14.32    4.17
   1  -8 -11    5.00    3.28
   1  -8 -10   20.09    5.79
  -1   8  10   23.23    5.14
   1  -8 -10   20.89    5.32
   1  -8  -9   26.44    5.91
   1  -8  -9   24.45    6.00
  -1   8   9   28.78    5.54
   1  -8  -8   56.30    8.56
   1  -8  -8   75.53    9.34
  -1   8   8   72.16    8.28
   1  -8  -7   18.41    4.78
  -1   8   7   20.48    4.27
   1  -8  -7   16.48    4.35
  -1   8   6   90.74    8.77
   1  -8  -6   85.89    9.86
  -1   8   6  109.81    9.17
   1  -8  -6   87.48    9.47
   1  -8  -5   24.97    4.96
   1  -8  -5   28.64    5.76
  -1   8   5   22.36    4.41
  -1   8   5   29.01    4.55
  -1   8   4    3.16    1.62
   1  -8  -4    2.64    2.00
  -1   8   4    0.24    1.28
   1  -8  -4    2.35    2.20
  -1   8   4    2.38    1.52
   1  -8  -4    1.01    1.25
   1  -8  -3    7.29    2.69
   1  -8  -3    9.25    2.55
  -1   8   3    5.83    1.85
  -1   8   3    7.83    2.91
   1  -8  -3    5.97    2.48
   1  -8  -3    4.90    2.48
  -1   8   3    4.99    2.34
  -1   8   2  320.16   12.31
  -1   8   2  318.55   15.81
   1  -8  -2  334.92   16.04
   1  -8  -2  316.65   13.94
  -1   8   2  290.22   14.65
   1  -8  -2  290.47   15.43
   1  -8  -2  315.31   16.72
   1  -8  -1   45.01    5.84
  -1   8   1   44.13    5.62
  -1   8   1   42.89    5.84
   1  -8  -1   47.00    6.20
   1  -8  -1   35.93    5.62
  -1   8   1   45.24    4.31
   1  -8  -1   41.85    5.13
   1  -8  -1   38.96    4.19
   1  -8   0    1.22    1.39
  -1   8   0    0.77    1.54
   1  -8   0   -0.82    1.25
  -1   8   0    1.90    1.90
   1  -8   0   -0.59    1.27
   1  -8   0   -0.76    2.03
   1  -8   0    0.88    1.94
   1  -8   1  438.89   16.88
   1  -8   1  439.69   17.35
   1  -8   1  454.60   15.42
   1  -8   1  463.42   18.57
  -1   8  -1  445.29   19.44
  -1   8  -1  472.01   17.80
   1  -8   1  470.88   19.40
   1  -8   2   55.97    6.16
   1  -8   2   56.36    6.79
  -1   8  -2   60.11    6.35
  -1   8  -2   66.54    7.57
   1  -8   2   56.08    5.72
   1  -8   2   66.70    7.03
   1  -8   2   68.14    6.77
   1  -8   3   13.71    3.55
  -1   8  -3   21.17    3.97
   1  -8   3   11.86    2.66
   1  -8   3   14.30    3.22
  -1   8  -3   14.12    3.64
   1  -8   3   12.53    3.00
   1  -8   4  623.43   21.26
   1  -8   4  582.31   19.55
   1  -8   4  576.75   19.13
   1  -8   4  565.96   19.95
  -1   8  -4  588.71   19.83
  -1   8  -4  609.62   22.58
   1  -8   5  505.97   19.34
  -1   8  -5  544.06   19.33
   1  -8   5  519.77   17.97
  -1   8  -5  542.45   21.34
   1  -8   5  526.14   19.36
   1  -8   6  307.24   15.31
  -1   8  -6  323.18   16.39
   1  -8   6  316.82   15.46
  -1   8  -6  333.52   15.32
   1  -8   6  335.98   14.91
   1  -8   6  333.87   14.24
   1  -8   7  101.04    8.79
  -1   8  -7  127.01    9.76
   1  -8   7  118.98    9.71
   1  -8   7  119.18    8.48
  -1   8  -7  125.55   10.32
   1  -8   7  119.43    9.97
   1  -8   8  320.74   16.38
  -1   8  -8  340.83   16.88
  -1   8  -8  330.06   15.87
   1  -8   8  307.63   16.44
   1  -8   8  313.65   16.36
  -1   8  -9   28.14    5.08
   1  -8   9   21.17    4.78
  -1   8  -9   28.20    4.84
   1  -8   9   27.19    4.96
   1  -8   9   23.37    4.84
   1  -8  10   40.61    6.65
  -1   8 -10   32.81    5.64
   1  -8  10   28.25    5.75
   1  -8  10   43.81    6.52
  -1   8 -10   34.09    5.55
  -1   8 -11    0.81    1.46
   1  -8  11    3.09    2.50
   1  -8  11    1.21    1.71
  -1   8 -11    1.65    1.68
   1  -8  11    4.38    2.61
   1  -8  12   64.47    9.31
  -1   8 -12   63.66    7.68
   1  -8  12   66.81    8.56
   1  -8  12   65.16    8.89
  -1   8 -12   70.96    8.37
   1  -8  13   17.23    5.31
  -1   8 -13   22.24    5.09
   1  -8  13   21.61    5.39
   1  -8  13   16.61    4.58
  -1   8 -13   18.79    4.34
  -1   8 -14  212.88   15.37
   1  -8  14  198.75   16.61
   1  -8  14  224.30   18.84
  -1   8 -14  201.75   13.95
   1  -8  14  201.54   15.91
   1  -8  15    9.78    3.40
   1  -8  15   19.30    5.69
  -1   8 -15   14.83    4.36
   1  -8  15   18.43    5.88
  -1   8 -15   18.00    4.75
  -1   8 -16    9.81    3.62
  -1   7  13   62.97    9.05
   1  -7 -13   75.20   10.66
   1  -7 -13   65.38   10.37
   1  -7 -12    1.76    1.74
   1  -7 -12    3.92    2.85
  -1   7  12    2.78    2.12
  -1   7  11   70.79    8.95
   1  -7 -11   63.37    9.45
   1  -7 -11   83.36   10.34
  -1   7  10   -0.92    1.95
   1  -7 -10    0.39    2.12
   1  -7 -10    3.28    2.65
  -1   7   9  130.36   11.06
   1  -7  -9  113.79   11.15
   1  -7  -9  109.31   11.51
   1  -7  -8   48.37    7.46
   1  -7  -8   46.74    6.90
  -1   7   8   69.28    7.72
   1  -7  -7  101.80   10.32
   1  -7  -7  125.54   10.76
  -1   7   7  125.53    9.91
  -1   7   6  347.80   15.64
   1  -7  -6  328.75   17.66
   1  -7  -6  350.98   17.23
  -1   7   6  351.92   16.05
  -1   7   5   -0.71    1.44
   1  -7  -5    0.95    1.77
  -1   7   5    0.26    1.25
   1  -7  -5    0.37    1.40
   1  -7  -4  643.83   22.05
   1  -7  -4  725.36   19.46
  -1   7   4  679.13   19.49
   1  -7  -4  659.48   23.52
  -1   7   4  677.66   21.60
   1  -7  -3   72.94    4.83
   1  -7  -3   69.04    7.19
   1  -7  -3   82.95    7.68
  -1   7   3   74.34    7.08
   1  -7  -3   71.35    6.08
  -1   7   3   74.59    6.10
   1  -7  -3   76.93    7.83
  -1   7   2 1277.08   29.21
  -1   7   2 1226.08   27.91
   1  -7  -2 1255.91   25.66
   1  -7  -2 1301.23   21.44
   1  -7  -2 1285.92   29.94
  -1   7   2 1282.33   19.15
   1  -7  -2 1341.50   29.66
   1  -7  -2 1292.10   31.02
  -1   7   2 1272.48   23.21
  -1   7   1   87.74    7.41
   1  -7  -1   94.30    7.70
  -1   7   1   89.44    5.66
   1  -7  -1   80.76    6.60
   1  -7  -1   79.25    7.66
   1  -7  -1   89.96    5.93
   1  -7  -1   84.49    7.62
  -1   7   1   83.18    5.47
  -1   7   1   88.24    7.72
  -1   7   0  195.89   10.84
   1  -7   0  205.36   11.90
   1  -7   0  197.71   11.42
  -1   7   0  211.97    7.85
   1  -7   0  186.83    9.95
   1  -7   0  202.10    9.22
   1  -7   0  208.03   11.24
   1  -7   1  321.43   12.11
   1  -7   1  335.82   14.50
   1  -7   1  304.69   12.89
   1  -7   1  315.33   14.62
  -1   7  -1  346.99    8.74
   1  -7   1  327.69   13.79
  -1   7  -1  311.11   15.08
  -1   7  -1  340.32   14.08
   1  -7   2   18.76    3.22
  -1   7  -2   36.80    5.18
   1  -7   2   29.06    4.64
   1  -7   2   28.65    4.20
   1  -7   2   15.48    3.03
  -1   7  -2   25.71    3.95
   1  -7   2   20.64    3.70
   1  -7   2   29.87    2.89
   1  -7   3   14.57    3.08
  -1   7  -3    9.69    2.53
   1  -7   3   10.57    2.56
   1  -7   3    8.81    2.56
   1  -7   3   10.40    2.12
   1  -7   3    6.00    2.03
   1  -7   4    6.03    2.07
  -1   7  -4    6.80    2.17
   1  -7   4    7.88    2.00
  -1   7  -4    6.91    2.48
   1  -7   4    6.54    1.97
   1  -7   5  635.60   18.12
   1  -7   5  643.76   18.82
   1  -7   5  635.31   20.03
  -1   7  -5  662.27   21.80
  -1   7  -5  657.69   19.92
   1  -7   5  641.09   19.89
   1  -7   6    1.91    1.68
  -1   7  -6    2.75    1.60
   1  -7   6    1.09    1.49
   1  -7   6    2.65    1.62
   1  -7   6    2.43    1.29
  -1   7  -6    0.40    1.53
   1  -7   7    7.91    2.10
   1  -7   7   10.17    2.79
  -1   7  -7    6.87    2.36
   1  -7   7    3.11    1.94
  -1   7  -7    4.67    2.15
   1  -7   7   10.68    2.90
  -1   7  -8    9.06    2.98
   1  -7   8    7.27    2.00
   1  -7   8    9.75    2.82
  -1   7  -8    7.37    2.39
   1  -7   8    9.33    2.83
   1  -7   8    7.86    2.67
   1  -7   9  271.78   15.81
  -1   7  -9  286.97   14.44
  -1   7  -9  280.71   14.52
   1  -7   9  269.59   14.60
   1  -7   9  270.09   15.33
  -1   7 -10   89.57    8.37
   1  -7  10   95.48    9.96
   1  -7  10   98.31    9.12
  -1   7 -10  104.01    9.05
   1  -7  10   93.06    9.47
  -1   7 -11  165.63   11.44
  -1   7 -11  175.47   12.14
   1  -7  11  175.87   12.53
   1  -7  11  151.75   12.45
   1  -7  11  146.60   12.89
   1  -7  12   47.40    7.71
  -1   7 -12   57.53    7.26
   1  -7  12   49.30    7.20
  -1   7 -12   53.41    6.68
   1  -7  12   54.09    7.82
  -1   7 -13   96.31    9.64
   1  -7  13   90.31    9.87
  -1   7 -13   76.31    8.01
   1  -7  13   75.52   10.33
   1  -7  13   82.31   10.03
  -1   7 -14    9.26    3.13
  -1   7 -14    8.08    2.85
   1  -7  14    3.55    2.19
   1  -7  14    9.91    3.88
   1  -7  14    0.33    1.95
  -1   7 -15   26.85    5.01
   1  -7  15   22.95    5.58
  -1   7 -15   28.86    5.83
   1  -7  15   21.63    6.03
   1  -7  15   33.81    6.93
   1  -7  16   25.99    6.42
  -1   7 -16   21.44    5.06
   1  -7  16   21.50    5.42
   1  -7  16   25.56    7.08
  -1   7 -16   23.12    4.69
   1  -6 -14   55.09    9.05
  -1   6  14   63.92    9.18
   1  -6 -14   60.61    9.68
  -1   6  13    1.33    2.04
   1  -6 -13    4.94    3.18
   1  -6 -13    2.21    2.92
   1  -6 -12   38.70    7.32
   1  -6 -12   46.75    7.77
  -1   6  12   39.75    6.70
   1  -6 -11    7.54    3.08
  -1   6  11    6.86    2.65
   1  -6 -11    5.68    3.22
   1  -6 -10   42.57    6.99
  -1   6  10   55.09    7.10
   1  -6 -10   60.38    8.02
  -1   6   9    5.90    2.22
   1  -6  -9   11.71    3.56
   1  -6  -9    7.74    3.45
  -1   6   8   37.73    5.51
   1  -6  -8   45.88    6.39
   1  -6  -8   41.75    6.58
   1  -6  -7   63.41    7.59
   1  -6  -7   69.24    7.57
  -1   6   7   78.32    7.42
   1  -6  -6   26.84    4.87
   1  -6  -6   25.12    4.49
  -1   6   6   29.93    4.47
  -1   6   5  103.91    7.91
  -1   6   5  107.92    7.83
   1  -6  -5   94.76    8.60
   1  -6  -5   88.00    7.84
   1  -6  -4  402.96   13.30
   1  -6  -4  422.64   10.58
   1  -6  -4  398.78   16.15
  -1   6   4  421.30   14.47
   1  -6  -4  391.28   16.65
  -1   6   4  412.07   15.49
   1  -6  -3   64.97    4.30
   1  -6  -3   71.92    5.62
  -1   6   3   78.54    5.91
   1  -6  -3   68.39    6.86
  -1   6   3   77.57    6.65
  -1   6   3   71.97    3.42
   1  -6  -3   68.93    6.48
   1  -6  -3   72.10    6.75
   1  -6  -2   -0.01    0.51
  -1   6   2   -0.17    0.54
  -1   6   2   -1.65    1.32
   1  -6  -2    0.69    0.96
   1  -6  -2    1.46    1.42
  -1   6   2    0.06    0.47
   1  -6  -2    0.81    1.12
   1  -6  -2    0.36    1.22
   1  -6  -1  160.13    9.55
  -1   6   1  166.89    7.25
   1  -6  -1  179.65    9.64
  -1   6   1  143.12    8.83
   1  -6  -1  170.37    8.60
  -1   6   1  163.76    9.27
   1  -6  -1  174.31    7.65
   1  -6  -1  166.73   10.12
  -1   6   0   47.74    4.98
   1  -6   0   40.56    4.78
   1  -6   0   41.89    4.64
   1  -6   0   31.98    4.27
   1  -6   0   42.00    4.00
  -1   6   0   46.39    3.42
   1  -6   0   44.36    4.43
   1  -6   1    2.71    0.82
  -1   6  -1    3.04    1.51
   1  -6   1    0.36    0.97
   1  -6   1    1.55    1.22
   1  -6   1    0.89    0.96
  -1   6  -1    1.52    0.51
   1  -6   1    1.40    1.17
  -1   6  -1    2.14    0.72
   1  -6   1    1.38    1.17
   1  -6   2  192.37   10.35
   1  -6   2  203.92    9.75
   1  -6   2  198.60    7.51
  -1   6  -2  200.92   11.17
   1  -6   2  215.99    9.69
  -1   6  -2  206.71    4.87
   1  -6   2  204.98    9.70
  -1   6  -2  212.56   10.26
   1  -6   2  209.60   10.42
  -1   6  -3  144.68    9.48
   1  -6   3  138.72    8.11
  -1   6  -3  145.39    8.52
   1  -6   3  141.24    7.88
   1  -6   3  142.89    8.56
   1  -6   3  137.12    7.13
   1  -6   3  137.10    8.05
   1  -6   4  659.37    6.68
   1  -6   4  674.25   18.72
   1  -6   4  686.79   17.18
  -1   6  -4  686.81   20.63
   1  -6   4  674.42   18.29
  -1   6  -4  682.84   18.79
   1  -6   5  224.66   10.81
   1  -6   5  243.97    6.26
   1  -6   5  238.99   11.61
  -1   6  -5  238.17   11.21
  -1   6  -5  236.77   12.09
   1  -6   5  243.28   11.26
   1  -6   5  223.15    9.70
   1  -6   6  455.26   16.54
   1  -6   6  435.15   16.38
  -1   6  -6  443.78   15.78
   1  -6   6  452.18   13.84
  -1   6  -6  437.61   16.42
   1  -6   6  453.46   15.77
   1  -6   7  290.78   11.05
  -1   6  -7  271.29   12.71
  -1   6  -7  266.18   12.87
   1  -6   7  265.67   13.50
   1  -6   7  289.39   13.06
   1  -6   7  277.07   13.62
   1  -6   8   19.00    3.83
  -1   6  -8   26.51    4.23
   1  -6   8   17.60    3.50
   1  -6   8   23.02    3.21
  -1   6  -8   27.37    4.21
   1  -6   8   14.80    3.47
   1  -6   9   16.08    3.93
   1  -6   9   18.79    3.78
  -1   6  -9   24.53    4.03
   1  -6   9   23.06    4.48
  -1   6  -9   27.70    4.41
   1  -6  10  212.90   13.59
   1  -6  10  199.38   13.92
  -1   6 -10  223.00   12.57
  -1   6 -10  205.99   11.77
   1  -6  10  214.46   12.60
   1  -6  11  140.32   11.53
   1  -6  11  109.83   11.03
  -1   6 -11  115.86    8.95
  -1   6 -11  126.33    9.90
   1  -6  11  120.23    9.93
   1  -6  12  354.88   20.57
  -1   6 -12  366.58   17.33
   1  -6  12  368.92   19.32
   1  -6  12  388.11   18.36
  -1   6 -12  357.99   15.84
  -1   6 -13  542.51   21.88
   1  -6  13  503.08   25.66
  -1   6 -13  492.21   18.87
   1  -6  13  520.37   24.08
   1  -6  13  491.02   21.62
   1  -6  14  136.65   11.94
  -1   6 -14  123.66    9.78
  -1   6 -14  122.02   10.94
   1  -6  14  142.70   13.04
   1  -6  14  116.53   13.10
  -1   6 -15   38.06    5.60
   1  -6  15   38.44    7.96
   1  -6  15   28.96    5.68
  -1   6 -15   34.76    6.26
   1  -6  15   40.92    7.53
   1  -6  16   99.02   10.91
  -1   6 -16   75.45    9.56
   1  -6  16  105.73   12.23
  -1   6 -16   82.34    8.34
   1  -6  16   77.59   11.70
   1  -6  17    1.50    2.76
  -1   5  15    7.95    3.41
   1  -5 -15    2.18    2.17
   1  -5 -15    2.17    2.16
   1  -5 -14    3.53    2.74
  -1   5  14   -0.16    1.96
   1  -5 -14    5.34    3.38
   1  -5 -13   57.42    8.80
  -1   5  13   58.97    8.30
   1  -5 -13   61.59    8.64
   1  -5 -12   47.84    7.29
  -1   5  12   43.59    6.78
   1  -5 -12   31.06    6.18
  -1   5  11    3.85    2.21
   1  -5 -11    2.94    2.12
   1  -5 -11   -0.07    1.41
  -1   5  10  145.93   11.14
   1  -5 -10  127.70   10.79
   1  -5 -10  146.71   12.08
  -1   5   9    0.91    1.44
   1  -5  -9    1.35    1.85
   1  -5  -9    1.83    1.96
   1  -5  -8   -0.99    1.85
   1  -5  -8    2.12    1.77
  -1   5   8    1.19    1.54
   1  -5  -7   54.30    6.22
   1  -5  -7   50.37    6.33
  -1   5   7   59.42    6.20
   1  -5  -6  938.13   15.36
  -1   5   6  946.82   23.17
   1  -5  -6  887.41   24.90
   1  -5  -6  876.65   23.62
  -1   5   5   -0.04    0.87
  -1   5   5   -0.32    1.02
   1  -5  -5    0.34    0.47
   1  -5  -5   -0.04    1.23
   1  -5  -5    0.51    1.01
  -1   5   5    0.45    0.37
  -1   5   4 1269.10   23.68
   1  -5  -4 1318.85   21.66
   1  -5  -4 1314.89   18.08
   1  -5  -4 1226.38   27.01
  -1   5   4 1239.11   24.49
   1  -5  -4 1242.13   26.09
   1  -5  -3   39.05    4.47
  -1   5   3   38.99    4.35
  -1   5   3   32.51    1.94
   1  -5  -3   36.82    4.38
   1  -5  -3   40.85    4.80
   1  -5  -3   24.86    2.50
  -1   5   3   33.95    3.69
   1  -5  -3   31.87    3.38
   1  -5  -2   57.44    5.13
   1  -5  -2   48.67    4.95
   1  -5  -2   53.68    4.36
   1  -5  -2   55.08    5.33
  -1   5   2   54.36    3.20
  -1   5   2   55.84    4.26
   1  -5  -2   52.22    3.73
  -1   5   2   61.10    5.31
  -1   5   1    9.94    1.67
   1  -5  -1   11.38    2.27
  -1   5   1    8.82    2.06
   1  -5  -1    9.62    1.74
   1  -5  -1    6.77    2.06
   1  -5  -1   11.47    2.46
  -1   5   1   10.16    2.30
   1  -5  -1    7.65    1.76
  -1   5   0   38.36    2.80
   1  -5   0   44.83    4.61
  -1   5   0   38.93    1.87
   1  -5   0   40.06    4.06
   1  -5   0   28.93    3.06
   1  -5   0   40.30    3.78
   1  -5   0   40.15    4.30
  -1   5   0   36.88    4.01
   1  -5   1   48.97    3.09
   1  -5   1   46.86    4.55
   1  -5   1   41.57    3.81
   1  -5   1   45.30    4.12
   1  -5   1   47.09    4.28
   1  -5   1   52.70    4.88
  -1   5  -1   47.83    2.64
  -1   5  -1   48.81    4.58
  -1   5  -2 1400.94   10.62
  -1   5  -2 1366.42   23.95
   1  -5   2 1423.68   23.13
   1  -5   2 1394.15   22.36
   1  -5   2 1438.61   24.50
   1  -5   2 1393.84   22.74
   1  -5   2 1389.59   19.40
   1  -5   3 2889.82   33.34
   1  -5   3 2845.11   31.41
  -1   5  -3 2873.73   38.46
  -1   5  -3 2898.41   35.08
   1  -5   3 2837.09   34.25
   1  -5   3 2874.87   31.47
   1  -5   4  224.10   10.10
  -1   5  -4  237.86   10.21
   1  -5   4  222.92    8.65
   1  -5   4  228.31    9.65
  -1   5  -4  231.02   10.98
   1  -5   5   94.50    5.63
   1  -5   5   98.02    6.58
   1  -5   5   92.59    6.87
  -1   5  -5   96.58    7.16
   1  -5   6   28.80    4.09
   1  -5   6   26.46    3.97
  -1   5  -6   29.10    4.01
   1  -5   6   32.19    3.30
  -1   5  -6   31.42    4.11
   1  -5   6   27.89    3.69
   1  -5   7   15.35    2.34
   1  -5   7   10.84    2.70
   1  -5   7   17.08    3.37
  -1   5  -7   16.37    3.04
   1  -5   7   18.60    3.14
  -1   5  -7   13.64    2.85
  -1   5  -8  349.86   14.00
   1  -5   8  344.30   15.16
   1  -5   8  348.60   13.81
  -1   5  -8  342.47   13.55
   1  -5   8  319.02   15.31
   1  -5   8  339.06   11.01
   1  -5   9  142.46   10.16
   1  -5   9  151.93    7.53
   1  -5   9  146.65   10.97
  -1   5  -9  154.74    9.70
   1  -5   9  141.90    9.29
  -1   5  -9  132.22    8.52
   1  -5  10  976.50   30.03
   1  -5  10 1060.33   28.99
  -1   5 -10 1065.34   26.52
  -1   5 -10  995.42   23.76
   1  -5  10 1051.83   26.20
   1  -5  11  136.43    9.85
   1  -5  11  128.51   10.57
   1  -5  11  124.33   11.28
  -1   5 -11  144.87   10.21
  -1   5 -11  129.48    8.75
   1  -5  12   -0.59    1.26
  -1   5 -12    0.38    1.10
   1  -5  12    0.12    1.84
  -1   5 -12   -0.23    1.44
   1  -5  12    0.30    1.39
  -1   5 -13   43.51    6.17
   1  -5  13   41.09    6.67
  -1   5 -13   32.96    4.73
   1  -5  13   32.51    5.36
   1  -5  13   23.21    5.39
   1  -5  14   19.30    4.33
  -1   5 -14   15.70    4.00
   1  -5  14   16.38    4.91
  -1   5 -14   21.11    4.01
   1  -5  14   25.60    5.44
   1  -5  15   25.59    5.15
  -1   5 -15   33.32    5.08
   1  -5  15   24.33    6.40
   1  -5  15   31.24    6.06
  -1   5 -15   24.95    5.19
   1  -5  16  103.53   13.38
   1  -5  16  127.73   13.09
   1  -5  16  103.51   10.61
  -1   5 -16  114.88   11.43
  -1   5 -17   56.00    8.48
   1  -5  17   69.82   10.06
   1  -5  17   51.95    7.85
   1  -5  17   62.43   10.96
   1  -4 -16   13.25    4.48
   1  -4 -16   17.67    5.14
   1  -4 -15   23.81    5.68
   1  -4 -15   14.35    4.79
  -1   4  15   17.75    5.04
   1  -4 -14  103.15   11.56
  -1   4  14   95.48   10.45
   1  -4 -14  111.38   11.46
   1  -4 -13  237.81   15.84
   1  -4 -13  223.82   16.07
  -1   4  13  258.61   16.38
  -1   4  12  165.54   12.51
   1  -4 -12  152.08   12.15
   1  -4 -12  122.36   11.48
   1  -4 -11   13.87    3.60
   1  -4 -11   14.29    3.97
  -1   4  11   16.86    4.04
  -1   4  10  121.35    8.63
   1  -4 -10  101.60    9.53
  -1   4  10  121.00    9.76
   1  -4 -10  109.76    9.38
   1  -4  -9  438.83   17.70
  -1   4   9  428.89   17.44
  -1   4   9  408.88   14.60
   1  -4  -9  411.22   18.10
   1  -4  -8   73.95    6.99
   1  -4  -8   76.08    4.89
  -1   4   8   65.01    6.51
  -1   4   8   75.28    5.77
   1  -4  -8   80.36    7.67
  -1   4   7   58.92    5.87
   1  -4  -7   49.95    3.77
   1  -4  -7   52.22    5.82
   1  -4  -7   58.25    5.88
  -1   4   7   58.66    4.65
  -1   4   6  218.03    7.95
   1  -4  -6  207.16   10.47
  -1   4   6  218.30   10.55
   1  -4  -6  224.95    7.51
   1  -4  -6  217.03   11.30
  -1   4   5    0.10    0.77
   1  -4  -5   -0.14    0.94
   1  -4  -5    0.08    0.44
  -1   4   5    0.39    0.47
   1  -4  -5   -0.69    0.89
   1  -4  -4   20.43    3.18
  -1   4   4   22.88    3.02
  -1   4   4   21.56    3.05
   1  -4  -4   22.57    3.34
  -1   4   4   25.31    1.98
   1  -4  -4   19.94    2.15
   1  -4  -3   25.44    2.32
   1  -4  -3   26.29    2.67
  -1   4   3   26.10    1.54
  -1   4   3   28.34    1.22
   1  -4  -3   23.11    3.22
  -1   4   3   25.59    1.24
  -1   4   3   25.68    2.96
   1  -4  -2 1178.64   15.96
   1  -4  -2 1176.18   17.50
   1  -4  -2 1213.63   21.72
   1  -4  -2 1209.12   21.05
  -1   4   2 1163.59   17.86
   1  -4  -1  524.62   13.76
  -1   4   1  525.29   10.70
   1  -4  -1  525.66   11.00
   1  -4  -1  541.62   13.45
   1  -4  -1  498.30   11.41
  -1   4   0 1100.19   13.36
   1  -4   0 1084.84   18.23
   1  -4   0 1126.08   17.29
   1  -4   0 1124.50   16.93
   1  -4   0 1105.46   19.56
  -1   4   0 1061.09   19.26
  -1   4   0 1121.99   10.34
   1  -4   1   94.59    4.20
  -1   4  -1   95.58    5.75
   1  -4   1  100.11    5.38
   1  -4   1   94.86    5.14
   1  -4   1   96.18    5.71
  -1   4  -1  101.68    3.29
   1  -4   1  101.65    6.02
   1  -4   1   92.18    5.12
   1  -4   2  362.31    9.59
  -1   4  -2  345.80   10.89
   1  -4   2  368.13   11.03
   1  -4   2  343.82    9.63
  -1   4  -2  330.01   11.68
  -1   4  -2  363.28    4.20
   1  -4   2  360.68   10.73
   1  -4   2  352.10   10.12
   1  -4   3 1371.56   21.54
   1  -4   3 1278.64   20.37
   1  -4   3 1245.72   19.55
  -1   4  -3 1303.61   21.39
   1  -4   3 1248.89   21.18
  -1   4  -3 1195.10   22.25
   1  -4   3 1210.48   17.71
   1  -4   4   19.46    2.94
   1  -4   4   20.81    2.32
  -1   4  -4   17.17    2.87
   1  -4   4   19.11    2.54
  -1   4  -4   23.57    3.05
   1  -4   4   22.35    2.99
   1  -4   5    8.48    1.85
   1  -4   5    9.43    1.57
   1  -4   5    5.27    1.74
  -1   4  -5    9.01    2.11
  -1   4  -5    8.64    2.04
   1  -4   6    2.29    0.53
  -1   4  -6    1.91    1.10
   1  -4   6    0.26    0.93
   1  -4   6    2.86    1.53
   1  -4   6    3.13    0.99
  -1   4  -6    3.26    1.56
   1  -4   6    1.56    1.52
   1  -4   7  345.94    9.71
  -1   4  -7  359.80   12.46
  -1   4  -7  343.97   12.57
   1  -4   7  350.11   13.86
   1  -4   7  372.08   12.70
   1  -4   7  335.94   14.35
   1  -4   7  350.84    7.38
   1  -4   8   70.75    3.88
   1  -4   8   71.30    7.06
  -1   4  -8   77.61    6.29
   1  -4   8   72.29    5.93
   1  -4   8   83.38    7.07
  -1   4  -8   65.40    5.41
  -1   4  -9   58.54    5.20
   1  -4   9   65.01    6.59
   1  -4   9   56.91    6.70
  -1   4  -9   64.04    6.00
   1  -4   9   63.51    5.86
   1  -4   9   66.32    4.20
   1  -4  10   31.67    4.38
  -1   4 -10   29.30    4.32
   1  -4  10   21.74    2.70
   1  -4  10   24.07    4.48
  -1   4 -10   31.44    3.96
   1  -4  10   25.34    4.91
  -1   4 -11  117.61    7.80
  -1   4 -11  106.47    8.45
   1  -4  11  118.16    8.74
   1  -4  11  109.23    9.39
   1  -4  11   96.39    9.76
   1  -4  12   12.99    3.40
  -1   4 -12   13.15    3.48
   1  -4  12    7.67    2.95
   1  -4  12   13.61    3.30
  -1   4 -12    9.49    2.44
   1  -4  13   54.75    8.34
   1  -4  13   73.40    8.46
  -1   4 -13   72.67    7.76
   1  -4  13   72.17    7.55
  -1   4 -13   75.61    6.76
  -1   4 -14   -0.20    1.10
   1  -4  14    0.06    1.65
   1  -4  14   -0.76    2.14
  -1   4 -14    0.57    1.38
   1  -4  14    1.73    1.84
   1  -4  15   27.20    6.48
   1  -4  15   29.39    6.08
  -1   4 -15   32.69    5.80
  -1   4 -15   30.08    4.60
   1  -4  15   33.53    5.59
  -1   4 -16   -1.21    2.11
   1  -4  16   -0.70    2.52
   1  -4  16    1.73    2.21
   1  -4  16   -0.80    1.18
   1  -4  17  107.14   12.11
  -1   4 -17   97.41   10.96
   1  -4  17   98.39   10.43
   1  -4  17  124.78   15.04
   1  -3 -16    8.24    3.57
  -1   3  16    2.83    2.49
   1  -3 -16    2.38    1.91
  -1   3  15  114.39   11.47
   1  -3 -15  103.32   11.58
   1  -3 -15  102.82   10.89
   1  -3 -14    9.80    3.89
  -1   3  14    6.07    3.02
   1  -3 -14   10.32    3.61
  -1   3  13   24.53    4.99
   1  -3 -13   29.29    5.77
   1  -3 -13   27.81    5.29
  -1   3  13   33.13    5.68
   1  -3 -12  146.47   11.23
   1  -3 -12  136.09   11.41
  -1   3  12  140.44   11.03
  -1   3  12  141.50   10.81
   1  -3 -12  141.92   11.02
  -1   3  11   41.54    5.62
  -1   3  11   29.60    4.83
   1  -3 -11   32.91    5.08
   1  -3 -11   30.79    5.31
   1  -3 -11   43.60    5.85
  -1   3  10  113.13    8.48
   1  -3 -10  140.88    9.84
   1  -3 -10  137.61   10.31
  -1   3  10  128.69    9.67
   1  -3 -10  132.51    9.61
  -1   3   9    9.49    2.63
  -1   3   9    8.85    2.26
   1  -3  -9    5.98    2.15
   1  -3  -9   11.52    2.91
   1  -3  -9    5.76    2.52
   1  -3  -8  357.80   14.04
   1  -3  -8  320.01   14.07
  -1   3   8  336.33   13.91
  -1   3   8  335.35   12.54
   1  -3  -7    9.52    2.45
   1  -3  -7   11.52    2.55
  -1   3   7    9.46    1.96
  -1   3   7   13.05    2.85
  -1   3   6  843.42   16.37
   1  -3  -6  886.37   19.74
   1  -3  -6  844.99   20.30
  -1   3   6  866.04   19.73
   1  -3  -5  290.68   10.77
   1  -3  -5  273.22    7.77
  -1   3   5  289.83   10.69
  -1   3   5  285.13    8.38
   1  -3  -4  702.70   15.79
  -1   3   4  697.39   11.20
  -1   3   4  703.31   15.47
   1  -3  -4  685.69   11.57
   1  -3  -3  952.90   18.22
   1  -3  -3  915.47   12.85
  -1   3   3  934.71   16.54
   1  -3  -3  953.06   17.36
   1  -3  -3  946.48   13.65
  -1   3   3  940.80   16.33
  -1   3   3  939.64   10.76
  -1   3   2   64.44    4.19
   1  -3  -2   63.03    3.42
   1  -3  -2   67.46    3.46
  -1   3   2   68.35    3.97
  -1   3   2   69.65    2.01
   1  -3  -2   65.76    4.46
   1  -3  -2   64.29    4.53
  -1   3   2   67.73    2.34
   1  -3  -1 1396.39   18.61
   1  -3  -1 1348.38   15.73
   1  -3  -1 1352.21   19.46
   1  -3  -1 1303.74   15.37
  -1   3   1 1288.45   15.06
   1  -3  -1 1308.30   18.89
  -1   3   1 1287.11   17.95
  -1   3   1 1342.05    9.46
  -1   3   1 1422.96   10.64
  -1   3   0 1448.91   13.23
   1  -3   0 1417.85   18.96
  -1   3   0 1492.83   11.80
   1  -3   0 1486.12   18.09
   1  -3   0 1398.66   16.15
   1  -3   0 1397.57   19.25
  -1   3   0 1513.01   20.09
   1  -3   0 1439.31   17.03
   1  -3   1 5728.54   33.82
   1  -3   1 5751.33   38.54
   1  -3   1 5659.54   33.24
   1  -3   1 5718.91   36.32
  -1   3  -1 5710.20   38.66
  -1   3  -1 5812.82   20.52
   1  -3   1 5765.29   31.81
   1  -3   2 3339.98   26.42
   1  -3   2 3262.47   24.52
   1  -3   2 3244.48   27.88
  -1   3  -2 3330.05   29.87
   1  -3   2 3352.01   28.71
   1  -3   2 3366.39   29.60
   1  -3   3 1996.24   24.53
  -1   3  -3 2028.43   23.90
   1  -3   3 2015.93   21.31
   1  -3   3 2038.96   18.52
  -1   3  -3 2034.98   25.33
   1  -3   3 2050.04   24.83
   1  -3   4   64.61    4.71
   1  -3   4   67.92    2.33
   1  -3   4   68.50    4.23
   1  -3   4   67.80    5.05
   1  -3   4   75.41    3.54
  -1   3  -4   68.06    4.60
  -1   3  -4   60.95    4.50
  -1   3  -5 1520.71   22.69
   1  -3   5 1581.94   21.61
   1  -3   5 1565.15   24.51
  -1   3  -5 1496.18   22.02
   1  -3   5 1508.40   14.03
   1  -3   6 1488.15   25.48
  -1   3  -6 1462.30   23.29
  -1   3  -6 1416.19   21.65
   1  -3   6 1419.97   16.25
   1  -3   7  100.75    4.94
   1  -3   7  121.27    7.84
   1  -3   7  121.92    8.44
  -1   3  -7  117.26    6.42
  -1   3  -7  119.90    7.08
   1  -3   8  589.46   13.08
  -1   3  -8  620.05   16.94
   1  -3   8  580.67   17.84
   1  -3   8  589.38   19.72
  -1   3  -8  591.73   14.78
  -1   3  -9  177.34    9.56
   1  -3   9  176.67    7.78
   1  -3   9  171.53   11.43
  -1   3  -9  185.87    8.49
   1  -3   9  202.33   11.11
   1  -3  10   25.05    3.26
   1  -3  10   19.98    4.38
  -1   3 -10   24.06    3.39
  -1   3 -10   28.65    4.19
   1  -3  10   21.21    3.89
   1  -3  11    5.43    2.39
  -1   3 -11    3.27    1.56
   1  -3  11    4.57    2.47
  -1   3 -11    4.04    1.84
   1  -3  11    1.35    1.18
  -1   3 -12  115.75    7.56
  -1   3 -12  109.28    8.88
   1  -3  12  107.09   10.64
   1  -3  12   93.27    6.97
   1  -3  12  104.78    9.33
  -1   3 -13  350.04   13.57
   1  -3  13  357.25   17.86
   1  -3  13  299.64   18.83
  -1   3 -13  338.64   16.25
   1  -3  13  348.39   14.16
   1  -3  14  140.51   13.59
   1  -3  14  145.29   11.93
  -1   3 -14  143.55    9.13
  -1   3 -14  128.54   10.62
  -1   3 -15  286.75   16.75
   1  -3  15  271.27   19.77
   1  -3  15  298.38   17.82
   1  -3  16   15.04    4.23
   1  -3  16    8.00    3.80
  -1   3 -16   12.96    4.07
   1  -3  16   14.02    3.87
   1  -3  17    5.62    2.95
  -1   3 -17   13.67    4.27
   1  -3  17    6.29    2.85
   1  -3  17   11.69    4.02
   1  -2 -17    6.54    3.14
  -1   2  17   10.48    3.72
   1  -2 -17   15.80    4.69
   1  -2 -17    6.87    3.08
  -1   2  16   39.26    7.31
  -1   2  16   40.47    6.84
   1  -2 -16   31.01    6.27
   1  -2 -16   39.39    7.03
   1  -2 -15  243.79   16.43
  -1   2  15  262.05   16.57
  -1   2  15  243.06   16.95
   1  -2 -15  252.41   16.39
   1  -2 -14   31.48    5.68
  -1   2  14   30.19    5.55
  -1   2  14   30.07    5.81
   1  -2 -14   34.64    5.93
   1  -2 -13    4.42    1.96
  -1   2  13    2.58    1.84
   1  -2 -13    6.87    2.82
  -1   2  13    2.31    2.25
   1  -2 -12   19.09    3.85
   1  -2 -12   16.38    3.85
  -1   2  12   12.91    3.71
  -1   2  12   13.48    3.45
  -1   2  11  172.29   11.10
  -1   2  11  149.39   10.63
   1  -2 -11  147.39   10.33
   1  -2 -11  183.02   11.15
  -1   2  10   59.51    6.30
   1  -2 -10   41.91    5.25
  -1   2  10   42.54    5.37
   1  -2 -10   62.03    6.17
  -1   2   9 1030.99   24.38
   1  -2  -9  999.80   24.01
   1  -2  -9 1045.40   23.65
  -1   2   9 1027.91   24.26
  -1   2   8  485.53   15.88
  -1   2   8  494.28   15.44
   1  -2  -8  450.94   15.13
   1  -2  -8  483.58   15.07
  -1   2   7  791.49   19.10
  -1   2   7  785.46   17.82
   1  -2  -7  798.91   18.38
   1  -2  -7  762.29   18.37
   1  -2  -6    6.88    1.76
  -1   2   6    8.73    1.74
  -1   2   6    5.07    1.70
   1  -2  -6    7.89    1.87
   1  -2  -5  235.70    8.98
  -1   2   5  246.39    9.22
   1  -2  -5  250.92    8.92
  -1   2   5  239.89    7.99
   1  -2  -4 1034.56   17.48
   1  -2  -4  946.36   16.17
  -1   2   4  962.58   13.97
  -1   2   4 1008.79   16.98
  -1   2   3  351.50    7.30
  -1   2   3  370.21    9.33
   1  -2  -3  359.84    9.59
   1  -2  -3  346.31    9.07
  -1   2   2 3335.93   18.69
   1  -2  -2 3306.80   18.92
   1  -2  -2 3127.03   25.51
  -1   2   2 3303.02   24.51
  -1   2   2 3168.17   24.10
   1  -2  -2 3160.34   21.24
   1  -2  -2 3240.86   26.43
   1  -2  -1 7948.39   33.54
   1  -2  -1 7411.19   37.01
  -1   2   1 7337.47   34.39
   1  -2  -1 8133.30   28.96
   1  -2  -1 7857.60   38.27
  -1   2   1 8175.32   33.01
  -1   2   1 8302.25   25.56
   1  -2   0  538.08    9.52
   1  -2   0  563.85    7.55
  -1   2   0  548.66    7.07
   1  -2   0  546.43    9.10
  -1   2   0  560.15   10.28
   1  -2   0  566.22    7.79
   1  -2   0  545.21    8.56
  -1   2   0  567.46    7.00
   1  -2   0  552.01    9.59
  -1   2  -1 1719.28    9.75
   1  -2   1 1749.87    9.66
   1  -2   1 1746.63   15.45
   1  -2   1 1714.62   17.31
   1  -2   1 1705.33   13.60
   1  -2   1 1707.71   14.37
   1  -2   1 1722.76   16.61
  -1   2  -1 1712.86    9.51
   1  -2   1 1682.23   16.58
  -1   2  -1 1750.39   18.19
   1  -2   1 1730.01    9.69
   1  -2   2  979.46   11.81
   1  -2   2  938.50   14.34
  -1   2  -2  978.13   14.00
   1  -2   2  935.02   14.00
  -1   2  -2  912.86   14.13
  -1   2  -2  912.19    9.75
   1  -2   2  956.57   12.87
   1  -2   2  964.54    7.20
   1  -2   2  972.90    9.33
  -1   2  -3  387.83    7.89
   1  -2   3  305.07    8.11
   1  -2   3  400.14    6.41
   1  -2   3  295.93    8.68
  -1   2  -3  314.67    8.41
   1  -2   3  399.18    5.90
   1  -2   3  372.43   10.20
  -1   2  -3  398.14    9.41
  -1   2  -4   60.83    3.71
   1  -2   4   64.26    4.01
  -1   2  -4   59.44    3.68
   1  -2   4   59.59    2.99
  -1   2  -4   63.76    4.00
   1  -2   4   58.76    4.15
   1  -2   4   58.62    4.48
   1  -2   5  342.91    8.36
  -1   2  -5  343.34    9.05
   1  -2   5  345.05   10.74
  -1   2  -5  340.36    9.84
   1  -2   5  358.57   10.18
  -1   2  -5  355.79   10.13
   1  -2   6  452.74   10.67
  -1   2  -6  456.77   12.41
   1  -2   6  446.56   13.07
  -1   2  -6  436.49   10.57
   1  -2   6  444.91   12.09
  -1   2  -7  207.67    8.88
  -1   2  -7  200.30    7.43
   1  -2   7  221.71    9.80
   1  -2   7  213.47   10.93
   1  -2   7  213.78    8.07
   1  -2   8  329.18   10.94
   1  -2   8  367.16   13.37
  -1   2  -8  344.41   12.27
  -1   2  -8  350.76   10.28
   1  -2   8  327.25   14.48
   1  -2   9    0.46    1.75
  -1   2  -9   -0.93    1.17
   1  -2   9    3.46    1.91
   1  -2   9   -0.49    0.87
  -1   2  -9   -0.08    0.92
   1  -2  10   10.03    2.33
  -1   2 -10   15.53    3.01
  -1   2 -10   16.66    2.65
   1  -2  10   17.18    3.39
   1  -2  10   15.69    3.76
  -1   2 -11  395.57   12.75
   1  -2  11  399.96   19.20
   1  -2  11  399.47   16.47
   1  -2  11  373.24   14.03
  -1   2 -11  393.70   15.58
   1  -2  12   80.00    6.96
  -1   2 -12   90.59    7.98
   1  -2  12   92.71    9.82
   1  -2  12  103.51    8.78
  -1   2 -12  102.87    6.81
   1  -2  13    9.53    3.05
  -1   2 -13   11.32    2.51
   1  -2  13   11.18    3.64
   1  -2  13    8.99    2.65
  -1   2 -13    8.32    2.90
   1  -2  14   87.73   10.52
   1  -2  14   79.90    7.66
  -1   2 -14   84.56    8.64
   1  -2  14   88.97    8.95
  -1   2 -15  212.58   14.63
   1  -2  15  211.92   14.40
   1  -2  15  210.10   17.17
   1  -2  15  228.71   13.57
  -1   2 -16   55.60    7.81
   1  -2  16   52.98    9.21
  -1   2 -17   -2.95    2.28
   1  -2  17    2.35    3.02
  -1   1  18   10.50    4.50
  -1   1  18    1.46    1.63
   1  -1 -17    9.25    3.70
  -1   1  17    3.25    2.21
   1  -1 -17    3.21    2.51
  -1   1  17    7.52    4.12
  -1   1  16   37.26    6.35
   1  -1 -16   44.26    7.11
   1  -1 -16   25.45    5.66
  -1   1  16   40.78    7.51
   1  -1 -15   19.60    4.56
  -1   1  15   14.66    4.54
  -1   1  15   18.95    4.43
   1  -1 -15   28.02    5.68
  -1   1  14  146.00   11.42
  -1   1  14  132.17   12.06
   1  -1 -14  153.05   11.60
   1  -1 -14  142.07   11.62
  -1   1  13   99.26    8.91
  -1   1  13   97.38    9.91
   1  -1 -13   95.85    8.98
   1  -1 -13  103.32    9.01
  -1   1  12   82.51    7.74
   1  -1 -12   91.68    8.00
   1  -1 -12   77.17    7.70
  -1   1  12   85.84    8.73
   1  -1 -11  180.73   10.46
  -1   1  11  181.79   10.88
   1  -1 -11  172.96   10.76
  -1   1  11  173.83   11.56
  -1   1  10   11.08    2.97
   1  -1 -10   15.18    3.04
   1  -1 -10   13.15    2.83
  -1   1  10   15.08    3.14
  -1   1   9   22.63    3.44
   1  -1  -9   21.96    3.45
   1  -1  -9   16.55    2.84
  -1   1   9   22.83    3.62
  -1   1   8  503.15   15.31
  -1   1   8  499.38   15.78
   1  -1  -8  514.84   14.81
   1  -1  -8  504.93   15.32
  -1   1   7    7.88    1.98
   1  -1  -7    6.02    1.71
  -1   1   7    4.90    1.59
   1  -1  -7   10.49    2.15
  -1   1   6    0.37    0.56
  -1   1   6   -0.83    0.87
   1  -1  -6   -0.31    0.71
   1  -1  -6   -0.65    0.95
  -1   1   5  251.29    8.50
  -1   1   5  263.68    8.78
   1  -1  -5  250.70    8.59
   1  -1  -5  257.10    8.14
  -1   1   4  573.38   11.72
   1  -1  -4  559.90   10.98
   1  -1  -4  553.98   11.58
  -1   1   4  535.16   10.94
  -1   1   3   31.27    2.48
   1  -1  -3   35.15    1.62
  -1   1   3   31.90    2.36
   1  -1  -3   34.33    2.61
   1  -1  -3   32.38    2.36
  -1   1   2 1369.31   14.06
  -1   1   2 1403.99   13.17
   1  -1  -2 1380.70   13.32
   1  -1  -2 1433.95   13.47
  -1   1   1   62.53    1.77
  -1   1   1   58.77    2.12
  -1   1   1   57.51    2.28
   1  -1  -1   57.71    1.66
  -1   1   1   60.87    2.46
   1  -1  -1   56.54    2.31
   1  -1  -1   57.10    2.47
   1  -1  -1   59.33    2.44
  -1   1   0  225.18    3.84
  -1   1   0  223.13    3.94
   1  -1   0  224.79    4.15
   1  -1   0  215.77    4.20
   1  -1   0  216.28    3.89
   1  -1   0  210.78    3.78
   1  -1   0  216.92    4.80
  -1   1   0  222.97    4.45
   1  -1   1  865.44    9.36
   1  -1   1  912.52   10.65
  -1   1  -1  897.79   10.46
  -1   1  -1  899.58    8.82
  -1   1  -1  908.64    7.97
  -1   1  -2   28.47    1.88
   1  -1   2   29.47    2.19
  -1   1  -2   28.81    2.04
  -1   1  -2   28.27    1.94
   1  -1   2   29.04    2.00
  -1   1  -3  593.16    8.76
   1  -1   3  586.89    9.99
   1  -1   3  570.94   10.57
  -1   1  -3  609.54   10.26
  -1   1  -3  593.33   10.48
  -1   1  -4  356.47    8.81
  -1   1  -4  386.58    9.76
   1  -1   4  344.02    9.01
   1  -1   4  329.93    8.36
  -1   1  -4  338.46    7.05
   1  -1   4  365.85    8.76
  -1   1  -5 1000.15   12.96
   1  -1   5 1019.30   16.96
   1  -1   5  992.83   15.75
   1  -1   5 1030.09   16.46
  -1   1  -5  990.48   17.50
  -1   1  -5 1020.45   16.16
   1  -1   6 1933.80   24.82
  -1   1  -6 2018.02   19.69
   1  -1   6 1984.27   25.55
   1  -1   6 1995.89   24.12
   1  -1   6 2024.32   30.61
  -1   1  -6 2046.28   24.92
  -1   1  -6 1999.87   27.43
  -1   1  -7    5.44    1.21
   1  -1   7    5.96    2.03
   1  -1   7    5.66    1.46
   1  -1   7    4.70    1.42
  -1   1  -7    3.62    1.35
   1  -1   7    4.20    1.50
   1  -1   8  803.99   18.65
   1  -1   8  847.91   22.74
  -1   1  -8  850.26   18.92
   1  -1   8  805.78   17.32
  -1   1  -8  832.64   14.58
   1  -1   8  841.15   18.82
   1  -1   9   -0.20    0.87
  -1   1  -9    0.02    0.58
   1  -1   9    0.37    1.48
  -1   1  -9    2.39    1.37
   1  -1   9    0.70    0.71
   1  -1  10  119.91    8.11
   1  -1  10  103.49    7.50
  -1   1 -10  114.86    6.17
   1  -1  10  106.20    9.33
  -1   1 -10  111.66    7.84
   1  -1  11   21.55    3.73
   1  -1  11   25.54    5.03
  -1   1 -11   21.11    2.89
  -1   1 -11   27.55    4.18
   1  -1  11   27.38    4.16
   1  -1  12   60.42    6.37
   1  -1  12   56.02    7.56
  -1   1 -12   58.92    6.51
  -1   1 -12   59.68    4.95
   1  -1  12   62.51    6.56
  -1   1 -13  225.75   13.36
   1  -1  13  223.16   12.84
   1  -1  13  192.74   12.02
   1  -1  13  184.69   14.36
   1  -1  14   29.06    4.97
   1  -1  14   30.28    6.45
  -1   1 -14   23.64    4.70
   1  -1  14   24.54    4.53
   1  -1  15  143.32   14.07
   1  -1  15  148.26   11.51
  -1   1 -15  139.09   11.80
   1  -1  16    0.94    1.35
   1  -1  16    1.90    2.38
  -1   1 -16    0.06    1.96
  -1   1 -16    2.74    2.28
   1  -1  17   19.82    4.65
  -1   1 -17   23.22    5.13
   1  -1  17   21.51    6.46
  -1   1 -17   24.51    5.41
   1  -1  18    6.41    3.16
  -1   0  18   11.27    3.76
  -1   0  18   13.55    5.45
  -1   0  17  135.09   11.89
  -1   0  17  138.13   14.59
   1   0 -17  132.21   12.92
   1   0 -17  142.93   12.74
  -1   0  16    1.31    2.59
   1   0 -16   -0.41    1.46
   1   0 -16    2.52    1.82
  -1   0  16   -0.92    1.62
  -1   0  15   -0.61    1.33
  -1   0  15    7.11    3.42
   1   0 -15    5.06    2.29
   1   0 -15    0.10    2.20
  -1   0  14   17.69    4.42
   1   0 -14   27.30    5.18
   1   0 -14   21.60    4.49
  -1   0  14   21.91    4.36
  -1   0  13   63.62    8.05
  -1   0  13   55.63    6.51
   1   0 -13   69.40    7.52
  -1   0  12   11.39    3.00
   1   0 -12   16.73    3.61
  -1   0  12   15.98    3.95
  -1   0  11  791.58   24.92
  -1   0  11  802.74   21.78
   1   0 -11  783.85   22.42
  -1   0  10  830.75   21.06
  -1   0  10  876.41   24.49
   1   0 -10  837.78   21.74
  -1   0   9   40.17    4.39
  -1   0   9   41.72    5.07
   1   0  -9   41.92    4.55
  -1   0   8  434.59   14.97
  -1   0   8  470.93   13.93
   1   0  -8  463.03   14.17
   1   0  -8  457.40   11.93
   1   0  -7    7.98    1.87
  -1   0   7    8.46    2.12
  -1   0   7    4.78    1.57
   1   0  -7    7.41    1.59
  -1   0   6   31.39    3.14
  -1   0   6   34.49    3.61
   1   0  -6   37.12    2.99
  -1   0   5 1844.16   23.68
   1   0  -5 1904.88   22.21
   1   0  -5 1834.88   19.08
  -1   0   5 1889.23   21.75
   1   0  -4 4738.25   27.85
  -1   0   4 4692.76   33.88
  -1   0   4 4822.06   31.15
  -1   0   3 2849.08   20.84
   1   0  -3 2760.88   19.02
   1   0  -3 2831.63   21.11
   1   0  -2    1.61    0.49
   1   0  -2    2.03    0.57
  -1   0   2    1.64    0.48
  -1   0   2    0.77    0.28
   1   0  -2    1.26    0.47
   1   0  -1   86.23    2.43
   1   0  -1   92.30    2.81
  -1   0   1   97.02    2.86
  -1   0   1   92.42    3.06
  -1   0   0  175.59    3.06
  -1   0   0  169.59    3.74
  -1   0   0  165.58    3.90
   1   0   0  171.20    3.49
   1   0   0  168.16    3.61
   1   0   0  161.43    3.02
   1   0   1 3471.46   14.76
  -1   0  -1 3401.55   14.39
   1   0   1 3430.90   17.56
  -1   0  -1 3383.86   19.75
  -1   0  -2 1038.75    9.57
   1   0   2 1057.10   10.59
  -1   0  -2 1043.76   12.87
   1   0   2 1040.17   10.86
  -1   0  -2 1060.16   10.32
   1   0   3 4040.01   30.17
   1   0   3 4108.95   24.10
   1   0   3 4255.04   24.51
   1   0   3 4096.71   31.93
  -1   0  -3 4050.14   24.46
  -1   0  -3 4258.66   29.89
  -1   0  -3 4194.04   16.25
  -1   0  -4  983.82   13.77
  -1   0  -4  972.76    9.53
   1   0   4  959.99   13.34
   1   0   4  973.02   16.19
  -1   0  -4  989.01   16.29
   1   0   4  970.15   17.36
   1   0   4  967.10   13.08
   1   0   5 1142.02   20.73
   1   0   5 1132.17   15.48
  -1   0  -5 1110.17   16.51
   1   0   5 1104.10   18.93
   1   0   5 1068.75   15.70
  -1   0  -5 1168.20   19.74
  -1   0  -5 1105.58   11.86
   1   0   6  209.62    8.95
  -1   0  -6  218.55    9.38
  -1   0  -6  221.10    8.16
   1   0   6  212.34    7.34
   1   0   6  227.04   10.03
   1   0   6  212.63    7.64
  -1   0  -6  214.25    5.88
   1   0   7  310.06   11.54
  -1   0  -7  290.44   11.71
  -1   0  -7  290.16   10.16
   1   0   7  280.33    9.48
   1   0   7  281.72   12.16
   1   0   7  284.70    9.22
  -1   0  -7  281.36    7.43
   1   0   8  495.02   17.29
   1   0   8  526.46   15.99
  -1   0  -8  504.78   14.59
   1   0   8  505.37   13.10
   1   0   8  504.67   13.66
  -1   0  -8  502.77   10.83
   1   0   9    0.99    1.26
  -1   0  -9    1.23    1.16
   1   0   9    0.60    0.84
   1   0   9    2.20    1.16
   1   0   9    0.22    0.67
  -1   0 -10  133.85    8.68
   1   0  10  146.97    8.42
   1   0  10  156.66    9.76
   1   0  10  135.60   10.40
   1   0  11    4.28    2.46
   1   0  11   -0.14    0.99
   1   0  11    3.51    1.95
  -1   0 -11    1.42    1.41
  -1   0 -12   24.62    4.36
   1   0  12   22.92    4.38
   1   0  12   24.87    5.16
   1   0  12   21.29    3.69
   1   0  13    2.21    1.52
   1   0  13    4.14    2.47
  -1   0 -13    4.87    2.25
  -1   0 -13    8.42    2.86
  -1   0 -14   14.66    3.78
  -1   0 -14    7.46    2.76
   1   0  14   10.68    4.04
   1   0  14   13.88    3.82
   1   0  15    8.30    3.65
   1   0  15    5.06    2.35
  -1   0 -15    6.76    2.89
  -1   0 -15    5.13    2.32
   1   0  16   -2.15    2.22
   1   0  16    1.77    2.36
  -1   0 -16    3.38    2.84
  -1   0 -16   -0.71    1.86
  -1   0 -17   10.23    3.90
   1   0  17    5.71    2.56
   1   0  17   14.67    5.25
  -1   0 -17    8.56    3.63
   1   0  18   11.14    3.85
   1   0  18    0.40    3.63
  -1  -1  18   20.03    6.07
  -1  -1  18   20.79    4.60
   1   1 -17    0.93    1.57
  -1  -1  17    2.97    3.17
  -1  -1  17   -0.43    1.20
  -1  -1  17   -0.95    1.71
   1   1 -17   -0.52    1.84
   1   1 -16   -2.10    2.38
  -1  -1  16   -0.95    2.11
  -1  -1  16   -0.09    1.91
  -1  -1  15  143.26   10.87
  -1  -1  15  145.75   13.52
   1   1 -15  147.42   12.06
  -1  -1  14   15.17    4.30
  -1  -1  14   23.40    4.30
   1   1 -14   17.86    4.09
  -1  -1  13  471.99   21.90
   1   1 -13  478.65   19.37
  -1  -1  13  437.37   17.18
   1   1 -12   17.65    3.13
  -1  -1  12   20.31    3.59
   1   1 -12   17.34    3.62
  -1  -1  12   23.62    4.94
   1   1 -11    9.95    2.38
  -1  -1  11    8.33    2.68
   1   1 -11    9.52    2.56
  -1  -1  11    8.24    2.23
   1   1 -10  244.15   11.59
   1   1 -10  235.81    9.81
  -1  -1  10  230.87   10.47
  -1  -1  10  223.92   11.40
  -1  -1  10  237.39   13.17
  -1  -1   9  423.91   13.31
   1   1  -9  403.91   12.13
   1   1  -9  420.95   14.15
  -1  -1   9  404.14   14.45
  -1  -1   9  420.78   16.15
  -1  -1   8   50.44    4.31
  -1  -1   8   53.31    4.92
  -1  -1   8   44.05    4.95
   1   1  -8   43.88    4.32
   1   1  -8   50.38    4.02
  -1  -1   7  518.76   15.55
   1   1  -7  503.47   11.87
  -1  -1   7  488.16   13.97
   1   1  -7  527.60   13.60
  -1  -1   7  519.59   12.70
   1   1  -6    1.59    0.94
  -1  -1   6    3.97    1.35
   1   1  -6    3.07    1.14
  -1  -1   6    1.62    0.74
  -1  -1   5  183.10    7.39
  -1  -1   5  177.78    6.09
   1   1  -5  191.86    6.42
   1   1  -5  185.85    6.68
  -1  -1   4  514.85   11.31
  -1  -1   4  534.10    9.42
  -1  -1   4  487.15    8.88
   1   1  -4  531.58   10.05
  -1  -1   3  534.68    8.13
  -1  -1   3  550.79    8.83
   1   1  -3  560.78    9.16
  -1  -1   3  528.61   10.22
   1   1  -3  539.65    8.79
  -1  -1   2   79.91    3.34
  -1  -1   2   83.13    3.26
  -1  -1   2   80.55    2.82
   1   1  -2   79.40    2.76
   1   1  -2   82.44    3.15
  -1  -1   2   80.86    3.54
  -1  -1   2   76.95    3.57
  -1  -1   1   13.65    0.89
   1   1  -1   13.38    1.42
   1   1  -1   14.89    1.23
  -1  -1   1   16.26    1.39
  -1  -1   1   14.55    1.34
  -1  -1   1   12.80    1.27
  -1  -1   1   12.37    1.12
   1   1  -1   15.54    0.90
  -1  -1   1   15.85    1.25
  -1  -1   0  638.77    7.45
   1   1   0  656.13    8.83
  -1  -1   0  633.47    7.81
  -1  -1   0  660.45    9.14
  -1  -1   0  640.62    8.42
  -1  -1   0  652.96    8.75
   1   1   0  646.12    6.93
  -1  -1  -1 3344.80   13.80
  -1  -1  -1 3394.73   22.17
  -1  -1  -1 3461.73   22.18
  -1  -1  -1 3360.03   23.18
  -1  -1  -1 3335.74   18.93
   1   1   1 3299.02   14.39
   1   1   1 3400.30   19.20
   1   1   1 3449.62   13.66
  -1  -1  -1 3334.61   18.73
  -1  -1  -1 3419.56   21.89
   1   1   1 3516.97   21.51
  -1  -1  -2  177.77    5.67
  -1  -1  -2  198.79    4.59
   1   1   2  197.54    5.87
  -1  -1  -2  191.79    6.00
   1   1   2  195.43    5.49
   1   1   2  191.40    4.71
  -1  -1  -2  192.08    4.99
   1   1   3   86.39    3.40
  -1  -1  -3   83.62    4.50
   1   1   3   89.69    2.78
  -1  -1  -3   86.43    4.19
   1   1   3   89.83    4.98
   1   1   3   85.42    4.47
  -1  -1  -3   76.06    3.61
  -1  -1  -3   91.54    3.79
  -1  -1  -4 4686.08   31.43
   1   1   4 4554.86   36.69
  -1  -1  -4 4585.95   30.81
   1   1   4 4596.40   26.87
   1   1   4 4614.42   38.78
  -1  -1  -4 4683.45   37.05
  -1  -1  -5  341.16   11.11
   1   1   5  358.33   11.79
   1   1   5  358.13   11.35
  -1  -1  -5  357.24    9.62
   1   1   5  330.19    7.53
  -1  -1  -5  354.64    9.61
   1   1   5  345.61    8.06
   1   1   6  840.02   19.22
  -1  -1  -6  823.92   16.13
   1   1   6  852.03   19.15
  -1  -1  -6  841.20   18.95
  -1  -1  -6  872.13   16.39
   1   1   6  823.06   13.61
   1   1   6  807.16   13.29
   1   1   7  141.83    6.10
  -1  -1  -7  157.71    7.64
   1   1   7  151.26    6.31
  -1  -1  -7  146.32    7.43
   1   1   7  159.58    9.02
  -1  -1  -7  157.15    8.93
   1   1   7  144.72    8.45
  -1  -1  -8   -0.08    0.90
   1   1   8    0.33    0.85
   1   1   8   -0.46    0.55
   1   1   8    0.12    0.56
   1   1   8    0.88    0.99
  -1  -1  -8   -0.01    0.78
   1   1   9    8.10    1.76
   1   1   9    7.48    1.70
   1   1   9    5.70    2.07
  -1  -1  -9    9.06    2.17
  -1  -1  -9    9.53    2.28
   1   1   9    9.67    2.69
  -1  -1 -10   71.57    6.33
   1   1  10   68.80    7.40
  -1  -1 -10   67.92    6.36
   1   1  10   63.30    6.56
  -1  -1 -11  142.81    9.51
   1   1  11  129.27    9.91
  -1  -1 -11  136.12    9.48
   1   1  11  124.11   10.43
   1   1  12    4.56    2.28
  -1  -1 -12    3.62    1.93
   1   1  12    5.26    2.15
  -1  -1 -12    9.13    2.95
  -1  -1 -13  194.13   12.51
   1   1  13  205.27   13.63
  -1  -1 -13  207.03   13.10
   1   1  13  181.48   14.05
   1   1  14   -0.31    1.45
   1   1  14    1.81    2.42
  -1  -1 -14    1.24    1.82
  -1  -1 -14    0.59    1.57
  -1  -1 -15   30.28    5.59
   1   1  15   26.76    6.07
  -1  -1 -15   23.68    5.09
   1   1  15   41.25    6.63
   1   1  16    1.55    1.90
   1   1  16    1.07    2.09
  -1  -1 -16   -1.09    2.18
  -1  -1 -16    5.99    2.91
  -1  -1 -17   -3.21    2.81
   1   1  17   -1.26    2.46
   1   1  17   -0.74    1.68
  -1  -1 -17   -0.65    1.99
  -1  -2  18   11.52    3.59
  -1  -2  18    5.35    3.36
   1   2 -18    7.17    3.03
  -1  -2  17    5.94    3.65
  -1  -2  17    2.09    1.44
   1   2 -17    5.38    2.43
  -1  -2  16    6.92    3.76
  -1  -2  16    7.36    2.69
   1   2 -16    9.80    3.79
  -1  -2  15    0.65    1.25
  -1  -2  15    2.66    2.27
  -1  -2  15    0.86    1.07
   1   2 -15   -1.44    1.68
   1   2 -15    1.76    2.09
  -1  -2  14   15.56    3.43
  -1  -2  14   16.81    4.68
   1   2 -14   11.83    2.96
   1   2 -14   13.62    3.68
  -1  -2  14   13.02    3.13
  -1  -2  13  235.30   11.99
  -1  -2  13  261.40   12.92
   1   2 -13  254.75   12.09
  -1  -2  13  250.62   16.26
   1   2 -13  251.70   13.93
   1   2 -12   31.45    4.16
  -1  -2  12   23.99    4.40
  -1  -2  12   30.45    4.12
   1   2 -12   35.32    5.00
  -1  -2  12   37.94    4.74
  -1  -2  12   33.98    5.67
  -1  -2  11  162.73   10.66
   1   2 -11  158.09    8.71
  -1  -2  11  173.69    9.10
   1   2 -11  169.04   10.16
  -1  -2  11  148.90   11.30
  -1  -2  11  189.06    9.82
  -1  -2  10    9.68    3.03
  -1  -2  10   13.06    3.00
   1   2 -10   10.46    2.54
   1   2 -10   13.45    2.54
  -1  -2  10   11.43    2.43
  -1  -2  10    8.01    2.12
  -1  -2   9    4.65    1.43
  -1  -2   9    6.35    2.12
   1   2  -9    6.10    1.81
  -1  -2   9    8.59    2.77
  -1  -2   9    8.46    2.02
   1   2  -9    8.57    2.30
  -1  -2   8   -0.12    0.79
   1   2  -8   -0.56    0.89
  -1  -2   8    0.40    0.57
  -1  -2   8    0.57    0.98
   1   2  -8    0.16    1.04
  -1  -2   8   -0.27    1.09
  -1  -2   7  729.57   15.38
  -1  -2   7  733.64   18.91
   1   2  -7  724.84   15.21
   1   2  -7  748.25   16.25
  -1  -2   7  721.47   13.82
   1   2  -6 2589.17   27.14
  -1  -2   6 2603.72   31.65
   1   2  -6 2584.11   27.84
  -1  -2   6 2641.53   27.53
   1   2  -5 1765.94   21.23
  -1  -2   5 1833.39   24.59
  -1  -2   5 1786.00   21.20
   1   2  -5 1774.90   21.11
  -1  -2   5 1760.86   25.03
  -1  -2   5 1741.56   17.21
   1   2  -4 1974.23   20.14
  -1  -2   4 1899.60   23.56
  -1  -2   4 2016.10   23.58
  -1  -2   4 1995.88   21.41
   1   2  -4 1979.81   21.28
  -1  -2   4 1925.57   16.17
   1   2  -3 1353.15   14.97
  -1  -2   3 1383.99   17.20
   1   2  -3 1264.95   16.27
  -1  -2   3 1286.17   15.47
  -1  -2   3 1308.69   17.50
  -1  -2   3 1317.18   17.49
  -1  -2   3 1314.87   12.38
   1   2  -2  798.02   10.11
  -1  -2   2  780.66   10.84
  -1  -2   2  829.57   13.43
  -1  -2   2  824.55   12.89
  -1  -2   2  800.55    9.37
  -1  -2   2  790.16   12.08
   1   2  -2  802.24   12.24
  -1  -2   2  789.78   11.98
  -1  -2   1   23.84    2.19
  -1  -2   1   26.59    2.16
  -1  -2   1   28.29    1.97
   1   2  -1   28.85    1.72
  -1  -2   1   27.92    1.98
  -1  -2   1   26.34    2.28
   1   2  -1   26.55    2.33
   1   2  -1   28.48    2.24
  -1  -2   1   23.46    1.80
  -1  -2   0  335.27    5.51
  -1  -2   0  321.25    6.87
  -1  -2   0  318.57    8.07
  -1  -2   0  315.14    7.34
   1   2   0  318.14    7.25
  -1  -2   0  317.02    5.76
  -1  -2   0  307.30    7.95
   1   2   0  311.58    5.59
   1   2   0  315.95    7.38
  -1  -2  -1 1277.62   14.94
  -1  -2  -1 1276.64   11.59
  -1  -2  -1 1309.13   16.58
  -1  -2  -1 1290.94   15.53
  -1  -2  -1 1221.79   17.04
   1   2   1 1252.44   13.78
   1   2   1 1262.47   16.58
  -1  -2  -2  840.04   14.88
   1   2   2  831.35   10.83
  -1  -2  -2  845.25   13.43
  -1  -2  -2  845.92   13.89
  -1  -2  -2  873.68   10.62
  -1  -2  -2  825.95   14.89
   1   2   2  853.44   15.44
   1   2   2  892.98   14.47
  -1  -2  -2  839.30   13.51
   1   2   3  199.85    8.13
  -1  -2  -3  196.58    6.06
  -1  -2  -3  195.21    6.86
  -1  -2  -3  191.63    7.23
   1   2   3  200.16    6.50
   1   2   3  205.07    5.37
   1   2   3  203.03    7.26
  -1  -2  -3  201.45    7.66
  -1  -2  -4  484.98   10.77
   1   2   4  487.34   11.54
  -1  -2  -4  507.34   12.69
  -1  -2  -4  499.12   12.69
  -1  -2  -4  499.47   11.78
   1   2   4  513.35   14.11
   1   2   4  506.79    8.79
   1   2   5  270.77    6.84
   1   2   5  255.41    9.33
  -1  -2  -5  264.74    9.26
  -1  -2  -5  256.51    8.68
   1   2   5  280.04   11.18
  -1  -2  -5  254.81   10.04
  -1  -2  -6    2.22    1.19
  -1  -2  -6    4.00    1.68
   1   2   6    7.77    2.17
  -1  -2  -6    5.81    1.69
   1   2   6    5.80    1.16
   1   2   6    6.48    1.75
  -1  -2  -7  262.29   10.63
  -1  -2  -7  261.44   10.33
   1   2   7  259.94   12.09
  -1  -2  -7  258.74   11.71
   1   2   7  262.62   11.31
   1   2   7  270.05    7.90
   1   2   8    4.55    1.15
  -1  -2  -8   -0.32    0.94
  -1  -2  -8    2.38    1.35
   1   2   8    2.94    1.63
  -1  -2  -8    8.52    2.52
   1   2   8    4.75    1.69
  -1  -2  -9   42.58    4.88
   1   2   9   40.05    3.54
   1   2   9   49.51    5.82
  -1  -2  -9   48.07    5.12
   1   2   9   42.80    5.51
  -1  -2 -10   56.25    5.92
  -1  -2 -10   61.03    6.22
   1   2  10   45.28    5.90
   1   2  10   64.38    7.05
  -1  -2 -11    1.96    1.40
   1   2  11    1.91    1.33
  -1  -2 -11    4.56    2.02
   1   2  11    6.08    2.56
  -1  -2 -12   38.78    5.64
   1   2  12   50.30    7.15
  -1  -2 -12   34.73    5.33
   1   2  12   47.16    6.58
   1   2  13   74.57    8.88
  -1  -2 -13   79.10    8.36
   1   2  13   85.74    9.30
  -1  -2 -13   70.33    7.92
  -1  -2 -14    7.69    2.96
   1   2  14    5.82    2.85
  -1  -2 -14    7.68    3.13
   1   2  14    3.48    2.27
   1   2  15   17.96    4.75
   1   2  15   17.84    5.04
  -1  -2 -15   20.78    4.84
  -1  -2 -15   23.54    5.16
  -1  -2 -16   14.42    4.52
  -1  -2 -16    5.87    3.14
   1   2  16    5.31    2.70
  -1  -2 -17  107.59   11.79
  -1  -3  18    5.66    4.13
  -1  -3  18    0.71    1.69
   1   3 -17   60.38    8.61
  -1  -3  17   51.28    7.14
  -1  -3  17   63.53   10.26
  -1  -3  16   -0.05    1.91
   1   3 -16    1.19    1.72
  -1  -3  16    1.23    1.28
   1   3 -16    1.90    2.12
  -1  -3  15  348.74   21.81
   1   3 -15  374.61   16.37
   1   3 -15  344.64   18.17
  -1  -3  15  350.37   16.96
   1   3 -14   42.19    5.42
  -1  -3  14   29.89    5.99
  -1  -3  14   37.02    5.37
   1   3 -14   27.76    5.08
  -1  -3  14   34.45    5.92
   1   3 -13  248.61   12.21
  -1  -3  13  250.94   13.02
  -1  -3  13  248.55   15.07
  -1  -3  13  257.59   16.83
  -1  -3  13  243.74   11.48
   1   3 -13  246.64   13.84
  -1  -3  12   64.35    7.44
   1   3 -12   59.98    5.78
  -1  -3  12   58.14    5.32
  -1  -3  12   70.71    6.66
   1   3 -12   65.55    6.79
  -1  -3  12   65.91    8.14
  -1  -3  11    4.97    2.52
   1   3 -11   10.16    2.46
  -1  -3  11   10.41    2.29
  -1  -3  11   16.32    3.73
  -1  -3  11    9.46    2.57
   1   3 -11   11.08    2.88
   1   3 -10 2075.92   30.83
  -1  -3  10 2124.78   37.78
  -1  -3  10 2012.52   39.71
  -1  -3  10 2086.35   27.77
   1   3 -10 2008.70   33.17
  -1  -3  10 2078.89   32.60
  -1  -3   9  318.45   13.89
   1   3  -9  307.54   12.19
   1   3  -9  258.00   10.52
  -1  -3   9  286.00    9.56
  -1  -3   9  303.85   11.90
  -1  -3   9  261.38   13.41
  -1  -3   8  969.81   24.15
   1   3  -8 1039.85   21.10
  -1  -3   8  996.63   16.37
  -1  -3   8 1025.48   23.77
  -1  -3   8 1042.45   20.94
   1   3  -8 1040.73   20.22
  -1  -3   7   63.89    3.77
   1   3  -7   61.94    4.82
  -1  -3   7   61.48    5.54
  -1  -3   7   62.25    5.80
   1   3  -7   55.99    4.65
  -1  -3   7   60.91    4.90
   1   3  -6 1350.50   21.50
  -1  -3   6 1367.98   21.85
  -1  -3   6 1314.90   15.29
  -1  -3   6 1380.53   24.38
   1   3  -6 1369.63   21.08
   1   3  -5    4.11    1.37
   1   3  -5    8.61    1.64
  -1  -3   5    6.66    1.59
  -1  -3   5    6.88    1.79
  -1  -3   5    9.13    1.92
  -1  -3   5    5.88    1.00
   1   3  -4  322.58    8.88
  -1  -3   4  322.53    8.58
  -1  -3   4  318.71   10.10
  -1  -3   4  335.32   10.10
   1   3  -4  311.70    9.69
  -1  -3   4  339.56    6.67
  -1  -3   4  334.75   10.37
  -1  -3   3 3355.82   20.39
   1   3  -3 3545.18   31.53
  -1  -3   3 3585.94   32.80
  -1  -3   3 3451.05   25.72
  -1  -3   3 3567.75   31.22
   1   3  -3 3355.59   26.64
  -1  -3   3 3469.57   29.68
  -1  -3   3 3500.49   31.95
  -1  -3   2  708.43   12.53
  -1  -3   2  748.96   14.49
  -1  -3   2  743.15   14.59
  -1  -3   2  721.77   12.03
   1   3  -2  740.90   14.14
  -1  -3   2  743.73   13.64
  -1  -3   2  723.25   10.95
  -1  -3   2  701.26   14.59
   1   3  -2  714.42   11.42
  -1  -3   1  525.02    9.12
  -1  -3   1  525.02    9.65
  -1  -3   1  502.17   11.98
  -1  -3   1  523.73   12.05
   1   3  -1  516.62   11.64
  -1  -3   1  529.86    9.02
  -1  -3   1  534.19   11.52
   1   3  -1  515.61   11.63
   1   3  -1  528.62    9.40
  -1  -3   0   63.84    2.83
   1   3   0   60.84    3.97
  -1  -3   0   56.21    4.18
  -1  -3   0   61.87    3.30
  -1  -3   0   66.02    2.77
  -1  -3   0   63.33    4.06
   1   3   0   69.33    4.02
   1   3   0   63.82    3.29
  -1  -3   0   61.95    4.25
   1   3   1  173.66    5.87
  -1  -3  -1  156.54    5.68
  -1  -3  -1  164.14    6.87
   1   3   1  167.31    3.61
  -1  -3  -1  162.09    4.05
  -1  -3  -1  163.94    7.38
  -1  -3  -1  158.65    6.62
  -1  -3  -1  166.54    3.55
  -1  -3  -2  691.13   15.74
  -1  -3  -2  682.56    9.03
  -1  -3  -2  686.34   13.13
  -1  -3  -2  692.93   14.44
  -1  -3  -2  701.38   14.49
   1   3   2  693.13   15.34
   1   3   2  688.55   11.04
  -1  -3  -3  170.54    7.18
  -1  -3  -3  174.28    7.49
  -1  -3  -3  171.43    5.22
   1   3   3  168.26    8.17
   1   3   3  174.31    5.37
  -1  -3  -3  166.59    7.31
   1   3   4    1.48    0.79
  -1  -3  -4    0.46    0.68
   1   3   4    0.67    0.43
   1   3   4    0.04    0.94
  -1  -3  -4   -0.05    0.72
   1   3   4   -0.60    0.78
   1   3   5   49.82    3.93
   1   3   5   54.21    5.31
  -1  -3  -5   47.02    4.51
  -1  -3  -5   52.15    5.16
  -1  -3  -5   49.67    4.51
  -1  -3  -5   46.55    4.58
   1   3   5   53.22    3.04
  -1  -3  -6  157.19    7.82
  -1  -3  -6  158.28    8.46
   1   3   6  166.03    7.97
   1   3   6  152.59    5.35
  -1  -3  -6  154.65    9.30
  -1  -3  -6  155.79    8.76
   1   3   6  161.19    9.65
   1   3   7  166.84    5.90
  -1  -3  -7  146.97    8.07
  -1  -3  -7  148.51    8.76
  -1  -3  -7  136.39    8.85
  -1  -3  -7  168.31   10.31
   1   3   7  149.47    8.25
   1   3   7  156.97   10.00
   1   3   8   37.39    4.63
   1   3   8   35.29    5.02
  -1  -3  -8   26.86    3.80
  -1  -3  -8   32.57    4.83
  -1  -3  -8   36.65    4.66
   1   3   8   38.99    3.05
   1   3   9    4.45    1.89
   1   3   9    4.56    2.06
  -1  -3  -9    4.96    2.49
  -1  -3  -9    3.94    1.76
  -1  -3  -9   10.56    2.95
  -1  -3 -10   11.74    2.86
  -1  -3 -10   17.63    4.13
   1   3  10   16.07    3.84
   1   3  10   10.41    2.90
  -1  -3 -10   10.78    2.78
  -1  -3 -11  120.67   10.84
   1   3  11  126.28   10.11
  -1  -3 -11  134.81   10.43
   1   3  11  132.53   11.03
  -1  -3 -11  124.04    9.64
  -1  -3 -12   17.89    4.20
  -1  -3 -12   18.83    3.91
   1   3  12    9.10    3.05
  -1  -3 -12   21.12    5.23
   1   3  12   12.98    3.79
  -1  -3 -13   25.30    5.00
   1   3  13   30.18    5.84
  -1  -3 -13   26.38    5.44
  -1  -3 -13   26.81    5.94
  -1  -3 -14   12.05    3.73
   1   3  14   11.93    3.79
  -1  -3 -14   20.37    5.34
  -1  -3 -14   16.77    4.52
  -1  -3 -15   13.18    4.76
   1   3  15   24.76    5.65
  -1  -3 -15   19.91    5.02
   1   3  16   52.45    8.45
  -1  -3 -16   54.39    8.64
  -1  -4  18   70.96    9.04
   1   4 -17   46.25    6.45
  -1  -4  17   57.43    9.94
   1   4 -17   55.07    8.25
  -1  -4  17   52.29    7.47
   1   4 -16   38.67    5.72
   1   4 -16   57.79    7.97
  -1  -4  16   52.20    7.30
  -1  -4  16   64.14    9.93
  -1  -4  15    2.17    2.35
   1   4 -15    0.02    2.23
  -1  -4  15    1.47    1.65
   1   4 -15    4.32    1.97
  -1  -4  15    0.38    2.41
  -1  -4  14    2.56    1.80
   1   4 -14    0.18    1.26
  -1  -4  14   -0.25    1.49
  -1  -4  14   -2.28    2.86
   1   4 -14   -1.18    2.08
  -1  -4  13   90.39    9.47
   1   4 -13  102.82    8.18
   1   4 -13   92.86    8.70
  -1  -4  13   83.27    7.98
  -1  -4  13   92.23   10.36
  -1  -4  12   64.68    7.65
  -1  -4  12   72.75    7.19
   1   4 -12   59.88    6.55
  -1  -4  12   59.20    7.88
   1   4 -12   65.56    6.29
  -1  -4  11    0.68    0.92
  -1  -4  11    4.67    2.74
   1   4 -11    6.94    2.23
   1   4 -11    4.39    1.74
  -1  -4  11    3.11    1.54
  -1  -4  11    3.57    1.74
   1   4 -10   75.74    6.27
  -1  -4  10   90.55    8.61
  -1  -4  10   72.99    4.83
  -1  -4  10   90.54    7.35
   1   4 -10   75.98    6.64
  -1  -4  10   86.71    7.97
  -1  -4   9    5.88    2.14
  -1  -4   9    6.70    1.54
   1   4  -9    7.45    2.19
   1   4  -9   11.76    2.67
  -1  -4   9   11.83    2.72
  -1  -4   9    5.96    2.19
  -1  -4   8  368.35   14.91
   1   4  -8  359.72   12.79
  -1  -4   8  369.56   13.56
  -1  -4   8  346.38    8.79
  -1  -4   8  355.92   15.07
   1   4  -8  358.61   12.93
  -1  -4   7  384.39   14.64
  -1  -4   7  393.32   13.51
   1   4  -7  394.48   13.07
   1   4  -7  397.61   12.83
  -1  -4   7  379.51    8.43
  -1  -4   7  372.17   14.11
  -1  -4   6    0.08    0.69
  -1  -4   6    0.65    1.09
  -1  -4   6    1.62    1.31
  -1  -4   6    0.37    0.79
   1   4  -6    1.62    1.35
  -1  -4   6    1.47    0.65
   1   4  -6    1.13    0.91
  -1  -4   5 1830.00   27.03
   1   4  -5 1863.82   27.30
  -1  -4   5 1827.85   27.20
  -1  -4   5 1781.12   27.34
  -1  -4   5 1800.43   15.77
   1   4  -5 1771.33   24.14
  -1  -4   5 1754.46   21.99
  -1  -4   4   19.58    2.82
  -1  -4   4   22.02    2.30
  -1  -4   4   23.26    3.08
  -1  -4   4   20.14    2.67
  -1  -4   4   20.07    2.73
   1   4  -4   21.91    2.56
   1   4  -4   19.86    2.80
  -1  -4   3   86.78    5.23
  -1  -4   3   85.55    4.13
  -1  -4   3   89.17    5.92
  -1  -4   3   89.81    5.89
   1   4  -3   93.80    5.89
  -1  -4   3   89.29    5.01
   1   4  -3   94.76    5.02
   1   4  -2   48.51    4.24
  -1  -4   2   49.66    2.98
  -1  -4   2   53.66    3.43
   1   4  -2   47.75    3.45
  -1  -4   2   56.87    4.63
  -1  -4   2   48.12    4.39
  -1  -4   2   54.71    4.58
  -1  -4   2   48.80    4.09
  -1  -4   2   48.33    3.63
   1   4  -1 1911.58   21.32
  -1  -4   1 1876.55   18.28
  -1  -4   1 1849.37   27.38
   1   4  -1 1853.91   24.40
  -1  -4   1 1931.42   27.17
   1   4  -1 1891.93   25.90
  -1  -4   1 1868.83   26.00
  -1  -4   1 1813.66   24.80
  -1  -4   1 1822.15   20.04
  -1  -4   1 1860.51   17.49
  -1  -4   0    0.47    0.47
  -1  -4   0    1.16    0.41
   1   4   0    0.36    0.62
  -1  -4   0   -0.26    0.74
   1   4   0   -0.17    0.61
  -1  -4   0    1.07    0.87
   1   4   0    0.53    0.55
  -1  -4   0   -0.42    0.92
   1   4   0    1.51    0.82
  -1  -4   0    1.66    0.68
   1   4   1  159.66    7.40
  -1  -4  -1  160.48    4.34
  -1  -4  -1  164.96    7.74
  -1  -4  -1  168.71    3.97
   1   4   1  164.92    6.50
  -1  -4  -1  165.00    8.46
  -1  -4  -1  160.09    7.69
   1   4   1  159.11    6.44
  -1  -4  -1  159.49    6.11
   1   4   2  642.10   16.00
  -1  -4  -2  662.37   16.09
   1   4   2  692.04   17.03
  -1  -4  -2  689.86    6.52
  -1  -4  -2  661.05    8.03
   1   4   2  678.06   12.36
  -1  -4  -2  659.59   13.64
  -1  -4  -2  702.05   18.00
  -1  -4  -2  697.94   16.16
   1   4   2  685.12    6.18
  -1  -4  -3  476.62   14.17
  -1  -4  -3  473.77   15.09
  -1  -4  -3  453.36    7.69
  -1  -4  -3  471.14   12.49
  -1  -4  -3  504.08   14.10
   1   4   3  465.84   14.52
   1   4   3  513.13   14.93
  -1  -4  -3  487.40   15.63
   1   4   3  478.51    9.71
  -1  -4  -4  225.76   10.09
   1   4   4  239.46   10.45
  -1  -4  -4  248.63   11.19
   1   4   4  233.36   10.86
  -1  -4  -4  238.89    9.65
  -1  -4  -4  231.04   11.24
   1   4   4  235.64    6.56
  -1  -4  -4  225.92    6.36
   1   4   5  795.31   19.66
  -1  -4  -5  813.93   20.80
  -1  -4  -5  762.64   21.51
   1   4   5  769.90   11.66
  -1  -4  -5  773.55   18.77
   1   4   5  781.00   14.34
  -1  -4  -5  733.75   19.08
   1   4   5  784.98   21.18
  -1  -4  -5  751.93   13.07
   1   4   6  347.80   14.81
  -1  -4  -6  325.95   13.21
   1   4   6  335.72   10.57
  -1  -4  -6  312.27   13.08
   1   4   6  333.83    7.73
  -1  -4  -6  326.47   14.62
   1   4   7   70.45    5.40
   1   4   7   82.26    7.65
  -1  -4  -7   81.09    7.04
  -1  -4  -7   79.94    7.04
  -1  -4  -7   73.12    7.31
   1   4   8  633.93   22.07
  -1  -4  -8  598.72   20.00
   1   4   8  605.78   17.09
  -1  -4  -8  606.67   22.11
  -1  -4  -9   78.37    8.42
   1   4   9   83.26    8.46
  -1  -4  -9   73.39    7.46
  -1  -4 -10  179.24   13.35
   1   4  10  179.28   12.78
  -1  -4 -10  179.13   12.16
  -1  -4 -11  340.85   17.65
   1   4  11  335.64   18.21
  -1  -4 -11  305.12   18.14
  -1  -4 -12  127.51   12.30
   1   4  12  146.68   12.66
  -1  -4 -12  143.10   12.07
  -1  -4 -13   55.11    8.68
   1   4  13   65.63    8.90
  -1  -4 -13   49.51    7.63
   1   4  14   60.78    8.70
  -1  -4 -14   49.26    7.95
  -1  -4 -14   58.27    9.21
  -1  -4 -15  172.72   15.19
  -1  -4 -15  137.93   14.48
   1   4  15  155.11   14.51
   1   5 -18    2.53    1.98
   1   5 -17  105.13   11.33
  -1  -5  17  105.61   13.56
  -1  -5  17   89.25   10.23
   1   5 -17  115.85   10.29
  -1  -5  16   54.25    7.80
  -1  -5  16   55.52    8.77
   1   5 -16   45.10    7.14
  -1  -5  16   56.78    9.81
   1   5 -16   50.32    6.70
   1   5 -15  206.95   12.87
  -1  -5  15  185.88   16.55
   1   5 -15  192.58   13.81
  -1  -5  15  201.22   15.87
  -1  -5  15  168.31   13.00
   1   5 -14   11.59    3.14
  -1  -5  14   16.02    4.71
   1   5 -14   17.80    4.10
  -1  -5  14   21.24    5.11
  -1  -5  14   18.33    4.19
  -1  -5  13   46.07    7.54
   1   5 -13   55.81    6.80
  -1  -5  13   71.66    8.84
  -1  -5  13   58.01    7.08
   1   5 -13   49.76    5.97
  -1  -5  12   65.81    8.56
  -1  -5  12   68.78    8.12
   1   5 -12   73.21    7.43
   1   5 -12   84.80    7.52
  -1  -5  12   71.13    7.54
   1   5 -11    0.37    1.27
  -1  -5  11    0.95    2.01
  -1  -5  11   -0.28    1.53
   1   5 -11   -0.76    1.43
  -1  -5  11    0.02    1.68
   1   5 -10   86.02    7.24
  -1  -5  10   76.44    7.77
  -1  -5  10   76.15    7.21
  -1  -5  10   81.18    8.47
   1   5 -10   79.31    6.80
   1   5  -9   39.56    4.75
  -1  -5   9   30.71    4.96
   1   5  -9   39.14    4.71
  -1  -5   9   38.48    5.34
  -1  -5   9   35.31    4.83
  -1  -5   8  353.58   15.16
  -1  -5   8  365.87   14.05
   1   5  -8  350.72   13.78
  -1  -5   8  347.76    8.01
   1   5  -8  380.92   13.78
  -1  -5   8  363.70   14.52
  -1  -5   8  345.09   15.22
  -1  -5   8  363.69   12.72
  -1  -5   7   14.43    3.02
   1   5  -7   15.18    3.05
   1   5  -7   12.37    2.53
  -1  -5   7   11.71    2.23
  -1  -5   7   12.25    2.87
  -1  -5   7   15.79    3.12
  -1  -5   7   16.46    3.01
  -1  -5   7   13.91    1.51
   1   5  -6   35.66    3.89
  -1  -5   6   32.02    4.10
  -1  -5   6   25.97    3.86
  -1  -5   6   34.11    4.26
  -1  -5   6   21.95    2.81
  -1  -5   6   26.63    3.73
   1   5  -6   29.74    3.87
  -1  -5   5  609.83   12.96
   1   5  -5  623.79   15.41
  -1  -5   5  633.70   17.52
   1   5  -5  630.91   17.47
  -1  -5   5  631.68   17.63
  -1  -5   5  619.71   17.17
   1   5  -4    8.09    1.80
  -1  -5   4    6.02    1.71
  -1  -5   4    5.27    1.19
  -1  -5   4    3.69    1.71
   1   5  -4    8.40    2.09
  -1  -5   4    8.76    1.94
  -1  -5   4   10.47    2.36
   1   5  -3  256.87    9.16
  -1  -5   3  280.35   11.61
  -1  -5   3  252.16    8.72
  -1  -5   3  259.54    7.37
  -1  -5   3  263.91   11.34
  -1  -5   3  275.59   10.90
   1   5  -3  259.84   10.99
  -1  -5   3  239.51   10.62
  -1  -5   3  248.17    9.49
   1   5  -2    1.01    0.87
   1   5  -2   -0.35    1.01
  -1  -5   2   -0.16    0.93
  -1  -5   2    0.73    1.04
  -1  -5   2    0.60    0.57
  -1  -5   2   -0.44    1.04
  -1  -5   2   -0.21    0.55
  -1  -5   2    0.46    0.50
  -1  -5   2   -0.37    0.97
   1   5  -1  542.33   12.42
  -1  -5   1  559.28   12.17
  -1  -5   1  556.29   10.48
   1   5  -1  532.22   14.49
  -1  -5   1  544.72   15.75
  -1  -5   1  558.81   15.48
  -1  -5   1  546.29    9.81
  -1  -5   1  568.92   16.96
  -1  -5   1  606.19   17.13
   1   5  -1  545.04   13.07
   1   5  -1  555.30   15.81
   1   5   0  438.39   12.43
   1   5   0  443.78   12.20
  -1  -5   0  444.43   15.02
  -1  -5   0  436.23    9.81
  -1  -5   0  428.14   13.98
  -1  -5   0  444.49   14.08
   1   5   0  449.75   11.95
  -1  -5   0  465.87   15.57
  -1  -5   0  427.19    7.00
  -1  -5   0  440.26    9.72
   1   5   0  444.31   14.07
   1   5   1  140.31    7.91
  -1  -5  -1  158.60    8.64
  -1  -5  -1  158.48    8.47
  -1  -5  -1  161.32    9.24
   1   5   1  152.75    8.79
   1   5   1  150.68    6.85
  -1  -5  -1  147.93    8.96
  -1  -5  -1  158.93    5.04
   1   5   1  154.01    7.77
   1   5   1  148.78    7.11
  -1  -5  -1  152.37    6.34
   1   5   2   10.20    2.35
   1   5   2   13.04    1.94
  -1  -5  -2   15.36    3.16
  -1  -5  -2   12.71    2.72
  -1  -5  -2    9.45    0.99
   1   5   2   12.00    2.38
  -1  -5  -2   10.83    2.42
  -1  -5  -2    8.45    2.27
  -1  -5  -2   15.44    2.25
   1   5   3   35.09    2.94
   1   5   3   29.40    4.14
  -1  -5  -3   36.10    4.75
  -1  -5  -3   25.21    3.72
   1   5   3   38.43    4.45
  -1  -5  -3   34.17    1.51
  -1  -5  -3   34.32    3.59
  -1  -5  -3   28.89    4.19
  -1  -5  -3   33.06    3.96
  -1  -5  -4   38.92    5.16
  -1  -5  -4   38.31    4.06
  -1  -5  -4   45.64    2.36
   1   5   4   51.55    5.41
   1   5   4   44.59    3.09
  -1  -5  -4   44.16    4.95
  -1  -5  -4   38.87    4.90
   1   5   4   41.29    4.79
  -1  -5  -5  339.74   14.72
   1   5   5  288.92   13.46
   1   5   5  321.48   13.49
  -1  -5  -5  305.14   12.24
   1   5   5  322.74    7.84
  -1  -5  -5  312.23   14.88
  -1  -5  -5  293.96   13.32
   1   5   6  457.51   17.79
  -1  -5  -6  433.58   15.78
  -1  -5  -6  440.57   16.83
  -1  -5  -6  409.37   17.71
  -1  -5  -7  137.16    9.43
  -1  -5  -7  134.50   10.64
  -1  -5  -7  127.85    9.52
   1   5   7  147.41   10.70
  -1  -5  -8  264.50   14.38
  -1  -5  -8  251.21   15.21
   1   5   8  278.27   15.24
  -1  -5  -9   -1.13    1.92
   1   5   9    0.82    1.69
  -1  -5 -10  172.30   12.84
  -1  -5 -10  204.68   14.96
   1   5  10  186.03   13.73
  -1  -5 -11   29.87    5.73
  -1  -5 -11   23.22    5.52
   1   5  11   40.70    6.71
   1   5  12   73.25    9.35
  -1  -5 -12   71.55    9.14
  -1  -5 -12   75.66   10.10
  -1  -5 -13   74.20    9.80
  -1  -5 -13   78.59   10.58
   1   5  13   60.00    9.02
   1   5  14    2.77    3.04
  -1  -5 -14    1.24    1.90
   1   6 -17   38.19    6.17
   1   6 -17   39.41    7.13
  -1  -6  17   44.21    7.50
  -1  -6  17   38.59    8.58
   1   6 -16    2.03    1.64
  -1  -6  16    2.95    2.48
   1   6 -16    1.68    1.95
  -1  -6  16   -1.60    2.72
  -1  -6  16   -3.09    3.98
   1   6 -15    6.84    2.83
  -1  -6  15    3.95    2.39
  -1  -6  15    9.58    4.17
  -1  -6  15    4.64    2.41
   1   6 -15    2.61    1.98
   1   6 -14   35.85    5.99
  -1  -6  14   26.23    6.34
   1   6 -14   40.05    5.88
  -1  -6  14   33.79    6.01
  -1  -6  14   26.54    5.89
  -1  -6  13  193.10   15.69
  -1  -6  13  213.78   14.21
   1   6 -13  216.52   12.84
  -1  -6  13  255.56   16.85
   1   6 -13  227.77   14.01
   1   6 -12   17.81    3.93
  -1  -6  12   17.04    3.69
  -1  -6  12   20.79    4.04
   1   6 -12   17.74    3.68
  -1  -6  12   17.81    4.62
  -1  -6  12   28.63    5.60
  -1  -6  12   15.91    3.88
  -1  -6  11  390.69   15.94
   1   6 -11  382.20   16.47
  -1  -6  11  323.21   17.33
  -1  -6  11  360.72   17.23
   1   6 -11  355.31   15.63
  -1  -6  11  336.90   15.14
  -1  -6  11  346.34   18.85
   1   6 -10   40.40    5.29
  -1  -6  10   40.55    5.25
  -1  -6  10   38.97    5.98
  -1  -6  10   44.13    5.03
  -1  -6  10   29.37    4.87
   1   6 -10   38.95    5.10
  -1  -6  10   47.78    6.66
  -1  -6   9   14.13    3.33
  -1  -6   9   14.77    3.24
   1   6  -9   19.49    3.59
  -1  -6   9   15.18    2.96
  -1  -6   9   16.12    3.86
   1   6  -9   12.73    3.08
  -1  -6   9   14.90    3.61
   1   6  -8    0.72    1.09
   1   6  -8   -1.42    1.77
  -1  -6   8   -1.83    1.42
  -1  -6   8   -1.84    1.05
  -1  -6   8   -0.01    1.27
  -1  -6   8   -0.71    1.07
  -1  -6   8   -0.26    1.12
  -1  -6   7   25.12    3.95
   1   6  -7   31.33    4.46
  -1  -6   7   26.06    3.17
  -1  -6   7   23.33    3.96
  -1  -6   7   22.40    3.83
  -1  -6   7   27.82    4.42
   1   6  -7   32.50    4.11
  -1  -6   6   10.15    2.57
  -1  -6   6   14.87    3.18
  -1  -6   6   13.24    3.02
  -1  -6   6   13.67    2.94
   1   6  -6   10.71    2.82
  -1  -6   6   11.27    2.00
   1   6  -6   12.18    2.62
  -1  -6   5   91.75    6.60
  -1  -6   5   93.97    5.11
  -1  -6   5   78.76    6.44
  -1  -6   5   92.33    7.37
  -1  -6   5   89.05    7.36
   1   6  -5   94.48    6.53
   1   6  -5   90.84    7.28
  -1  -6   4  406.22   15.35
  -1  -6   4  375.93   14.70
   1   6  -4  364.64   12.31
  -1  -6   4  391.75    9.62
   1   6  -4  354.65    7.72
  -1  -6   4  383.34   13.44
   1   6  -4  381.82   14.70
  -1  -6   3   17.68    3.37
  -1  -6   3   13.27    1.71
   1   6  -3   16.91    2.01
  -1  -6   3   11.36    2.33
   1   6  -3   15.40    2.63
   1   6  -3   16.64    3.11
  -1  -6   3   11.81    2.69
  -1  -6   3   16.17    3.17
  -1  -6   3   18.71    2.49
  -1  -6   3   17.05    3.14
  -1  -6   2    3.49    1.29
   1   6  -2    4.33    1.51
  -1  -6   2    5.25    1.06
   1   6  -2    3.70    1.67
  -1  -6   2    4.48    1.67
  -1  -6   2    5.44    2.01
  -1  -6   2    6.20    2.21
   1   6  -2    6.04    1.88
  -1  -6   2    5.60    2.06
   1   6  -2    6.34    1.44
  -1  -6   2    8.39    1.50
   1   6  -1   27.11    3.55
  -1  -6   1   28.22    3.98
  -1  -6   1   25.03    2.13
   1   6  -1   24.71    3.85
  -1  -6   1   29.21    4.41
  -1  -6   1   26.86    2.43
  -1  -6   1   20.75    3.71
  -1  -6   1   26.89    2.97
   1   6  -1   24.05    3.12
  -1  -6   1   25.10    3.75
   1   6  -1   28.17    3.03
   1   6   0  260.81   11.94
  -1  -6   0  288.43    8.40
   1   6   0  260.06   10.44
  -1  -6   0  250.08   11.71
  -1  -6   0  275.08   13.15
   1   6   0  271.71   10.39
  -1  -6   0  253.94   11.70
  -1  -6   0  272.09   13.09
   1   6   0  257.75    9.95
  -1  -6   0  263.49    8.25
  -1  -6   0  239.89    4.54
  -1  -6  -1    0.08    0.34
   1   6   1   -0.42    0.83
  -1  -6  -1    0.46    0.62
  -1  -6  -1   -0.22    1.20
   1   6   1   -0.51    1.17
   1   6   1    0.08    0.89
  -1  -6  -1    0.17    0.93
   1   6   1    0.82    0.98
  -1  -6  -1   -0.24    1.13
  -1  -6  -1   -1.30    1.34
   1   6   1   -0.41    1.12
   1   6   2  222.88   11.84
   1   6   2  191.50   10.28
   1   6   2  193.47    9.96
  -1  -6  -2  213.04   10.84
  -1  -6  -2  195.72   11.58
  -1  -6  -2  198.76   10.87
  -1  -6  -2  194.66   11.36
  -1  -6  -2  213.06    8.40
   1   6   2  196.61    8.02
   1   6   2  201.24    9.42
  -1  -6  -3   -0.03    1.21
  -1  -6  -3    0.41    0.62
   1   6   3    0.91    0.93
   1   6   3    0.55    0.69
  -1  -6  -3   -0.33    1.31
  -1  -6  -3    1.13    1.43
   1   6   3   -0.83    1.04
  -1  -6  -3   -1.56    1.58
   1   6   4    3.55    1.54
  -1  -6  -4    2.70    1.64
  -1  -6  -4    0.67    1.02
  -1  -6  -4    1.32    1.60
   1   6   4    3.00    1.68
  -1  -6  -4    0.07    1.81
  -1  -6  -4    2.12    1.19
  -1  -6  -5  224.23   12.54
   1   6   5  228.97   12.38
  -1  -6  -5  221.75   12.87
   1   6   5  224.72   12.48
  -1  -6  -5  217.12   13.43
  -1  -6  -5  226.52   10.96
   1   6   6   67.43    7.27
  -1  -6  -6   67.06    7.85
  -1  -6  -6   65.13    6.38
  -1  -6  -6   78.33    7.72
  -1  -6  -7  272.00   14.95
  -1  -6  -7  282.22   16.44
   1   6   7  283.25   15.40
  -1  -6  -8    9.58    3.64
   1   6   8    7.58    3.06
  -1  -6  -8    5.17    2.51
  -1  -6  -9  110.23   10.48
  -1  -6  -9   90.99   10.28
   1   6   9   95.69    9.82
  -1  -6 -10   15.19    4.69
   1   6  10   15.19    4.14
  -1  -6 -10    8.61    3.23
   1   6  11    1.55    1.51
  -1  -6 -11    2.10    2.24
  -1  -6 -11    0.06    2.24
   1   6  12    1.64    2.17
  -1  -6 -12    4.69    2.80
  -1  -6 -12    4.08    2.45
  -1  -6 -13   -0.53    1.90
  -1  -6 -13    0.53    1.81
   1   6  13    1.58    2.14
  -1  -6 -14   -1.30    2.81
  -1  -7  16   85.78   11.40
  -1  -7  16  120.39   14.53
   1   7 -16  101.90   10.87
  -1  -7  16  108.01   11.78
   1   7 -16  102.50   10.06
  -1  -7  15    6.22    3.45
   1   7 -15    4.91    2.48
  -1  -7  15    2.34    2.27
   1   7 -15   -0.82    2.24
  -1  -7  15    1.19    1.19
   1   7 -14    0.03    2.20
   1   7 -14    3.45    1.88
  -1  -7  14    3.15    2.43
  -1  -7  14    1.19    1.94
  -1  -7  14    5.08    2.94
   1   7 -13    9.39    3.10
  -1  -7  13    8.67    3.15
  -1  -7  13   10.96    3.77
   1   7 -13    8.17    2.94
  -1  -7  13    9.80    3.52
   1   7 -12  125.41   10.21
   1   7 -12  122.25   10.16
  -1  -7  12  137.78   12.27
  -1  -7  12  118.43   10.85
  -1  -7  12  108.28   11.42
  -1  -7  11   27.41    5.15
  -1  -7  11   28.83    4.90
   1   7 -11   31.75    5.16
  -1  -7  11   31.38    5.73
   1   7 -11   37.22    5.46
  -1  -7  11   26.27    5.42
  -1  -7  10   65.91    7.92
  -1  -7  10   74.46    8.14
   1   7 -10   77.75    7.75
   1   7 -10   72.56    7.25
  -1  -7  10   59.22    6.74
  -1  -7  10   58.23    7.60
   1   7  -9    9.68    2.88
   1   7  -9    7.27    2.39
  -1  -7   9    4.61    2.20
  -1  -7   9    5.04    2.47
  -1  -7   9    3.29    2.06
  -1  -7   9    3.99    2.17
  -1  -7   8  143.49   10.18
  -1  -7   8  165.36   11.28
   1   7  -8  175.15   10.33
  -1  -7   8  173.90   11.50
   1   7  -8  172.19   11.17
  -1  -7   8  178.81   11.80
   1   7  -7   -0.55    0.98
  -1  -7   7   -3.26    1.80
   1   7  -7   -0.75    1.51
  -1  -7   7   -0.70    1.66
  -1  -7   7   -0.05    1.24
  -1  -7   7    0.85    1.50
  -1  -7   6  552.56   19.90
  -1  -7   6  587.48   18.50
   1   7  -6  573.22   17.50
   1   7  -6  550.72   19.38
  -1  -7   6  555.00   18.99
  -1  -7   6  546.17   19.48
   1   7  -5  759.87   19.65
  -1  -7   5  750.17   19.48
  -1  -7   5  748.94   22.72
  -1  -7   5  721.60   20.71
  -1  -7   5  730.05   22.69
   1   7  -5  763.34   22.64
  -1  -7   4   -0.71    1.63
  -1  -7   4   -0.30    1.06
   1   7  -4   -1.49    1.52
  -1  -7   4    1.78    1.93
   1   7  -4    0.21    0.89
  -1  -7   3 1512.70   32.49
  -1  -7   3 1418.65   31.49
  -1  -7   3 1498.77   31.45
   1   7  -3 1522.25   31.44
  -1  -7   3 1534.29   30.64
   1   7  -3 1394.79   25.74
  -1  -7   3 1505.11   22.46
   1   7  -3 1379.14   28.81
  -1  -7   3 1489.07   26.64
   1   7  -2   95.86    7.95
   1   7  -2   93.36    7.36
  -1  -7   2  112.67    8.94
  -1  -7   2   92.62    7.86
   1   7  -2   93.74    6.63
  -1  -7   2  104.06    6.61
   1   7  -2   90.20    5.26
  -1  -7   2  106.81    8.09
  -1  -7   2   91.04    8.09
   1   7  -1  999.23   19.12
   1   7  -1 1014.76   21.68
  -1  -7   1 1010.13   26.82
  -1  -7   1  986.51   26.75
  -1  -7   1 1009.59   25.53
  -1  -7   1 1054.74   19.65
   1   7  -1 1047.68   25.99
   1   7  -1  958.91   22.48
  -1  -7   1 1008.90   25.25
   1   7   0   58.14    6.16
   1   7   0   59.94    6.62
  -1  -7   0   58.95    6.23
   1   7   0   60.67    5.40
   1   7   0   62.43    5.17
  -1  -7   0   69.49    7.21
  -1  -7   0   64.52    6.57
   1   7   0   69.47    5.78
  -1  -7   0   56.49    6.58
  -1  -7   0   62.04    4.36
   1   7   1  303.41   11.40
  -1  -7  -1  314.10   15.64
  -1  -7  -1  286.27   14.64
  -1  -7  -1  301.63   14.35
   1   7   1  290.41   12.05
  -1  -7  -1  316.52   14.17
   1   7   1  300.16   14.00
   1   7   1  294.41   14.74
   1   7   1  307.69   12.42
   1   7   2  403.12   16.22
   1   7   2  428.03   12.69
   1   7   2  419.07   15.30
  -1  -7  -2  411.00   17.82
  -1  -7  -2  435.88   18.83
  -1  -7  -2  419.92   17.19
  -1  -7  -2  444.44   16.81
   1   7   2  425.39   14.87
  -1  -7  -2  449.56   12.63
   1   7   2  427.84   17.67
  -1  -7  -3    9.58    2.73
   1   7   3    9.58    2.82
   1   7   3    7.30    2.49
  -1  -7  -3    3.50    1.68
   1   7   3    5.60    1.96
  -1  -7  -3    7.21    3.05
  -1  -7  -3   10.74    3.13
  -1  -7  -3    9.45    3.01
   1   7   3    9.65    2.60
  -1  -7  -4  872.86   26.10
   1   7   4  886.24   24.70
  -1  -7  -4  916.86   24.72
  -1  -7  -4  880.46   26.90
  -1  -7  -4  843.89   27.43
  -1  -7  -4  885.72   20.89
   1   7   4  897.16   26.04
  -1  -7  -5   49.57    6.71
   1   7   5   59.14    6.80
  -1  -7  -5   53.54    6.67
  -1  -7  -5   39.49    6.26
   1   7   5   50.61    6.35
   1   7   6  486.69   20.03
  -1  -7  -6  442.98   21.46
  -1  -7  -6  467.23   20.27
   1   7   6  489.82   19.86
   1   7   7    8.42    2.91
  -1  -7  -7    4.51    2.45
  -1  -7  -7    3.46    2.19
  -1  -7  -8    0.86    2.02
  -1  -7  -8    0.58    1.72
   1   7   8    2.60    1.74
  -1  -7  -9   54.65    8.57
  -1  -7  -9   53.85    7.93
   1   7   9   42.50    6.91
  -1  -7 -10   36.95    6.77
   1   7  10   38.30    6.83
  -1  -7 -10   33.70    7.11
   1   7  11   92.55   10.81
  -1  -7 -11   83.43   10.57
  -1  -7 -11   67.68   10.15
  -1  -7 -12   61.70   10.19
   1   7  12   48.04    8.27
  -1  -7 -12   62.48    9.40
  -1  -8  15   54.79    9.65
   1   8 -15   44.77    7.20
  -1  -8  15   44.14    8.24
   1   8 -15   48.48    7.14
  -1  -8  15   50.93    8.30
  -1  -8  14   46.87    7.85
   1   8 -14   44.78    6.84
  -1  -8  14   44.43    8.46
   1   8 -14   49.45    7.34
  -1  -8  14   57.70    8.93
  -1  -8  13  111.05   11.99
  -1  -8  13  121.97   12.11
  -1  -8  13  119.19   12.95
   1   8 -13  120.00   10.84
   1   8 -13  113.84   10.46
  -1  -8  12   49.12    7.71
  -1  -8  12   56.07    8.55
  -1  -8  12   53.21    7.91
   1   8 -12   54.86    7.12
   1   8 -12   57.58    7.44
   1   8 -11  199.88   13.41
  -1  -8  11  183.94   14.14
  -1  -8  11  200.00   15.14
   1   8 -11  215.16   13.39
  -1  -8  11  200.28   14.56
   1   8 -10    4.14    1.93
  -1  -8  10    3.01    2.47
   1   8 -10    5.08    2.09
  -1  -8  10    6.96    2.77
  -1  -8  10    2.10    1.95
  -1  -8  10    4.83    2.61
   1   8  -9  125.44   10.33
  -1  -8   9  111.54    9.77
  -1  -8   9  121.10   10.64
   1   8  -9  121.43    9.37
  -1  -8   9  106.45   10.02
  -1  -8   9  103.01    9.72
   1   8  -8  184.69   11.18
  -1  -8   8  174.94   12.27
  -1  -8   8  186.63   12.44
  -1  -8   8  161.79   11.42
   1   8  -8  193.67   12.69
  -1  -8   8  168.65   12.35
   1   8  -7    0.06    1.05
  -1  -8   7    0.73    1.10
  -1  -8   7    0.05    1.39
  -1  -8   7    1.77    1.96
   1   8  -7    2.49    1.83
  -1  -8   7    0.79    1.41
  -1  -8   6  503.60   17.52
  -1  -8   6  464.82   19.71
   1   8  -6  470.06   16.88
   1   8  -6  471.93   19.39
  -1  -8   6  444.93   18.89
  -1  -8   6  499.90   18.92
  -1  -8   5   47.70    6.29
  -1  -8   5   48.82    6.33
   1   8  -5   43.33    5.84
   1   8  -5   43.19    5.09
  -1  -8   5   46.30    5.64
  -1  -8   4  338.35   16.57
   1   8  -4  342.19   16.21
  -1  -8   4  327.31   16.10
   1   8  -4  336.49   15.71
   1   8  -4  352.73   14.02
  -1  -8   4  350.31   14.57
  -1  -8   3  251.06   13.92
  -1  -8   3  269.01   12.02
   1   8  -3  265.72   12.02
   1   8  -3  265.78   14.16
   1   8  -3  242.49   12.88
  -1  -8   3  237.35   13.84
  -1  -8   3  246.27   13.33
  -1  -8   3  272.18   14.92
  -1  -8   2  114.12    9.75
  -1  -8   2  133.62    8.04
   1   8  -2  131.82    9.18
   1   8  -2  133.70   10.05
  -1  -8   2  123.40   10.02
   1   8  -2  134.00    8.52
  -1  -8   2  142.20   10.13
  -1  -8   2  131.69   10.09
  -1  -8   1  211.60   12.60
   1   8  -1  215.67   11.23
  -1  -8   1  194.76   12.10
  -1  -8   1  204.23   13.10
  -1  -8   1  192.26   12.70
   1   8  -1  199.79   10.42
   1   8  -1  209.76   12.63
  -1  -8   0   29.25    5.07
   1   8   0   18.21    3.23
   1   8   0   33.15    5.10
  -1  -8   0   33.06    5.56
   1   8   0   25.97    3.78
   1   8   0   28.56    3.68
  -1  -8   0   24.87    4.44
   1   8   0   24.32    4.66
  -1  -8   0   36.97    5.44
   1   8   1   79.31    6.52
   1   8   1  101.07    7.61
  -1  -8  -1   87.24    8.16
  -1  -8  -1   83.99    8.90
  -1  -8  -1  101.29    9.06
   1   8   1   85.53    8.07
   1   8   1   89.42    6.60
  -1  -8  -1   88.74    8.86
   1   8   1   85.10    8.54
   1   8   2   15.92    3.21
   1   8   2   13.37    3.50
   1   8   2   16.99    3.80
   1   8   2   12.72    2.94
  -1  -8  -2   14.36    3.66
  -1  -8  -2   14.99    3.52
  -1  -8  -2   10.84    3.48
  -1  -8  -2   16.71    3.92
   1   8   3   36.21    5.09
   1   8   3   30.07    4.92
  -1  -8  -3   22.62    4.65
  -1  -8  -3   26.87    4.69
   1   8   3   40.21    5.04
  -1  -8  -3   31.59    5.79
   1   8   3   21.88    4.47
  -1  -8  -3   40.29    6.30
  -1  -8  -4   85.88    9.64
   1   8   4   78.05    7.73
   1   8   4   87.37    8.22
  -1  -8  -4   77.88    8.82
   1   8   4   85.86    8.79
  -1  -8  -4   85.23    8.22
  -1  -8  -4   93.64    9.27
   1   8   5   -0.39    1.94
  -1  -8  -5    7.43    2.96
  -1  -8  -5    5.81    2.91
   1   8   5    3.69    1.97
  -1  -8  -5   12.18    4.21
  -1  -8  -6    1.30    2.06
  -1  -8  -6    2.05    1.65
   1   8   6    1.99    1.70
   1   8   6   -0.37    2.05
   1   8   7    2.11    1.45
  -1  -8  -7    1.49    2.67
  -1  -8  -7    5.30    2.55
   1   8   8   11.58    3.67
  -1  -8  -8   14.85    4.23
  -1  -8  -8    4.26    2.66
  -1  -8  -9   -1.78    2.72
   1   8   9   -0.84    1.80
  -1  -8  -9    2.90    2.16
   1   8  10    9.47    3.81
  -1  -8 -10    3.92    3.42
  -1  -8 -10    2.05    2.25
  -1  -8 -11   22.83    5.91
   1   8  11   35.14    6.96
   1   9 -15   25.33    5.52
  -1  -9  15   22.54    6.50
   1   9 -14    0.20    1.86
   1   9 -14    1.02    1.49
  -1  -9  14   -1.02    3.21
  -1  -9  14    2.73    2.91
   1   9 -13   16.18    4.13
   1   9 -13   19.61    4.75
  -1  -9  13    6.17    2.92
  -1  -9  13   12.23    4.10
  -1  -9  13   21.80    5.70
   1   9 -12   10.68    3.53
  -1  -9  12    4.76    2.92
   1   9 -12   11.14    3.50
  -1  -9  12    9.67    3.84
  -1  -9  12    1.89    2.02
   1   9 -11   36.45    6.22
  -1  -9  11   26.33    5.71
  -1  -9  11   38.69    6.83
  -1  -9  11   34.57    6.52
   1   9 -11   37.49    5.86
   1   9 -10   20.77    4.39
   1   9 -10   12.81    3.81
  -1  -9  10   12.69    3.83
  -1  -9  10   11.23    3.85
  -1  -9  10   10.03    3.45
   1   9  -9  106.90    9.19
  -1  -9   9   91.46    9.41
  -1  -9   9   84.43    9.45
   1   9  -9   84.88    9.08
  -1  -9   9   78.08    8.95
   1   9  -8    1.30    1.80
   1   9  -8    4.92    2.15
  -1  -9   8   -1.19    1.82
  -1  -9   8    1.21    1.65
  -1  -9   8    2.35    1.77
  -1  -9   7   13.90    3.66
   1   9  -7   13.07    3.62
  -1  -9   7   16.39    3.96
   1   9  -7   15.58    3.44
  -1  -9   7   12.55    3.75
  -1  -9   6    0.90    1.53
  -1  -9   6   -1.63    2.07
  -1  -9   6    0.90    1.65
   1   9  -6   -0.60    1.30
   1   9  -6    0.08    1.50
   1   9  -5   82.22    8.60
  -1  -9   5   90.62    9.23
  -1  -9   5   87.27    8.10
   1   9  -5   90.20    9.08
   1   9  -5   91.38    7.83
  -1  -9   5   84.92    9.03
  -1  -9   4   58.61    7.35
  -1  -9   4   58.19    6.19
  -1  -9   4   68.23    7.97
   1   9  -4   54.47    6.77
   1   9  -4   57.08    6.11
   1   9  -4   53.78    7.02
  -1  -9   3  102.39    9.69
  -1  -9   3  124.72   10.99
  -1  -9   3  112.85    9.80
   1   9  -3  105.94    9.65
  -1  -9   3   98.79    9.66
   1   9  -3   93.41    8.51
   1   9  -3  117.64    8.56
  -1  -9   2   90.79    9.27
  -1  -9   2   95.28    9.62
  -1  -9   2   89.86    8.95
   1   9  -2   90.83    8.07
   1   9  -2  104.47    8.06
  -1  -9   2   92.48    8.97
   1   9  -2   90.57    8.78
   1   9  -1    5.07    1.88
  -1  -9   1    8.51    3.24
   1   9  -1   10.69    3.40
  -1  -9   1    5.36    2.40
  -1  -9   1    7.63    2.78
   1   9  -1    9.40    2.66
  -1  -9   1   11.76    3.63
   1   9  -1    8.89    3.12
   1   9   0   43.55    6.12
  -1  -9   0   42.32    6.72
   1   9   0   44.91    6.70
  -1  -9   0   47.91    6.96
  -1  -9   0   34.85    5.51
  -1  -9   0   45.71    6.39
  -1  -9  -1   86.78    9.41
  -1  -9  -1   96.68   10.16
   1   9   1  101.12   10.07
  -1  -9  -1   94.49    9.10
  -1  -9  -1  109.22   10.17
   1   9   1   93.26    9.13
  -1  -9  -2   17.26    4.35
   1   9   2   21.05    4.42
   1   9   2   20.16    4.72
  -1  -9  -2   21.34    4.43
  -1  -9  -2   21.46    4.90
  -1  -9  -2   25.06    5.11
   1   9   3    8.30    2.79
  -1  -9  -3    7.45    3.33
   1   9   3   10.65    3.55
  -1  -9  -3    8.30    3.36
  -1  -9  -3    7.26    3.09
  -1  -9  -3    5.25    2.15
   1   9   3   12.58    3.58
   1   9   4  364.47   17.08
  -1  -9  -4  323.80   18.45
  -1  -9  -4  348.92   17.59
  -1  -9  -4  349.40   20.40
   1   9   4  347.96   18.84
  -1  -9  -4  367.44   20.18
   1   9   5    6.49    2.76
   1   9   5    6.42    2.71
  -1  -9  -5    9.77    3.62
  -1  -9  -5    3.05    2.31
  -1  -9  -5    7.44    3.15
  -1  -9  -6   51.70    8.52
   1   9   6   61.29    8.07
   1   9   6   58.71    7.61
  -1  -9  -6   58.33    8.39
   1   9   7   62.94    8.23
  -1  -9  -7   59.70    8.63
  -1  -9  -7   68.73   10.06
   1   9   8    0.17    1.12
  -1  -9  -8   -0.40    2.00
  -1  -9  -8    0.65    1.25
   1   9   9   33.63    6.50
  -1  -9  -9   37.09    8.12
  -1  -9  -9   28.51    6.45
   1   9  10    6.02    2.98
  -1  -9 -10   12.02    4.57
   1  10 -14  122.89   11.90
   1  10 -13  119.83   11.55
  -1 -10  13  110.80   12.80
  -1 -10  12  200.94   16.61
  -1 -10  12  184.14   15.97
   1  10 -12  185.02   13.75
   1  10 -12  197.60   15.00
   1  10 -11   34.43    6.31
   1  10 -11   28.28    5.28
  -1 -10  11   35.11    6.84
  -1 -10  11   42.92    7.68
  -1 -10  10    0.86    1.47
  -1 -10  10    2.54    2.61
   1  10 -10   -0.95    1.77
   1  10 -10    2.10    1.87
  -1 -10   9   11.39    3.89
   1  10  -9   24.23    5.30
  -1 -10   9   11.77    3.73
   1  10  -9   23.71    4.69
  -1 -10   8  146.71   12.33
   1  10  -8  129.07   12.29
   1  10  -8  140.56   10.79
   1  10  -8  146.74   12.50
  -1 -10   8  141.96   12.25
  -1 -10   8  145.16   13.04
   1  10  -7  133.17   10.30
  -1 -10   7  114.20   11.38
   1  10  -7  117.44   11.14
   1  10  -7  111.03   11.04
  -1 -10   7  123.65   11.55
  -1 -10   7  116.92   10.71
   1  10  -6  222.11   15.20
   1  10  -6  212.74   12.74
   1  10  -6  182.04   13.79
  -1 -10   6  195.67   14.45
  -1 -10   6  206.67   13.58
  -1 -10   6  189.70   14.41
  -1 -10   5  230.44   15.72
   1  10  -5  213.37   14.73
   1  10  -5  186.30   13.41
  -1 -10   5  224.09   15.36
  -1 -10   4   61.11    8.25
  -1 -10   4   68.04    8.52
   1  10  -4   64.97    7.61
   1  10  -4   68.92    8.37
  -1 -10   3   49.97    7.26
   1  10  -3   52.42    6.79
   1  10  -3   48.35    7.04
  -1 -10   3   36.87    6.53
  -1 -10   3   48.00    6.93
   1  10  -2   20.22    4.63
  -1 -10   2   12.11    3.95
  -1 -10   2   21.17    4.78
  -1 -10   2   18.63    4.53
  -1 -10   2   21.68    5.26
   1  10  -1  194.77   13.87
  -1 -10   1  199.92   14.96
   1  10  -1  185.45   14.37
  -1 -10   1  189.57   13.76
  -1 -10   1  222.32   15.99
  -1 -10   1  204.81   14.42
  -1 -10   0   77.67    9.59
  -1 -10   0   77.17    8.87
  -1 -10   0   73.43    8.85
   1  10   0   66.70    8.69
   1  10   0   76.42    8.70
  -1 -10   0   74.46    9.30
  -1 -10  -1  167.65   14.36
  -1 -10  -1  187.96   13.49
  -1 -10  -1  177.30   14.26
   1  10   1  187.38   14.54
  -1 -10  -1  187.21   14.14
   1  10   1  191.11   13.79
  -1 -10  -2  155.74   13.55
  -1 -10  -2  156.18   13.19
   1  10   2  161.83   12.56
  -1 -10  -2  147.25   12.01
   1  10   2  143.56   12.75
  -1 -10  -2  161.72   14.24
  -1 -10  -3   63.65    9.45
   1  10   3   57.24    8.24
  -1 -10  -3   58.66    7.72
  -1 -10  -3   66.43    8.85
  -1 -10  -3   63.58    8.91
   1  10   4    4.91    2.77
  -1 -10  -4    3.12    2.68
  -1 -10  -4    4.44    2.83
  -1 -10  -4    3.75    2.83
  -1 -10  -5    0.69    2.16
  -1 -10  -5   -0.38    3.02
   1  10   5   -0.78    1.35
  -1 -10  -6   90.13   10.97
   1  10   6   70.59    9.32
  -1 -10  -6   95.35   11.91
  -1 -10  -7    7.42    3.88
  -1 -10  -7    0.62    2.39
  -1 -10  -8   96.68   11.91
   1  10   8  100.49   10.91
   1  11 -11   23.49    6.08
  -1 -11  11   16.26    4.78
   1  11 -10   30.97    6.26
  -1 -11  10   26.01    5.86
   1  11 -10   26.79    6.31
  -1 -11  10   26.62    6.23
  -1 -11   9    1.40    1.51
   1  11  -9    0.18    1.49
  -1 -11   9    1.40    2.04
   1  11  -9    0.16    1.67
   1  11  -8    3.44    2.65
   1  11  -8    3.61    2.72
  -1 -11   8    1.59    1.40
  -1 -11   8    3.41    2.21
   1  11  -7    4.87    2.31
  -1 -11   7    7.74    3.35
  -1 -11   7    0.38    2.34
   1  11  -7    8.46    3.43
   1  11  -6    3.51    2.25
  -1 -11   6    2.86    2.36
   1  11  -6   -0.02    1.34
  -1 -11   6    2.66    2.45
   1  11  -5    8.57    3.18
   1  11  -5   12.21    3.61
  -1 -11   5    1.97    1.97
  -1 -11   5   10.02    3.90
   1  11  -4    0.63    1.18
  -1 -11   4    1.07    2.15
   1  11  -4    2.39    2.18
  -1 -11   4    2.94    2.28
   1  11  -3    8.66    3.28
  -1 -11   3    9.46    3.74
  -1 -11   3    8.49    3.38
   1  11  -2    4.65    2.40
  -1 -11   2    1.34    2.65
   1  11  -2    2.24    2.56
  -1 -11   2    3.70    2.03
  -1 -11   2    3.61    2.04
  -1 -11   2    5.71    3.41
   1  11  -1   16.27    4.36
   1  11  -1   15.19    4.72
  -1 -11   1   11.62    3.78
  -1 -11   1   13.86    4.16
  -1 -11   1    8.50    3.63
  -1 -11   1   15.03    4.85
  -1 -11   0    6.98    3.02
  -1 -11   0    3.75    2.49
  -1 -11   0    4.67    2.87
   1  11   0    1.10    1.23
   1  11   0    1.36    2.53
  -1 -11   0    2.49    2.34
   1  11   1   -1.24    2.66
   1  11   1    7.68    3.49
  -1 -11  -1    0.61    1.69
  -1 -11  -1    1.18    1.72
  -1 -11  -1    1.28    2.37
  -1 -11  -1    1.26    1.61
  -1 -11  -2  232.97   17.48
  -1 -11  -2  227.60   16.99
  -1 -11  -2  222.48   15.73
  -1 -11  -2  249.11   18.74
   1  11   2  235.85   17.32
  -1 -11  -3  102.80   11.85
   1  11   3   84.60   10.46
  -1 -11  -3   95.58   10.32
  -1 -11  -3   98.10   11.38
  -1 -11  -3   88.15   11.41
   1  11   4   48.33    7.93
  -1 -11  -4   58.10    9.74
  -1 -11  -4   45.51    7.89
  -1 -11  -5    7.67    4.02
   1  12  -8   43.10    7.66
   1  12  -7   76.71    9.99
  -1 -12   7   82.05   10.82
   1  12  -7   91.27   10.87
   1  12  -6   14.67    4.23
  -1 -12   6   14.93    4.90
  -1 -12   6   24.66    6.03
   1  12  -5    7.74    3.68
  -1 -12   5    2.06    2.04
  -1 -12   5    3.16    2.99
   1  12  -4   72.29    9.35
  -1 -12   4   63.22    9.26
  -1 -12   4   73.54    9.94
   1  12  -3   46.30    8.16
  -1 -12   3   35.50    6.90
  -1 -12   3   43.95    7.69
   1  12  -3   49.12    7.91
   1  12  -2  149.79   13.50
  -1 -12   2  161.29   14.47
   1  12  -2  140.53   13.99
  -1 -12   2  168.16   14.68
  -1 -12   2  143.69   14.00
   1  12  -1   33.29    6.43
  -1 -12   1   35.61    7.04
  -1 -12   1   32.73    6.47
   1  12  -1   39.64    7.48
  -1 -12   1   56.98    9.29
  -1 -12   1   36.41    7.00
  -1 -12   0  140.32   14.66
  -1 -12   0  151.92   13.76
  -1 -12   0  129.09   13.10
  -1 -12   0  159.60   15.03
   1  12   0  129.55   13.48
  -1 -12  -1    2.59    2.34
  -1 -12  -1    2.94    2.64
  -1 -12  -1    4.38    3.29
  -1 -12  -2    4.46    2.52
  -2  13  -4    4.46    2.98
   2 -13   5   19.64    5.25
  -2  13  -5   16.33    4.63
   2 -13   6   25.43    6.19
  -2  12   4   22.12    5.98
  -2  12   3    5.45    2.75
  -2  12   3    4.86    2.62
   2 -12  -3    4.70    3.17
   2 -12  -3    1.94    1.95
  -2  12   2    4.79    2.58
   2 -12  -2    0.37    2.29
   2 -12  -2    3.50    2.63
  -2  12   2    5.20    2.95
   2 -12  -1   56.41    8.92
   2 -12  -1   58.92    9.29
  -2  12   1   42.42    7.95
  -2  12   1   48.29    7.94
  -2  12   1   40.65    6.90
   2 -12   0    8.83    3.23
  -2  12   0   12.52    4.51
   2 -12   0    8.04    3.42
  -2  12   0    7.11    3.34
  -2  12   0   13.27    3.96
  -2  12  -1   36.29    6.53
  -2  12  -1   55.53    8.84
  -2  12  -1   30.93    6.31
   2 -12   1   59.90    8.85
  -2  12  -2   61.95    8.84
  -2  12  -2   61.98    9.55
   2 -12   2   49.34    7.43
  -2  12  -2   55.31    8.02
   2 -12   2   73.21    9.71
  -2  12  -3    5.66    2.81
   2 -12   3    1.30    1.37
   2 -12   3   -0.23    1.63
  -2  12  -3    2.76    2.48
  -2  12  -4    8.18    3.30
   2 -12   4   10.24    3.65
  -2  12  -4   14.59    4.80
  -2  12  -5   13.88    4.02
   2 -12   5    4.15    2.58
  -2  12  -5    8.55    3.54
   2 -12   6    2.60    2.21
  -2  12  -6   -1.17    2.05
  -2  12  -6   -0.49    2.26
   2 -12   6    0.69    1.24
   2 -12   7    4.74    2.59
  -2  12  -7   -0.67    1.83
  -2  12  -7   -0.95    1.87
   2 -12   7   -2.44    2.84
  -2  12  -8   41.87    7.73
   2 -12   8   41.82    7.76
   2 -12   8   38.91    7.13
  -2  12  -8   45.72    7.59
  -2  12  -9    6.83    3.36
   2 -12   9    6.36    3.29
   2 -12   9   -0.34    2.35
   2 -11  -6   -0.65    2.12
   2 -11  -6   -5.15    3.29
  -2  11   5   -0.77    1.05
  -2  11   5    1.58    2.33
   2 -11  -5    1.08    2.53
   2 -11  -5    0.74    2.49
   2 -11  -4    6.95    3.51
  -2  11   4    8.17    3.52
  -2  11   4    7.50    2.87
   2 -11  -4   10.13    4.18
  -2  11   3   11.13    3.39
   2 -11  -3   24.81    5.93
  -2  11   3   29.34    5.76
   2 -11  -3   29.69    6.71
  -2  11   2   14.90    4.45
  -2  11   2   10.66    3.55
   2 -11  -2   20.32    5.05
  -2  11   2    5.99    2.61
   2 -11  -2   16.73    5.16
   2 -11  -1    8.48    3.63
  -2  11   1    6.77    3.45
  -2  11   1   12.24    4.00
   2 -11  -1    6.62    3.41
  -2  11   1    9.38    3.42
  -2  11   0  178.43   14.22
   2 -11   0  217.64   16.09
   2 -11   0  216.43   16.47
   2 -11   0  194.39   13.29
  -2  11   0  179.06   15.20
  -2  11   0  182.50   14.03
  -2  11  -1   68.96    9.46
  -2  11  -1   84.75    9.66
  -2  11  -1   61.31    8.54
   2 -11   1   94.11    9.75
   2 -11   1   97.02    9.60
   2 -11   1   92.31   10.31
  -2  11  -2    4.14    2.56
  -2  11  -2    0.49    1.54
   2 -11   2    1.02    1.72
   2 -11   2    1.02    1.82
   2 -11   2    4.76    2.89
  -2  11  -2    5.52    2.82
  -2  11  -3    6.50    3.17
  -2  11  -3   11.11    3.81
   2 -11   3    4.94    2.11
   2 -11   3    9.58    3.50
   2 -11   3   14.87    4.22
   2 -11   4   97.08    9.59
   2 -11   4   77.07    9.14
  -2  11  -4  101.00   11.24
  -2  11  -4   91.66    9.85
   2 -11   5   -0.33    1.49
  -2  11  -5   -2.97    2.23
   2 -11   5    0.39    1.36
  -2  11  -5   -1.27    2.09
   2 -11   6  126.11   11.67
  -2  11  -6  128.71   11.79
   2 -11   6  116.42   11.65
  -2  11  -6  130.92   13.02
   2 -11   7  154.46   13.31
   2 -11   7  140.96   12.95
  -2  11  -7  162.72   14.54
  -2  11  -7  179.06   13.95
   2 -11   8   79.63    9.81
  -2  11  -8   88.10   10.63
   2 -11   8   81.67    9.99
  -2  11  -8   89.10   10.10
  -2  11  -9   19.62    4.94
  -2  11  -9   29.47    6.35
   2 -11   9   16.49    4.56
   2 -11   9   25.58    5.97
   2 -11  10   11.37    4.07
  -2  11 -10   16.79    4.67
   2 -11  10   16.47    4.90
  -2  11 -10   19.50    5.29
  -2  11 -11   27.75    5.98
   2 -11  11   23.40    5.90
  -2  11 -11   26.46    5.94
   2 -11  11   18.97    5.29
  -2  10   9   16.16    4.36
   2 -10  -9   14.10    5.29
  -2  10   8   67.55    8.92
   2 -10  -8   55.78    9.09
  -2  10   8   71.77    8.53
   2 -10  -8   65.66   10.07
  -2  10   7   19.16    4.72
   2 -10  -7   27.88    6.21
   2 -10  -7   15.40    4.89
  -2  10   6   -0.68    1.29
  -2  10   6    4.23    2.54
   2 -10  -6    0.24    1.68
   2 -10  -6    2.07    1.82
   2 -10  -5   98.70   11.08
  -2  10   5   82.06    9.39
  -2  10   5   91.23    9.69
   2 -10  -5   90.52   11.01
   2 -10  -4   38.68    6.97
  -2  10   4   38.44    6.42
  -2  10   4   37.59    6.43
   2 -10  -4   44.63    7.44
  -2  10   3  328.51   18.27
   2 -10  -3  331.15   19.28
  -2  10   3  326.51   18.18
   2 -10  -3  328.01   19.96
   2 -10  -2  131.03    9.96
   2 -10  -2  112.92   11.10
  -2  10   2   99.96   10.17
   2 -10  -2   95.30   10.48
  -2  10   2  100.13   10.01
   2 -10  -1  169.60   11.48
   2 -10  -1  159.04   13.01
   2 -10  -1  181.28   14.30
  -2  10   1  168.05   12.83
  -2  10   1  151.41   12.35
   2 -10   0    5.55    2.13
  -2  10   0    1.59    1.18
   2 -10   0    4.94    2.45
  -2  10   0    4.67    2.39
  -2  10   0    8.56    3.56
   2 -10   0    4.23    2.95
   2 -10   0    0.46    1.64
   2 -10   1    6.73    3.16
  -2  10  -1    3.52    2.48
   2 -10   1    7.16    2.72
  -2  10  -1    7.78    3.25
  -2  10  -1    7.65    3.16
   2 -10   1    5.35    2.36
   2 -10   1   11.98    3.60
  -2  10  -2   46.65    7.40
  -2  10  -2   43.19    6.47
   2 -10   2   34.69    5.30
   2 -10   2   35.02    5.59
   2 -10   2   38.90    6.25
   2 -10   2   37.70    5.70
  -2  10  -3    3.54    2.62
   2 -10   3    5.18    2.14
  -2  10  -3   -1.06    2.02
   2 -10   3    5.36    2.36
   2 -10   3    3.95    2.32
   2 -10   3    1.21    1.38
   2 -10   4   55.74    7.13
   2 -10   4   68.62    7.27
   2 -10   4   52.17    7.00
  -2  10  -4   63.84    7.76
  -2  10  -4   52.65    7.90
   2 -10   5    8.57    2.98
  -2  10  -5    6.34    2.51
   2 -10   5    7.47    2.89
  -2  10  -5   12.05    3.61
   2 -10   6   78.28    8.99
   2 -10   6   78.03    8.92
  -2  10  -6   93.21    9.49
  -2  10  -6   84.90    9.82
   2 -10   7   11.95    3.64
  -2  10  -7    6.28    2.72
   2 -10   7   14.28    4.18
  -2  10  -7   11.12    3.73
   2 -10   8   -0.52    1.31
   2 -10   8    1.91    2.00
  -2  10  -8    3.58    2.51
  -2  10  -8    2.02    1.77
   2 -10   9   -0.32    1.89
  -2  10  -9    4.15    2.48
   2 -10   9    5.14    2.56
  -2  10  -9    5.63    2.79
  -2  10 -10    9.51    3.43
  -2  10 -10   11.00    3.74
   2 -10  10    1.89    1.78
   2 -10  10    2.87    2.66
   2 -10  11   69.98    9.81
  -2  10 -11   67.79    8.94
   2 -10  11   63.28    9.09
  -2  10 -11   71.21    9.18
  -2  10 -12  260.47   17.64
  -2  10 -12  256.45   17.31
   2 -10  12  277.88   19.30
   2 -10  12  275.04   19.73
  -2  10 -13  173.50   14.36
  -2  10 -13  144.44   13.36
  -2   9  11    7.44    3.31
   2  -9 -10    3.86    2.81
  -2   9  10    4.02    2.62
   2  -9 -10    0.52    2.01
   2  -9  -9   32.88    7.13
  -2   9   9   24.78    5.28
   2  -9  -9   14.82    4.74
  -2   9   8   26.96    5.20
   2  -9  -8   19.51    5.37
   2  -9  -8   25.32    5.77
   2  -9  -7    0.26    2.18
   2  -9  -7   -0.32    1.85
  -2   9   7    1.26    1.58
   2  -9  -6   46.32    7.80
  -2   9   6   35.00    5.83
  -2   9   6   35.20    5.27
   2  -9  -6   29.14    5.91
  -2   9   5    8.04    3.04
  -2   9   5    3.85    2.31
   2  -9  -5   10.62    3.44
  -2   9   5    9.48    2.82
   2  -9  -5   12.46    4.09
  -2   9   4   -0.75    1.65
   2  -9  -4    0.72    1.76
  -2   9   4   -1.08    1.88
   2  -9  -4   -0.17    1.46
  -2   9   4   -0.76    0.90
   2  -9  -3  158.57   12.87
   2  -9  -3  166.27   12.87
  -2   9   3  153.17   11.74
  -2   9   3  126.60   10.65
   2  -9  -3  173.24   10.57
   2  -9  -2   36.68    4.93
  -2   9   2   28.40    5.09
   2  -9  -2   31.24    5.74
  -2   9   2   36.20    5.83
   2  -9  -2   38.38    6.25
  -2   9   1   33.85    5.56
   2  -9  -1   40.60    6.44
   2  -9  -1   51.24    5.91
   2  -9  -1   37.83    5.95
  -2   9   1   41.22    6.00
  -2   9   0   26.47    4.87
   2  -9   0   19.62    3.54
   2  -9   0   24.30    4.55
   2  -9   0   14.12    4.11
   2  -9   0   23.56    4.01
  -2   9   0   15.43    3.88
   2  -9   0   26.29    4.96
  -2   9  -1   12.99    4.07
  -2   9  -1   16.47    3.92
   2  -9   1   10.26    3.16
   2  -9   1   21.74    4.50
   2  -9   1   14.50    3.15
   2  -9   1   13.93    3.27
   2  -9   1   18.64    3.85
  -2   9  -2   25.97    5.22
   2  -9   2   22.79    4.20
   2  -9   2   20.31    3.83
   2  -9   2   19.89    3.80
  -2   9  -2   20.86    4.29
   2  -9   2   20.74    4.32
  -2   9  -3    5.72    2.33
  -2   9  -3    3.48    1.97
   2  -9   3   -1.05    2.01
   2  -9   3    3.32    1.91
   2  -9   3    1.21    1.33
   2  -9   3    4.08    1.99
  -2   9  -4   58.70    7.69
   2  -9   4   63.78    7.21
   2  -9   4   68.64    6.66
   2  -9   4   61.41    7.01
  -2   9  -4   55.74    6.94
   2  -9   5  169.24   10.27
  -2   9  -5  170.19   13.07
  -2   9  -5  166.14   11.77
   2  -9   5  160.87   11.50
   2  -9   5  154.21   11.34
  -2   9  -6  143.42   11.08
   2  -9   6  137.21   10.94
  -2   9  -6  134.99   11.56
   2  -9   6  143.13   11.29
  -2   9  -7  176.46   13.17
   2  -9   7  164.15   12.52
   2  -9   7  171.73   12.47
  -2   9  -7  166.28   12.05
  -2   9  -8  107.13   10.34
  -2   9  -8  108.10    9.99
   2  -9   8  100.16    9.76
   2  -9   8   92.11    9.31
   2  -9   8  102.57   10.22
  -2   9  -9    3.67    2.30
  -2   9  -9    2.93    1.96
   2  -9   9    9.80    3.64
   2  -9   9    1.53    2.06
   2  -9   9    4.03    1.84
   2  -9  10   26.97    5.55
  -2   9 -10   30.12    5.61
   2  -9  10   32.48    6.23
   2  -9  10   30.80    5.85
  -2   9 -10   23.47    5.07
  -2   9 -11  123.73   11.29
   2  -9  11  131.53   12.85
   2  -9  11  125.03   12.02
   2  -9  11  123.48   12.55
  -2   9 -11  143.86   12.34
  -2   9 -12  120.46   11.68
   2  -9  12  111.31   12.18
   2  -9  12  104.55   12.30
  -2   9 -12  124.66   11.48
   2  -9  12  100.09   11.07
   2  -9  13  235.76   18.30
   2  -9  13  216.04   16.78
  -2   9 -13  225.08   16.18
   2  -9  13  211.22   17.98
  -2   9 -13  214.24   15.06
   2  -9  14   47.93    9.03
  -2   9 -14   56.28    7.96
  -2   9 -14   58.73    8.65
   2  -9  14   58.20    9.41
   2  -9  14   63.17    9.40
  -2   9 -15    7.41    3.19
   2  -8 -12   22.73    6.36
  -2   8  12   21.61    5.13
   2  -8 -12   26.40    6.61
   2  -8 -11   24.19    6.00
   2  -8 -11   28.82    6.73
  -2   8  11   27.24    5.79
   2  -8 -10  106.29   11.76
   2  -8 -10   90.65   11.24
  -2   8  10   98.88   10.30
   2  -8  -9    3.03    2.31
   2  -8  -9   -1.48    2.40
  -2   8   9   -0.80    1.43
   2  -8  -8    3.71    2.61
  -2   8   8    0.66    1.46
   2  -8  -8    1.66    2.49
  -2   8   7  205.69   12.84
   2  -8  -7  205.11   15.26
   2  -8  -7  209.00   14.76
  -2   8   6  138.40   10.72
  -2   8   6  140.68   10.21
   2  -8  -6  130.40   11.43
   2  -8  -6  149.58   12.68
  -2   8   5  323.89   15.81
   2  -8  -5  306.37   17.48
  -2   8   5  315.80   14.41
   2  -8  -5  311.32   17.09
   2  -8  -4    1.22    1.19
  -2   8   4    1.45    1.22
   2  -8  -4   -0.32    1.50
  -2   8   4    0.34    1.14
   2  -8  -4    0.54    2.06
  -2   8   4   -0.45    1.55
  -2   8   3  456.03   15.29
  -2   8   3  411.14   17.64
   2  -8  -3  424.44   19.43
   2  -8  -3  463.54   19.77
   2  -8  -3  468.09   16.00
  -2   8   3  399.98   17.87
  -2   8   2    4.03    2.26
  -2   8   2    2.17    1.08
  -2   8   2    2.90    2.01
   2  -8  -2    1.06    1.17
   2  -8  -2    1.57    2.16
   2  -8  -2    2.53    1.40
   2  -8  -1   25.05    4.77
  -2   8   1   22.91    2.98
   2  -8  -1   22.22    4.15
  -2   8   1   24.34    4.53
   2  -8  -1   20.33    4.02
  -2   8   1   25.63    4.47
   2  -8  -1   15.15    3.01
   2  -8  -1   26.81    3.93
   2  -8   0  515.03   17.32
   2  -8   0  553.92   18.92
  -2   8   0  539.37   20.03
   2  -8   0  492.54   16.51
   2  -8   0  515.50   19.94
  -2   8   0  509.63   19.32
   2  -8   0  508.13   19.95
   2  -8   1  157.59    9.97
  -2   8  -1  173.31   11.33
   2  -8   1  146.35    9.48
   2  -8   1  146.03   10.80
   2  -8   1  153.42   10.65
   2  -8   1  163.77    9.82
   2  -8   2   96.13    7.59
   2  -8   2  110.74    8.42
  -2   8  -2  104.13    9.68
   2  -8   2  111.88    8.43
   2  -8   2  107.80    8.83
  -2   8  -2  100.18    8.60
   2  -8   3  170.01    9.85
   2  -8   3  162.90   10.76
  -2   8  -3  166.15   12.23
   2  -8   3  170.96   10.67
   2  -8   3  174.25   10.68
  -2   8  -3  181.53   11.52
   2  -8   4  339.93   13.66
  -2   8  -4  339.98   17.33
   2  -8   4  350.11   13.45
   2  -8   4  346.12   15.61
  -2   8  -4  355.08   16.05
   2  -8   4  315.64   14.61
  -2   8  -5    0.19    1.49
  -2   8  -5    2.02    2.24
   2  -8   5    0.40    0.93
   2  -8   5    1.65    1.40
   2  -8   5   -0.04    0.94
   2  -8   5    0.13    1.29
  -2   8  -6   52.25    6.34
   2  -8   6   49.66    6.12
  -2   8  -6   50.01    6.74
   2  -8   6   46.63    6.17
   2  -8   6   44.83    5.68
  -2   8  -7  118.78   10.13
   2  -8   7   96.04    9.05
  -2   8  -7  115.75    9.67
   2  -8   7   90.38    8.68
   2  -8   7  106.20    9.07
   2  -8   8    6.55    2.56
   2  -8   8    3.80    2.35
  -2   8  -8    7.76    2.94
  -2   8  -8    4.22    2.33
   2  -8   8    5.03    2.39
  -2   8  -9  275.58   15.50
  -2   8  -9  327.08   16.72
   2  -8   9  313.72   17.75
   2  -8   9  307.18   16.48
   2  -8   9  303.88   17.24
   2  -8  10   17.81    4.72
  -2   8 -10   24.76    4.93
  -2   8 -10   20.00    4.52
   2  -8  10   16.10    4.55
   2  -8  10   13.31    3.86
   2  -8  11  534.96   24.62
  -2   8 -11  518.23   22.25
   2  -8  11  508.43   22.75
   2  -8  11  518.47   25.31
  -2   8 -11  517.90   21.70
  -2   8 -12   36.64    6.19
   2  -8  12   39.27    6.60
   2  -8  12   30.88    6.20
   2  -8  12   32.38    7.16
  -2   8 -12   32.35    5.58
   2  -8  13    4.16    3.00
  -2   8 -13    2.77    2.05
  -2   8 -13    3.49    2.26
   2  -8  13    5.29    3.69
   2  -8  13   10.16    3.75
   2  -8  14    2.46    1.92
   2  -8  14    2.78    2.15
  -2   8 -14   -0.97    2.28
   2  -8  14   -1.05    1.22
  -2   8 -14    2.77    2.18
  -2   8 -15   15.02    4.07
   2  -8  15   15.11    5.35
   2  -8  15   17.61    5.68
   2  -8  15   15.39    4.87
  -2   8 -15   18.33    4.93
  -2   7  13  172.67   14.69
   2  -7 -13  155.06   15.36
   2  -7 -13  179.62   16.24
  -2   7  12    0.60    1.67
   2  -7 -12    4.46    2.94
  -2   7  11   32.65    6.08
   2  -7 -11   29.47    6.49
   2  -7 -11   35.36    6.86
  -2   7  10   62.39    7.92
   2  -7 -10   60.58    8.90
   2  -7 -10   86.56   10.07
  -2   7   9    3.16    1.89
   2  -7  -9    6.32    3.51
   2  -7  -9    5.94    2.76
  -2   7   8   63.05    7.18
   2  -7  -8   69.30    8.70
   2  -7  -8   84.95    9.26
  -2   7   7    5.95    2.29
   2  -7  -7    0.87    1.45
   2  -7  -7    5.16    2.46
  -2   7   6  276.15   13.48
   2  -7  -6  241.98   15.00
   2  -7  -6  253.66   14.68
   2  -7  -5   18.32    4.10
   2  -7  -5    9.95    3.30
  -2   7   5   18.68    3.48
  -2   7   5    9.98    2.83
   2  -7  -4   -0.37    1.05
  -2   7   4    0.94    0.90
  -2   7   4    0.71    1.29
   2  -7  -4   -0.57    1.18
   2  -7  -4   -0.29    1.40
   2  -7  -4    2.58    1.94
  -2   7   3   96.74    6.70
   2  -7  -3   95.89    6.58
   2  -7  -3   80.12    5.81
  -2   7   3   78.00    7.13
   2  -7  -3   94.77    8.30
   2  -7  -3   99.21    8.72
  -2   7   2   78.97    5.60
  -2   7   2   82.44    7.21
   2  -7  -2   67.49    5.58
   2  -7  -2   75.08    5.75
   2  -7  -2   77.11    7.46
   2  -7  -2   85.47    7.75
  -2   7   2   80.86    7.47
  -2   7   1  117.63    6.23
  -2   7   1   89.21    7.62
   2  -7  -1  114.56    7.23
   2  -7  -1  116.01    8.27
   2  -7  -1  108.18    8.64
   2  -7  -1  112.32    8.71
   2  -7  -1  115.29    7.35
  -2   7   1  107.14    8.49
   2  -7   0   18.10    3.64
   2  -7   0   15.40    2.83
  -2   7   0   20.87    2.43
   2  -7   0   17.92    3.22
   2  -7   0   13.23    3.42
   2  -7   0   13.34    2.69
  -2   7   0   15.58    3.37
  -2   7  -1 2469.98   22.67
  -2   7  -1 2359.83   39.10
   2  -7   1 2395.14   35.03
   2  -7   1 2332.91   34.74
   2  -7   1 2324.29   34.23
   2  -7   1 2351.90   38.39
   2  -7   1 2424.26   39.90
  -2   7  -2  422.74   10.95
   2  -7   2  393.98   13.95
   2  -7   2  377.60   14.45
  -2   7  -2  401.22   16.06
   2  -7   2  391.81   14.39
   2  -7   2  414.81   15.89
   2  -7   3  596.17   16.68
   2  -7   3  516.45   17.52
  -2   7  -3  556.45   18.78
  -2   7  -3  539.81   20.26
   2  -7   3  543.28   17.23
   2  -7   3  564.88   18.46
  -2   7  -4   12.00    3.03
   2  -7   4   17.31    2.88
   2  -7   4   15.79    3.32
  -2   7  -4   15.64    3.37
   2  -7   4   13.96    2.93
   2  -7   4   18.22    3.15
  -2   7  -5  340.66   14.91
  -2   7  -5  352.50   16.31
   2  -7   5  297.70   13.26
   2  -7   5  347.51   12.17
   2  -7   5  343.70   15.16
  -2   7  -6   29.76    4.98
   2  -7   6   22.25    4.15
   2  -7   6   29.85    4.73
  -2   7  -6   30.67    4.67
   2  -7   6   31.93    4.56
   2  -7   6   36.80    3.91
  -2   7  -7  116.53    9.35
   2  -7   7  108.14    9.22
   2  -7   7   98.31    8.14
  -2   7  -7  119.72    9.37
   2  -7   7   99.63    8.80
  -2   7  -8   18.44    3.97
   2  -7   8   13.65    3.79
   2  -7   8   17.45    4.03
   2  -7   8   20.23    4.01
  -2   7  -8   13.83    3.25
  -2   7  -9   67.46    7.27
  -2   7  -9   72.29    7.57
   2  -7   9   68.22    8.23
   2  -7   9   67.30    7.90
   2  -7   9   68.85    7.36
   2  -7  10   69.46    8.77
  -2   7 -10   79.74    8.11
   2  -7  10   86.05    8.56
   2  -7  10   74.09    8.60
  -2   7 -10   85.01    8.22
   2  -7  11   15.95    4.29
  -2   7 -11    9.00    2.95
  -2   7 -11   14.83    3.54
   2  -7  11    8.43    3.26
   2  -7  11   11.67    3.35
   2  -7  12  165.54   13.72
  -2   7 -12  149.93   11.03
  -2   7 -12  141.66   11.51
   2  -7  12  159.38   12.58
   2  -7  12  160.78   14.59
  -2   7 -13    0.46    1.32
   2  -7  13    5.49    3.50
   2  -7  13    7.16    2.87
  -2   7 -13    2.18    1.57
   2  -7  13    3.40    2.17
  -2   7 -14   10.10    3.07
   2  -7  14    5.40    2.58
  -2   7 -14   11.18    3.69
   2  -7  14    7.15    3.47
   2  -7  14    5.46    2.88
  -2   7 -15   10.47    3.25
  -2   7 -15    6.43    3.09
   2  -7  15   12.30    4.57
   2  -7  15    2.42    2.23
   2  -7  15   10.75    3.98
   2  -7  16   45.27    8.48
   2  -7  16   46.54    9.51
  -2   6  14   25.58    5.86
   2  -6 -14   29.39    6.60
   2  -6 -14   32.18    7.10
  -2   6  13   62.92    8.55
   2  -6 -13   58.69    9.16
   2  -6 -13   44.98    7.78
   2  -6 -12   88.63   10.43
   2  -6 -12   76.65    9.96
  -2   6  12   98.15   10.24
  -2   6  11   25.73    5.12
   2  -6 -11   34.11    6.51
   2  -6 -11   27.44    5.74
  -2   6  10    6.62    2.69
   2  -6 -10    3.55    2.28
   2  -6 -10    4.03    2.47
  -2   6   9    1.99    1.89
   2  -6  -9    0.02    1.93
   2  -6  -9    1.28    1.78
   2  -6  -8    0.70    1.57
  -2   6   8    1.25    1.11
   2  -6  -8    5.12    2.77
   2  -6  -7    1.39    1.78
   2  -6  -7   -1.36    1.82
  -2   6   7    2.84    1.72
   2  -6  -6   99.49    6.11
   2  -6  -6   89.84    8.14
   2  -6  -6   97.42    8.84
  -2   6   6   94.75    7.57
  -2   6   5  263.33   12.23
  -2   6   5  267.59   11.93
   2  -6  -5  258.57    9.71
   2  -6  -5  256.55   13.35
   2  -6  -5  259.81   13.88
   2  -6  -4  105.86    6.24
   2  -6  -4  100.89    6.14
   2  -6  -4  103.08    8.25
  -2   6   4  107.09    7.06
  -2   6   4  111.17    7.90
   2  -6  -4   95.49    8.11
  -2   6   3  121.69    7.06
  -2   6   3  112.48    4.15
  -2   6   3  116.09    7.90
   2  -6  -3  124.36    6.82
   2  -6  -3  107.30    8.32
   2  -6  -3  129.23    8.95
   2  -6  -3  116.74    6.63
  -2   6   2   74.58    6.30
  -2   6   2   81.77    5.37
   2  -6  -2   67.35    6.50
   2  -6  -2   81.84    5.52
  -2   6   2   90.53    3.91
   2  -6  -2   85.46    7.10
   2  -6  -2   81.02    5.60
  -2   6   1   40.29    3.48
   2  -6  -1   44.75    4.22
  -2   6   1   40.61    4.68
   2  -6  -1   49.71    4.92
  -2   6   1   45.60    2.19
  -2   6   1   45.75    5.25
   2  -6  -1   41.35    4.90
  -2   6   1   44.97    1.89
   2  -6  -1   40.24    3.97
   2  -6   0  762.50   17.33
   2  -6   0  743.96   17.78
   2  -6   0  809.63   19.10
  -2   6   0  771.88   13.46
  -2   6   0  773.17   11.35
   2  -6   0  809.46   20.98
   2  -6   0  770.22   20.60
  -2   6   0  774.52   21.02
  -2   6  -1    7.48    1.35
  -2   6  -1    9.90    2.68
   2  -6   1    4.65    1.55
  -2   6  -1    7.61    1.21
   2  -6   1    4.49    1.67
   2  -6   1    6.31    1.91
   2  -6   1    8.71    2.45
   2  -6   1    5.95    2.26
   2  -6   2 3145.75   39.18
  -2   6  -2 3249.89   42.30
  -2   6  -2 3149.92   19.62
   2  -6   2 3240.02   33.34
  -2   6  -2 3210.42   30.55
   2  -6   2 3249.36   35.57
   2  -6   2 3204.13   40.25
   2  -6   2 3093.06   36.67
  -2   6  -3   -1.68    1.24
  -2   6  -3   -0.89    1.51
   2  -6   3    1.15    1.02
   2  -6   3   -1.08    1.39
   2  -6   3    1.77    1.11
   2  -6   3    1.89    1.49
   2  -6   3   -0.27    1.01
  -2   6  -4  102.84    8.20
   2  -6   4   89.21    7.11
   2  -6   4   96.36    6.82
  -2   6  -4   95.59    7.41
   2  -6   4   98.74    5.88
   2  -6   5  145.88    9.23
   2  -6   5  141.39    9.28
   2  -6   5  142.54    8.45
  -2   6  -5  148.38    9.34
  -2   6  -5  152.39    9.94
   2  -6   5  148.67    7.06
   2  -6   6    3.34    2.09
   2  -6   6    1.03    0.91
  -2   6  -6   -0.45    1.24
  -2   6  -6    0.95    1.16
   2  -6   6    2.49    1.61
   2  -6   6    2.44    1.50
   2  -6   7   85.95    7.79
   2  -6   7   89.14    7.22
   2  -6   7   80.70    7.79
  -2   6  -7   80.80    7.23
  -2   6  -7   89.74    7.54
  -2   6  -8   46.61    5.56
   2  -6   8   37.75    5.44
   2  -6   8   33.50    5.44
   2  -6   8   43.91    5.32
  -2   6  -8   46.20    5.60
   2  -6   9  549.14   22.54
  -2   6  -9  534.19   19.40
  -2   6  -9  539.97   18.86
   2  -6   9  558.86   19.38
   2  -6   9  544.10   21.15
  -2   6 -10   61.65    6.92
   2  -6  10   54.90    7.03
  -2   6 -10   54.07    6.08
   2  -6  10   50.30    6.15
   2  -6  10   56.92    7.72
   2  -6  11   34.34    5.77
  -2   6 -11   36.48    4.97
   2  -6  11   35.11    5.45
   2  -6  11   32.78    6.32
  -2   6 -11   41.99    5.93
   2  -6  12  140.59   11.20
   2  -6  12  151.45   12.68
   2  -6  12  134.46   13.07
  -2   6 -12  149.10   11.47
  -2   6 -12  130.09    9.60
  -2   6 -13    4.12    1.97
   2  -6  13    3.59    2.28
   2  -6  13    6.77    3.74
   2  -6  13   10.81    3.40
  -2   6 -13    5.07    2.35
  -2   6 -14   -1.54    1.50
  -2   6 -14    0.47    1.67
   2  -6  14   -0.33    1.52
   2  -6  14    4.13    2.35
   2  -6  14    0.88    1.89
  -2   6 -15   47.56    7.30
   2  -6  15   45.87    7.87
   2  -6  15   48.66    7.43
   2  -6  15   48.24    9.09
   2  -6  16  118.31   12.89
  -2   6 -16  111.24   11.56
   2  -6  16  125.82   15.18
   2  -6  16  121.09   12.04
   2  -5 -15   25.43    6.14
  -2   5  15   30.04    6.18
   2  -5 -15   26.74    6.22
  -2   5  14  106.23   11.17
   2  -5 -14   74.29   10.21
   2  -5 -14   93.53   10.97
   2  -5 -13    2.51    2.86
   2  -5 -13    2.18    2.51
  -2   5  13   -0.29    2.22
  -2   5  12    8.48    2.94
   2  -5 -12    8.45    3.47
   2  -5 -12   10.21    3.21
  -2   5  11   73.74    8.18
   2  -5 -11   60.93    8.11
   2  -5 -11   71.74    8.51
  -2   5  10   81.23    8.18
   2  -5 -10   77.85    8.73
   2  -5 -10   77.04    8.39
  -2   5   9   81.38    7.81
   2  -5  -9   64.51    7.63
   2  -5  -9   71.01    7.61
  -2   5   8  869.90   23.99
   2  -5  -8  896.17   18.93
   2  -5  -8  845.44   26.06
   2  -5  -8  841.58   25.32
  -2   5   7  162.68    9.93
   2  -5  -7  151.92   10.31
   2  -5  -7  144.89   10.33
   2  -5  -7  168.60    7.94
  -2   5   6  196.36    7.22
   2  -5  -6  182.74   11.11
   2  -5  -6  198.39   11.29
  -2   5   6  206.46   10.59
   2  -5  -6  200.56    8.44
  -2   5   5   92.88    6.67
  -2   5   5   83.92    6.35
  -2   5   5   93.45    4.39
   2  -5  -5   91.30    5.57
   2  -5  -5   85.09    7.35
   2  -5  -5   89.65    7.25
  -2   5   4    0.13    0.78
  -2   5   4    0.60    1.01
  -2   5   4    0.78    0.49
   2  -5  -4   -1.24    1.30
   2  -5  -4    0.17    0.92
   2  -5  -4    0.17    0.65
  -2   5   3   69.46    4.97
   2  -5  -3   79.28    5.11
   2  -5  -3   77.41    6.38
   2  -5  -3   76.13    4.66
   2  -5  -3   80.72    6.44
  -2   5   3   74.44    3.08
  -2   5   3   74.58    5.70
  -2   5   2  488.27   14.40
  -2   5   2  503.26    7.82
   2  -5  -2  492.36   11.95
   2  -5  -2  500.43   12.95
   2  -5  -2  486.42   15.40
  -2   5   2  499.50   12.27
   2  -5  -2  495.21   15.50
  -2   5   1 1756.07   21.03
  -2   5   1 1789.99   15.93
   2  -5  -1 1766.17   24.95
  -2   5   1 1798.24   14.14
   2  -5  -1 1826.95   28.89
   2  -5  -1 1769.09   22.75
  -2   5   1 1796.30   29.62
  -2   5   0 2223.68   21.06
  -2   5   0 2150.17   32.25
  -2   5   0 2160.29   19.94
   2  -5   0 2146.85   25.81
   2  -5   0 2207.45   28.45
   2  -5   0 2182.17   30.93
   2  -5   1    5.90    1.75
  -2   5  -1    9.10    1.46
   2  -5   1    5.56    1.62
  -2   5  -1    9.46    1.24
  -2   5  -1    9.32    2.20
   2  -5   1    9.05    1.73
   2  -5   1   10.02    1.98
   2  -5   1    7.56    2.02
  -2   5  -2   13.70    2.71
   2  -5   2    9.40    2.18
  -2   5  -2   10.31    1.10
   2  -5   2   14.39    2.13
   2  -5   2   13.97    2.21
   2  -5   2   11.14    2.11
   2  -5   2   14.57    2.55
  -2   5  -3  195.13   10.22
   2  -5   3  185.22    3.52
   2  -5   3  219.38    9.62
   2  -5   3  215.45    9.92
   2  -5   3  211.78    9.28
   2  -5   3  213.00    7.58
  -2   5  -3  218.35   10.19
   2  -5   3  226.18    9.04
  -2   5  -4  229.06   11.17
   2  -5   4  222.55    7.52
   2  -5   4  212.81   10.38
   2  -5   4  227.10    9.40
  -2   5  -4  227.04   10.56
  -2   5  -5    9.21    2.37
   2  -5   5    9.71    2.56
  -2   5  -5   13.82    2.86
   2  -5   5    6.59    1.81
   2  -5   5   10.14    1.58
   2  -5   5   11.62    2.72
   2  -5   6  435.62   16.47
  -2   5  -6  411.14   14.87
   2  -5   6  412.00   15.52
  -2   5  -6  440.92   15.30
   2  -5   6  398.83    9.75
   2  -5   6  422.65   13.85
   2  -5   7   48.25    3.42
  -2   5  -7   46.64    5.14
   2  -5   7   31.73    4.88
   2  -5   7   48.70    5.02
   2  -5   7   42.43    5.29
  -2   5  -7   37.93    4.61
  -2   5  -8    2.43    1.85
   2  -5   8    0.01    1.63
  -2   5  -8   -0.46    0.95
   2  -5   8   -0.52    1.35
   2  -5   8    1.93    1.66
   2  -5   9    0.87    1.10
   2  -5   9   -0.79    1.02
   2  -5   9    0.67    1.34
  -2   5  -9   -0.10    1.09
  -2   5  -9    3.38    1.87
  -2   5 -10   52.93    5.48
   2  -5  10   50.20    5.85
   2  -5  10   31.29    5.60
   2  -5  10   50.19    6.42
  -2   5 -10   50.60    5.96
   2  -5  11   61.19    7.38
   2  -5  11   45.54    7.08
  -2   5 -11   64.00    6.97
   2  -5  11   53.79    6.33
  -2   5 -11   57.09    5.77
  -2   5 -12   19.55    3.50
   2  -5  12   18.74    4.11
  -2   5 -12   18.33    4.13
   2  -5  12   16.00    4.96
   2  -5  12   20.95    4.80
  -2   5 -13   12.71    3.07
  -2   5 -13   14.67    3.70
   2  -5  13   10.07    3.82
   2  -5  13   19.81    4.26
   2  -5  13   16.09    4.16
  -2   5 -14   -4.81    2.49
  -2   5 -14   -0.65    1.46
   2  -5  14   -1.19    1.94
   2  -5  14   -0.70    2.85
   2  -5  14   -2.44    2.20
   2  -5  15   14.39    3.94
  -2   5 -15    8.37    2.99
   2  -5  15    7.02    4.25
   2  -5  15    6.12    2.53
   2  -5  16    4.97    2.87
   2  -5  16   -2.82    3.33
  -2   5 -16    2.35    2.12
   2  -5  16   -0.94    1.73
   2  -5  17  165.73   15.19
  -2   4  16    6.28    3.02
   2  -4 -16   10.21    4.29
   2  -4 -16    8.93    3.69
  -2   4  15    8.34    3.21
   2  -4 -15    0.99    2.42
   2  -4 -15    4.29    3.03
  -2   4  14   13.80    3.84
   2  -4 -14   14.52    4.50
   2  -4 -14   18.14    4.75
  -2   4  13   70.10    8.48
   2  -4 -13   76.78    9.02
   2  -4 -13   65.92    8.61
  -2   4  12   85.45    8.87
   2  -4 -12   68.07    8.35
   2  -4 -12   76.26    8.67
   2  -4 -11  127.75   10.52
  -2   4  11  116.06    9.83
   2  -4 -11  109.14   10.05
  -2   4  10  962.24   23.96
   2  -4 -10  958.72   21.25
   2  -4 -10  929.03   27.98
   2  -4 -10  897.68   26.50
  -2   4  10  920.21   26.34
  -2   4   9   71.72    7.01
   2  -4  -9   71.29    7.51
   2  -4  -9   86.88    7.94
  -2   4   9   82.00    6.49
   2  -4  -8  332.35   15.15
  -2   4   8  330.38   14.15
  -2   4   8  337.29   12.17
   2  -4  -8  344.22   14.99
   2  -4  -8  338.45   11.69
  -2   4   7    6.36    1.65
   2  -4  -7    5.79    1.99
   2  -4  -7    2.54    1.16
   2  -4  -7    2.06    1.54
  -2   4   7    7.28    2.26
  -2   4   6  126.77    7.77
  -2   4   6  119.23    6.01
   2  -4  -6  134.16    8.67
   2  -4  -6  128.84    8.31
   2  -4  -6  120.90    6.39
   2  -4  -5  233.99    8.55
   2  -4  -5  254.70   11.14
  -2   4   5  242.00    7.67
   2  -4  -5  240.92   11.06
  -2   4   5  256.39   10.36
   2  -4  -4  348.22   10.12
  -2   4   4  338.06   11.12
  -2   4   4  329.13    8.13
   2  -4  -4  346.10   12.50
  -2   4   3   37.99    3.49
   2  -4  -3   35.07    3.26
   2  -4  -3   33.55    2.67
  -2   4   3   37.12    2.49
   2  -4  -3   36.86    3.94
  -2   4   2   37.01    2.36
  -2   4   2   29.65    2.85
  -2   4   2   34.56    3.39
   2  -4  -2   30.11    2.98
   2  -4  -2   29.68    2.50
   2  -4  -2   33.98    3.73
  -2   4   1  403.65    9.32
  -2   4   1  408.19    8.04
   2  -4  -1  402.27    9.31
   2  -4  -1  401.83   12.03
  -2   4   1  381.38   10.90
   2  -4  -1  418.30   12.31
  -2   4   1  397.22    7.04
   2  -4  -1  389.80   10.81
  -2   4   0 2107.11   19.19
   2  -4   0 2108.14   21.89
  -2   4   0 2127.01   13.04
  -2   4   0 2077.81   19.68
   2  -4   0 2144.68   21.07
   2  -4   0 2103.25   27.05
   2  -4   0 2078.07   25.71
  -2   4   0 2142.95   29.11
   2  -4   1  333.49    9.06
   2  -4   1  334.30    9.03
   2  -4   1  347.76   10.83
  -2   4  -1  338.81    8.72
  -2   4  -1  362.13   11.90
  -2   4  -1  332.71    4.58
   2  -4   1  353.47   11.12
   2  -4   1  341.36    9.05
  -2   4  -1  348.10    6.84
   2  -4   1  329.36   10.48
  -2   4  -2   52.51    2.18
   2  -4   2   54.72    3.95
   2  -4   2   48.40    4.22
   2  -4   2   52.00    3.28
   2  -4   2   62.08    4.04
   2  -4   2   56.85    4.31
  -2   4  -2   53.45    4.65
   2  -4   2   42.90    3.80
  -2   4  -2   54.08    2.42
   2  -4   3   18.11    2.81
  -2   4  -3   14.78    2.73
   2  -4   3   16.81    2.41
  -2   4  -3   18.27    2.87
   2  -4   3   19.97    2.44
   2  -4   3   19.73    1.90
  -2   4  -3   19.93    1.74
   2  -4   3   17.78    2.69
  -2   4  -4    8.47    1.35
  -2   4  -4   12.74    2.38
   2  -4   4    6.48    1.82
   2  -4   4   13.25    1.52
   2  -4   4    4.03    1.60
   2  -4   4    7.68    1.63
  -2   4  -4   10.40    2.27
  -2   4  -5  166.98    8.54
   2  -4   5  164.00    5.11
   2  -4   5  162.89    7.58
   2  -4   5  165.62    8.20
   2  -4   5  159.39    4.64
  -2   4  -5  147.33    8.04
   2  -4   5  159.28    8.78
  -2   4  -6  170.70    8.96
  -2   4  -6  170.37    8.61
   2  -4   6  159.81    5.31
   2  -4   6  166.64   10.01
   2  -4   6  160.83    5.13
   2  -4   6  149.06    8.18
   2  -4   6  156.68    9.07
   2  -4   6  168.19    8.14
   2  -4   7 1947.30   20.63
   2  -4   7 1933.13   36.11
   2  -4   7 2000.47   33.65
  -2   4  -7 2012.35   31.56
  -2   4  -7 1847.00   28.35
   2  -4   7 1909.89   18.34
  -2   4  -8    2.13    1.45
  -2   4  -8    0.91    1.06
   2  -4   8    1.60    0.93
   2  -4   8    0.71    1.20
   2  -4   8    3.83    0.97
   2  -4   8    0.59    1.33
   2  -4   9 1013.96   26.40
   2  -4   9  956.48   28.48
  -2   4  -9  934.68   20.67
  -2   4  -9  998.62   24.10
   2  -4   9  995.65   17.76
   2  -4  10   21.06    2.86
  -2   4 -10   30.65    3.90
   2  -4  10   19.76    4.33
  -2   4 -10   32.64    4.61
   2  -4  10   27.92    4.72
  -2   4 -11   32.64    4.88
   2  -4  11   28.77    5.74
  -2   4 -11   37.75    4.44
   2  -4  11   26.91    4.87
  -2   4 -12    2.17    1.37
  -2   4 -12    0.61    1.50
   2  -4  12    2.52    1.75
   2  -4  12    1.36    1.81
  -2   4 -13   21.71    4.37
  -2   4 -13   22.72    3.60
   2  -4  13   13.54    4.53
   2  -4  13   24.06    4.84
   2  -4  14   96.82   10.20
   2  -4  14  109.84   12.41
  -2   4 -14  102.48    9.72
   2  -4  15   67.43   10.26
   2  -4  15   70.43    9.05
   2  -4  15   63.93    7.84
  -2   4 -15   62.27    7.97
   2  -4  16  135.77   15.35
  -2   4 -16  129.72   12.00
   2  -4  16  125.81   12.49
   2  -4  16  131.93   11.72
   2  -4  17    2.20    1.66
   2  -4  17    4.88    3.72
   2  -4  17    3.87    3.02
  -2   4 -17    3.09    2.48
   2  -3 -17    5.24    3.02
  -2   3  16   39.21    6.95
   2  -3 -16   40.63    7.33
   2  -3 -16   43.50    7.71
  -2   3  15   54.74    7.89
   2  -3 -15   36.22    6.52
   2  -3 -15   48.81    7.87
  -2   3  14   -1.70    1.59
   2  -3 -14    1.18    1.78
   2  -3 -14    3.07    2.64
   2  -3 -13    6.63    2.94
  -2   3  13    4.69    2.29
  -2   3  13    6.34    2.67
   2  -3 -13    6.34    3.05
  -2   3  12    5.11    2.26
   2  -3 -12    2.44    1.92
  -2   3  12    6.35    2.65
   2  -3 -12    7.50    2.43
  -2   3  11  257.30   14.02
  -2   3  11  270.14   13.88
   2  -3 -11  254.25   14.39
   2  -3 -11  249.75   13.82
  -2   3  10  394.65   15.77
   2  -3 -10  398.30   16.60
   2  -3 -10  376.90   16.55
  -2   3  10  391.75   16.32
  -2   3   9 1197.27   25.40
  -2   3   9 1188.43   27.17
   2  -3  -9 1157.32   26.74
   2  -3  -9 1183.47   27.95
  -2   3   8  142.69    8.91
   2  -3  -8  133.84    8.91
   2  -3  -8  147.08    9.09
  -2   3   8  148.02    8.33
   2  -3  -7   -0.15    0.73
  -2   3   7   -0.01    0.77
  -2   3   7    1.00    1.38
   2  -3  -7    1.50    1.62
  -2   3   6  158.49    8.32
  -2   3   6  152.66    7.10
   2  -3  -6  159.98    8.60
   2  -3  -6  158.09    8.45
   2  -3  -5  290.19   10.69
  -2   3   5  285.92    8.83
  -2   3   5  302.28   10.68
   2  -3  -5  274.34    9.02
  -2   3   4  294.18    9.74
   2  -3  -4  285.68    8.82
  -2   3   4  288.98    8.19
   2  -3  -4  305.30   10.52
   2  -3  -4  301.03   10.34
  -2   3   3 3359.55   14.99
  -2   3   3 3350.86   25.28
   2  -3  -3 3203.71   28.50
   2  -3  -3 3217.94   32.13
   2  -3  -3 3268.31   14.16
  -2   3   3 3271.73   30.06
  -2   3   3 3254.59   29.14
   2  -3  -3 3223.83   32.19
  -2   3   2  327.77    8.64
   2  -3  -2  324.70    8.99
  -2   3   2  322.65    7.65
   2  -3  -2  324.60    5.68
   2  -3  -2  319.82    6.36
  -2   3   2  327.04    8.75
  -2   3   2  323.34    7.45
   2  -3  -2  323.37    9.64
   2  -3  -2  325.49    9.80
  -2   3   1 1417.12   17.67
   2  -3  -1 1510.75   14.31
  -2   3   1 1509.15   15.77
   2  -3  -1 1487.94   14.17
   2  -3  -1 1461.15   19.30
   2  -3  -1 1494.54   19.86
  -2   3   1 1484.29   14.30
  -2   3   1 1527.06   16.88
   2  -3  -1 1471.12   20.00
  -2   3   0  289.85    5.58
   2  -3   0  284.63    8.43
   2  -3   0  297.00    7.05
   2  -3   0  290.16    6.58
  -2   3   0  287.65    7.29
  -2   3   0  289.69    6.63
   2  -3   0  281.82    8.64
   2  -3   0  285.32    8.58
  -2   3   0  272.63    9.34
  -2   3  -1 2281.29   16.98
  -2   3  -1 2291.30   22.11
   2  -3   1 2349.28   19.93
  -2   3  -1 2245.03   15.61
   2  -3   1 2292.48   25.27
   2  -3   1 2429.05   22.27
   2  -3   1 2229.89   23.37
  -2   3  -1 2362.78   26.98
   2  -3   2  954.54   15.21
   2  -3   2  980.66   17.34
   2  -3   2  971.02   17.42
  -2   3  -2  980.97   17.49
   2  -3   2  998.31   10.78
   2  -3   2  934.64   13.37
   2  -3   2  933.97   14.99
  -2   3  -2  946.91   11.39
  -2   3  -2  950.09   10.70
  -2   3  -3  352.68   10.94
  -2   3  -3  370.28    8.17
   2  -3   3  374.77   11.93
   2  -3   3  390.54    5.90
   2  -3   3  397.12   11.56
   2  -3   3  369.07   10.18
  -2   3  -3  397.25   11.35
  -2   3  -4 2172.91   27.07
  -2   3  -4 2174.87   22.62
  -2   3  -4 2186.75   27.59
   2  -3   4 2153.18   26.19
   2  -3   4 2206.00   29.00
   2  -3   4 2113.59   12.82
  -2   3  -5  773.65   16.08
   2  -3   5  715.55   12.41
   2  -3   5  764.94   16.57
  -2   3  -5  757.45   14.96
  -2   3  -5  766.29   16.86
   2  -3   5  753.38    8.20
   2  -3   5  781.46   18.08
   2  -3   6  553.94    7.91
  -2   3  -6  548.30   13.60
   2  -3   6  592.33   16.63
   2  -3   6  579.10   18.21
  -2   3  -6  550.73   14.11
  -2   3  -6  577.33   15.23
   2  -3   6  566.38   12.12
   2  -3   6  583.54   15.41
  -2   3  -7  479.17   12.81
   2  -3   7  466.42   11.93
   2  -3   7  500.73   16.06
  -2   3  -7  474.55   14.30
   2  -3   7  499.45   18.06
  -2   3  -7  500.49   14.92
   2  -3   7  494.89   14.84
   2  -3   8  326.35   15.49
  -2   3  -8  332.32   10.88
   2  -3   8  324.21   10.68
   2  -3   8  339.13   13.84
   2  -3   8  314.75   12.50
  -2   3  -8  357.36   13.22
   2  -3   9   48.53    4.47
   2  -3   9   40.28    5.10
  -2   3  -9   43.94    4.90
   2  -3   9   34.66    5.49
  -2   3  -9   35.67    3.76
   2  -3  10  339.70   12.49
   2  -3  10  334.03   17.43
  -2   3 -10  349.53   14.42
   2  -3  10  341.75   15.31
  -2   3 -10  337.28   11.63
   2  -3  11  596.21   17.55
  -2   3 -11  595.21   15.90
   2  -3  11  579.25   20.87
   2  -3  11  635.76   25.27
  -2   3 -11  562.69   19.18
   2  -3  12  148.85    9.31
  -2   3 -12  154.85    8.43
   2  -3  12  145.55   11.06
   2  -3  12  142.20   12.77
  -2   3 -12  153.24   10.66
   2  -3  13  458.62   17.07
   2  -3  13  463.12   20.33
   2  -3  13  426.55   22.85
  -2   3 -13  448.63   18.98
   2  -3  14   43.73    7.88
   2  -3  14   54.03    7.36
  -2   3 -14   56.46    7.17
  -2   3 -15    9.85    3.22
   2  -3  15    3.78    1.99
   2  -3  15    9.83    4.47
  -2   3 -16   27.68    5.69
   2  -3  16   39.61    8.10
   2  -3  16   32.71    6.09
  -2   3 -17    4.63    2.55
   2  -3  17    6.14    3.85
   2  -2 -17   42.55    7.98
  -2   2  17   39.94    6.94
   2  -2 -17   38.27    7.07
   2  -2 -16   27.38    5.99
  -2   2  16   34.01    6.94
  -2   2  16   27.09    5.52
   2  -2 -16   32.23    6.29
  -2   2  15   42.31    6.64
  -2   2  15   37.23    6.72
   2  -2 -15   49.45    7.51
   2  -2 -15   46.63    7.22
  -2   2  14   59.22    7.55
  -2   2  14   61.40    8.18
   2  -2 -14   57.29    7.68
   2  -2 -14   75.36    8.59
   2  -2 -13   45.97    6.58
   2  -2 -13   47.50    6.42
  -2   2  13   37.92    5.73
  -2   2  13   48.99    6.89
  -2   2  12  579.09   20.96
   2  -2 -12  574.20   20.74
  -2   2  12  545.82   21.38
   2  -2 -12  538.20   20.96
  -2   2  11   65.43    6.97
   2  -2 -11   64.74    6.79
   2  -2 -11   50.77    6.15
  -2   2  11   51.94    6.09
  -2   2  10   35.62    4.83
   2  -2 -10   38.84    4.92
   2  -2 -10   27.76    4.42
  -2   2  10   36.35    5.03
   2  -2  -9    4.81    1.18
   2  -2  -9    6.68    2.18
  -2   2   9   10.76    2.67
  -2   2   9    6.69    2.13
   2  -2  -9    8.52    2.42
  -2   2   8  741.83   19.22
  -2   2   8  654.14   17.89
   2  -2  -8  689.46   19.16
   2  -2  -8  695.25   11.57
   2  -2  -8  733.46   18.60
  -2   2   7  714.95   17.88
  -2   2   7  687.36   16.91
   2  -2  -7  711.89   10.56
   2  -2  -7  697.95   18.33
   2  -2  -7  731.79   17.64
  -2   2   6  842.83   18.11
   2  -2  -6  833.87   10.20
   2  -2  -6  847.05   17.62
   2  -2  -6  838.82   18.65
  -2   2   6  790.37   16.77
  -2   2   5  329.97    9.92
  -2   2   5  354.42   10.89
   2  -2  -5  341.62    5.78
   2  -2  -5  341.76   10.59
   2  -2  -5  320.75   10.17
   2  -2  -4   25.96    1.45
   2  -2  -4   30.44    2.88
   2  -2  -4   27.90    2.83
  -2   2   4   27.29    2.67
  -2   2   3   97.92    4.56
   2  -2  -3   74.34    4.22
  -2   2   3   94.68    4.76
   2  -2  -3   88.21    2.65
   2  -2  -3   93.83    4.66
   2  -2  -3   94.76    4.79
  -2   2   2   27.07    2.24
  -2   2   2   27.51    2.26
   2  -2  -2   28.64    2.37
   2  -2  -2   26.74    1.61
  -2   2   2   28.19    1.22
   2  -2  -2   25.70    2.38
  -2   2   2   27.48    2.07
  -2   2   2   27.99    2.40
   2  -2  -2   28.44    2.48
  -2   2   1  355.47    7.82
   2  -2  -1  353.69    8.68
  -2   2   1  354.53    7.26
   2  -2  -1  357.64    8.15
  -2   2   1  354.10    6.79
   2  -2  -1  359.55    4.71
   2  -2  -1  356.93    6.42
   2  -2  -1  353.20    7.63
  -2   2   1  356.10    7.67
   2  -2   0 2573.31   19.15
  -2   2   0 2636.01   19.29
  -2   2   0 2618.38   18.65
   2  -2   0 2649.97   14.69
   2  -2   0 2584.71   23.77
   2  -2   0 2557.65   20.64
  -2   2   0 2537.85   21.48
   2  -2   0 2497.93   20.02
  -2   2   0 2589.36   24.83
  -2   2  -1  355.25    8.58
   2  -2   1  335.25    8.85
  -2   2  -1  352.50    6.90
  -2   2  -1  351.25    7.06
  -2   2  -1  364.68    9.34
   2  -2   1  371.36    7.65
   2  -2   1  364.18    7.99
   2  -2   2  623.76   11.36
   2  -2   2  634.97   12.65
   2  -2   2  617.26   13.62
  -2   2  -2  619.96   10.35
  -2   2  -3  218.48    7.26
  -2   2  -3  197.43    6.55
   2  -2   3  199.18    7.54
   2  -2   3  202.40    8.43
   2  -2   3  195.22    6.82
  -2   2  -3  207.10    7.33
   2  -2   4  282.77    9.57
  -2   2  -4  293.91    8.88
   2  -2   4  292.29    9.05
  -2   2  -4  292.26    8.32
  -2   2  -4  294.17    9.20
   2  -2   5   74.66    4.52
  -2   2  -5   84.43    5.21
   2  -2   5   76.00    4.99
  -2   2  -5   75.29    4.28
   2  -2   5   77.92    5.36
  -2   2  -5   81.60    5.11
   2  -2   6 1148.23   20.38
  -2   2  -6 1147.06   21.09
   2  -2   6 1147.43   21.62
  -2   2  -6 1186.27   20.60
  -2   2  -6 1131.08   16.62
   2  -2   6 1098.64   18.85
   2  -2   7  155.19    7.63
   2  -2   7  154.65    7.95
   2  -2   7  161.29    8.61
  -2   2  -7  158.26    8.51
  -2   2  -7  160.89    8.06
  -2   2  -7  154.10    6.34
   2  -2   7  155.93    9.87
   2  -2   8  180.93    8.79
   2  -2   8  200.08   10.11
   2  -2   8  183.57    9.16
  -2   2  -8  188.91    7.34
  -2   2  -8  165.54    9.43
  -2   2  -8  179.39    9.04
   2  -2   8  178.81   11.30
   2  -2   9  108.77    7.23
   2  -2   9  105.93    7.70
  -2   2  -9  111.12    7.53
   2  -2   9  112.11    7.56
   2  -2   9  111.01    9.40
  -2   2  -9  120.58    6.06
  -2   2 -10    7.88    1.90
  -2   2 -10    8.83    2.47
   2  -2  10    9.83    2.59
   2  -2  10    6.12    2.46
   2  -2  10    4.46    1.81
   2  -2  10   11.63    2.59
  -2   2 -11   -1.41    1.67
  -2   2 -11    0.24    0.81
   2  -2  11    0.43    1.29
   2  -2  11    0.07    1.79
   2  -2  11    0.56    1.34
   2  -2  12  149.70    9.95
   2  -2  12  130.21    9.88
   2  -2  12  137.36   12.30
  -2   2 -12  138.95    9.98
   2  -2  13    0.70    1.06
  -2   2 -13    0.11    1.43
   2  -2  13   -0.22    2.05
   2  -2  13    1.51    1.62
   2  -2  14  110.88    9.46
   2  -2  14  112.66   10.05
  -2   2 -14  112.44   10.03
   2  -2  14  122.25   12.83
  -2   2 -15    1.61    1.76
   2  -2  15    3.41    2.34
   2  -2  15    4.17    2.22
   2  -2  15    5.02    3.73
   2  -2  16   28.07    6.97
  -2   2 -16   28.87    5.89
   2  -2  17    0.92    2.91
  -2   2 -17    0.65    1.44
  -2   2 -17    1.45    2.38
  -2   1  18   39.31    6.91
  -2   1  18   36.36    7.71
  -2   1  17   16.94    5.62
   2  -1 -17   20.97    5.30
  -2   1  17    7.51    3.27
   2  -1 -17   10.34    3.79
  -2   1  16    7.98    3.73
  -2   1  16   13.27    3.91
   2  -1 -16   11.18    3.84
   2  -1 -16   11.38    3.82
  -2   1  15   40.17    6.23
  -2   1  15   46.48    7.75
   2  -1 -15   30.09    5.84
   2  -1 -15   50.29    7.14
   2  -1 -14    4.98    2.34
  -2   1  14    6.58    2.99
  -2   1  14    3.91    2.51
   2  -1 -14    3.88    2.30
   2  -1 -13    0.52    1.58
   2  -1 -13   -1.19    1.95
  -2   1  13    0.48    1.24
  -2   1  13    1.10    1.91
   2  -1 -12    9.67    2.82
  -2   1  12   13.02    3.51
  -2   1  12   12.25    3.10
   2  -1 -12   14.03    3.41
  -2   1  11  634.74   20.13
   2  -1 -11  656.07   20.06
   2  -1 -11  609.29   20.50
  -2   1  11  610.34   21.57
  -2   1  10  128.88    8.62
  -2   1  10  130.90    9.35
   2  -1 -10  126.29    8.33
   2  -1 -10  127.57    8.95
  -2   1   9    5.70    2.18
   2  -1  -9    6.62    2.02
   2  -1  -9    6.93    2.09
  -2   1   9    7.85    2.11
  -2   1   8    2.57    1.33
   2  -1  -8    3.87    1.73
  -2   1   8    2.08    1.30
   2  -1  -8    2.04    1.34
  -2   1   7   76.94    5.60
   2  -1  -7   91.56    4.74
   2  -1  -7   93.86    6.40
  -2   1   7   90.66    6.32
   2  -1  -7   94.75    5.87
   2  -1  -6  330.21    8.35
  -2   1   6  335.35   10.80
  -2   1   6  335.03   11.19
   2  -1  -6  360.12   10.54
   2  -1  -6  335.42   11.20
  -2   1   5  464.28   11.81
  -2   1   5  466.51   12.22
   2  -1  -5  463.47   12.23
   2  -1  -5  466.84   10.96
   2  -1  -5  445.80    9.03
  -2   1   4 1472.51   19.23
   2  -1  -4 1442.48   14.78
   2  -1  -4 1417.94   19.57
  -2   1   4 1413.98   19.54
  -2   1   3  591.07   11.17
   2  -1  -3  589.59    8.78
  -2   1   3  566.42   11.37
   2  -1  -3  551.38    9.71
   2  -1  -2 5936.69   26.91
  -2   1   2 6305.83   34.35
  -2   1   2 6357.28   33.55
  -2   1   2 6295.99   35.02
   2  -1  -2 5859.13   27.80
   2  -1  -2 6393.56   25.77
   2  -1  -1 3961.32   20.22
   2  -1  -1 3891.51   26.50
  -2   1   1 3973.71   25.42
  -2   1   1 3820.56   26.28
   2  -1  -1 4040.37   15.31
  -2   1   1 3940.00   24.65
   2  -1  -1 3810.17   21.69
   2  -1  -1 3899.56   16.65
  -2   1   0   76.89    3.42
  -2   1   0   69.52    3.43
   2  -1   0   72.36    3.63
  -2   1   0   70.68    3.35
   2  -1   0   73.12    2.44
   2  -1   0   73.83    3.20
  -2   1  -1  194.34    5.53
   2  -1   1  201.82    6.11
  -2   1  -1  200.32    5.90
  -2   1  -1  203.66    5.80
   2  -1   1  205.19    5.71
   2  -1   2  934.02   13.82
  -2   1  -2  928.42   12.71
  -2   1  -2  945.58   13.83
   2  -1   2  968.67   13.37
  -2   1  -3  787.25   10.54
   2  -1   3  805.64   13.66
  -2   1  -3  788.19   12.57
  -2   1  -3  857.70   14.45
   2  -1   3  843.18    7.28
   2  -1   3  786.77   13.06
  -2   1  -4    0.42    0.37
  -2   1  -4    1.13    0.71
  -2   1  -4    0.49    0.69
   2  -1   4    1.07    0.68
   2  -1   4    0.58    0.65
   2  -1   5 1079.17   18.94
   2  -1   5 1107.85   18.57
  -2   1  -5 1115.95   19.93
  -2   1  -5 1121.42   17.71
   2  -1   5 1109.51   17.86
  -2   1  -5 1112.56   12.99
  -2   1  -6    8.12    1.26
  -2   1  -6    7.38    1.66
   2  -1   6   10.50    2.50
   2  -1   6    5.80    1.55
   2  -1   6    8.75    1.81
   2  -1   6    5.38    1.69
  -2   1  -6    8.11    1.93
   2  -1   7   14.51    2.50
  -2   1  -7   14.46    2.73
   2  -1   7   13.11    2.25
   2  -1   7    9.95    2.58
   2  -1   7   12.37    2.45
  -2   1  -7   13.16    2.34
  -2   1  -7   12.63    1.59
   2  -1   8   19.57    3.19
   2  -1   8   18.12    2.93
  -2   1  -8   14.58    3.00
  -2   1  -8   18.60    2.90
  -2   1  -8   16.96    1.98
   2  -1   8   19.63    2.90
   2  -1   8   15.34    3.33
  -2   1  -9  182.94   10.87
   2  -1   9  182.48   10.01
   2  -1   9  181.60    9.52
   2  -1   9  178.60    9.12
   2  -1   9  184.59   11.96
  -2   1  -9  184.14    9.55
  -2   1  -9  184.90    6.88
   2  -1  10  181.92   10.57
   2  -1  10  200.02   10.47
   2  -1  10  189.87    9.90
  -2   1 -10  200.95   10.62
   2  -1  10  205.06   13.42
  -2   1 -10  204.46    7.75
   2  -1  11  290.07   14.06
   2  -1  11  302.63   13.60
   2  -1  11  284.80   16.69
  -2   1 -11  292.16   13.56
   2  -1  11  279.45   12.65
  -2   1 -11  309.68   10.03
   2  -1  12   66.10    6.71
  -2   1 -12   71.62    7.19
   2  -1  12   64.22    8.41
   2  -1  12   78.50    7.68
   2  -1  13  135.73   12.66
  -2   1 -13  120.50    9.95
   2  -1  13  125.21   10.18
   2  -1  13  129.94    9.78
  -2   1 -14   -1.27    1.88
   2  -1  14   -1.28    1.88
   2  -1  14   -0.50    1.87
   2  -1  15    2.13    2.82
  -2   1 -15   -0.51    1.55
   2  -1  15   -0.16    1.72
  -2   1 -15   -5.16    2.42
  -2   1 -16   42.36    6.99
   2  -1  16   43.45    6.77
   2  -1  16   44.74    8.68
  -2   1 -16   32.69    5.78
  -2   1 -17    9.34    3.73
  -2   1 -17   15.48    4.14
   2  -1  17    7.73    4.46
  -2   0  18   -1.64    2.34
  -2   0  18    1.12    2.59
   2   0 -17   -4.34    2.55
  -2   0  17   -0.97    2.49
  -2   0  17    1.83    2.07
   2   0 -17    2.87    2.31
  -2   0  16   47.20    6.90
   2   0 -16   44.60    6.95
  -2   0  16   42.95    7.68
  -2   0  16   48.14    6.03
   2   0 -16   48.28    7.51
  -2   0  15   -0.06    1.96
  -2   0  15    0.74    1.67
   2   0 -15    2.25    1.93
   2   0 -15    0.31    1.55
   2   0 -14  566.84   22.84
  -2   0  14  587.05   25.29
   2   0 -14  579.48   21.81
  -2   0  14  555.36   21.05
  -2   0  13    2.19    1.81
  -2   0  13    5.62    2.15
   2   0 -13    5.13    2.24
  -2   0  12  140.53    9.61
   2   0 -12  135.48   10.03
  -2   0  12  139.65   11.08
  -2   0  11  206.93   11.03
  -2   0  11  210.49   12.77
   2   0 -11  188.86   11.12
  -2   0  10    1.93    1.54
   2   0 -10    2.02    1.51
  -2   0  10    2.98    1.43
  -2   0   9  934.43   23.78
  -2   0   9  955.36   21.16
   2   0  -9  936.01   21.88
  -2   0   8   70.17    5.42
   2   0  -8   70.46    5.71
  -2   0   8   66.45    5.93
   2   0  -8   69.37    4.95
  -2   0   7 2350.92   29.09
   2   0  -7 2313.53   29.89
  -2   0   7 2298.38   32.44
   2   0  -7 2230.98   26.46
  -2   0   6  140.84    7.50
   2   0  -6  157.24    7.21
  -2   0   6  140.92    6.69
   2   0  -6  152.59    6.45
  -2   0   5 2746.03   27.04
  -2   0   5 2779.07   21.10
   2   0  -5 2689.87   25.90
   2   0  -5 2675.89   25.23
   2   0  -5 2710.09   27.50
  -2   0   5 2705.79   30.41
   2   0  -4    6.43    1.23
  -2   0   4    5.87    1.20
   2   0  -4    6.76    1.27
  -2   0   4    7.76    1.04
   2   0  -4    6.59    1.29
  -2   0   3   67.90    3.96
   2   0  -3   70.77    3.63
   2   0  -3   67.45    3.58
  -2   0   3   68.20    2.70
   2   0  -3   67.27    3.40
  -2   0   3   64.76    3.56
  -2   0   2  348.40    8.25
   2   0  -2  331.47    7.46
   2   0  -2  337.65    6.80
  -2   0   2  335.81    5.60
   2   0  -2  325.88    6.73
  -2   0   2  329.85    7.56
  -2   0   1 1675.29   16.48
  -2   0   1 1606.70   12.26
  -2   0   1 1654.92   17.34
   2   0  -1 1692.53   16.37
   2   0   0 6163.20   30.90
  -2   0   0 6354.36   33.90
   2   0   0 6432.48   17.91
   2   0   0 6384.24   30.41
  -2   0   0 6257.50   23.76
  -2   0   0 6269.02   32.29
   2   0   1  466.33    8.17
  -2   0  -1  476.30    9.77
   2   0   1  463.37    8.71
  -2   0  -1  469.65    7.75
  -2   0  -2 9805.91   34.18
   2   0   2 9850.14   42.22
  -2   0  -2 9815.54   47.70
  -2   0  -2 9707.16   46.73
   2   0   2 9869.14   38.80
   2   0   3 4378.45   28.25
  -2   0  -3 4445.39   26.75
   2   0   3 4380.73   37.84
   2   0   3 4329.69   29.92
  -2   0  -3 4455.38   34.85
  -2   0  -4   71.66    4.87
   2   0   4   76.44    4.22
   2   0   4   78.28    5.52
  -2   0  -4   67.04    3.75
   2   0   4   72.25    3.97
  -2   0  -4   79.64    3.70
  -2   0  -5  208.77    4.33
   2   0   5  202.79    7.14
  -2   0  -5  216.61    7.38
   2   0   5  225.93   10.08
  -2   0  -5  206.16    8.90
   2   0   5  217.24    7.58
   2   0   5  208.46    9.07
  -2   0  -6    6.95    0.94
  -2   0  -6    6.10    1.51
   2   0   6    9.22    2.48
   2   0   6    7.71    1.56
   2   0   6    2.74    1.34
  -2   0  -6    6.43    1.83
   2   0   6    6.47    1.53
   2   0   7   80.54    5.19
   2   0   7   75.71    5.14
   2   0   7   86.50    7.17
  -2   0  -7   80.49    5.39
  -2   0  -7   77.91    6.41
  -2   0  -7   76.94    3.46
   2   0   7   79.33    6.38
   2   0   8  101.97    7.58
   2   0   8   99.90    6.16
   2   0   8  100.67    8.30
  -2   0  -8  116.70    7.00
   2   0   8  102.75    6.35
  -2   0  -8  107.26    8.03
   2   0   9   50.82    5.72
   2   0   9   49.91    4.63
  -2   0  -9   53.12    5.09
   2   0   9   46.31    5.98
  -2   0  -9   56.28    6.23
   2   0   9   49.84    4.68
  -2   0 -10  273.91   12.48
   2   0  10  269.37   13.57
   2   0  10  248.17   10.93
   2   0  10  257.41   14.80
   2   0  10  251.10   10.95
   2   0  11    1.49    1.32
   2   0  11   -0.29    0.98
   2   0  11    2.02    2.05
   2   0  11   -0.26    1.11
  -2   0 -11    0.17    1.40
  -2   0 -11   -0.03    0.85
   2   0  12   29.20    5.00
   2   0  12   31.25    5.82
   2   0  12   25.31    3.92
  -2   0 -12   37.57    5.07
  -2   0 -12   39.41    5.55
   2   0  13   72.57    8.16
  -2   0 -13   72.19    7.78
   2   0  13   62.16    8.76
  -2   0 -13   72.81    7.42
   2   0  14   60.88    7.81
   2   0  14   54.15    8.31
  -2   0 -14   54.64    6.97
  -2   0 -14   79.74    8.75
   2   0  15   12.04    4.18
   2   0  15   12.31    3.68
  -2   0 -15   14.79    3.95
  -2   0 -15   14.66    4.00
   2   0  16   -0.08    2.74
  -2   0 -16    1.68    1.57
   2   0  16    1.03    1.88
  -2   0 -16   -0.59    2.29
  -2   0 -17   -0.35    1.46
   2   0  17    4.43    3.17
   2   0  17   -1.00    2.51
  -2   0 -17   -4.55    2.80
  -2  -1  18   20.21    6.01
  -2  -1  17  230.21   14.73
   2   1 -17  213.90   16.18
  -2  -1  17  216.12   18.27
   2   1 -17  218.52   15.53
  -2  -1  17  225.02   13.84
  -2  -1  16    0.82    1.19
  -2  -1  16    3.19    3.07
   2   1 -16    0.42    1.69
  -2  -1  16    0.75    1.14
  -2  -1  15   45.03    6.18
  -2  -1  15   49.44    5.92
   2   1 -15   50.69    7.17
  -2  -1  15   48.47    7.87
  -2  -1  14    6.11    2.42
  -2  -1  14    6.26    3.11
   2   1 -14    3.35    1.69
  -2  -1  14    6.06    2.15
  -2  -1  13   26.50    5.37
  -2  -1  13   28.53    4.45
   2   1 -13   26.96    4.75
  -2  -1  13   28.35    4.07
  -2  -1  12   52.98    7.07
  -2  -1  12   64.36    6.25
  -2  -1  12   60.95    5.69
   2   1 -12   53.38    6.21
   2   1 -12   56.62    5.61
  -2  -1  11  144.61    8.88
  -2  -1  11  157.96   11.30
   2   1 -11  152.72    9.80
  -2  -1  11  153.51    8.41
   2   1 -11  144.27    8.55
  -2  -1  10  185.28    9.39
   2   1 -10  175.09    9.86
  -2  -1  10  166.56   10.98
  -2  -1  10  172.63    8.45
   2   1 -10  170.45    8.75
  -2  -1   9  123.45    8.86
  -2  -1   9  116.39    7.02
  -2  -1   9  123.45    6.74
   2   1  -9  115.84    7.61
   2   1  -9  116.24    6.84
   2   1  -8  956.01   18.61
   2   1  -8  984.50   20.47
  -2  -1   8  993.07   23.47
  -2  -1   8  995.42   19.30
  -2  -1   8  996.35   17.89
   2   1  -7  171.65    7.96
  -2  -1   7  178.38    7.60
  -2  -1   7  184.66    7.18
  -2  -1   7  162.94    8.85
   2   1  -7  180.58    7.54
  -2  -1   6   92.08    5.05
   2   1  -6  107.79    5.75
  -2  -1   6   97.90    4.88
   2   1  -6   98.16    5.28
   2   1  -5  187.18    6.88
  -2  -1   5  178.42    6.21
  -2  -1   5  182.52    6.60
   2   1  -5  192.37    6.84
  -2  -1   4  308.60    8.02
   2   1  -4  297.79    7.74
  -2  -1   4  294.08    7.50
   2   1  -4  305.66    9.26
  -2  -1   4  308.17    9.19
   2   1  -4  301.74    7.89
   2   1  -3  369.92    9.63
  -2  -1   3  369.61    9.39
   2   1  -3  344.45    7.23
  -2  -1   3  353.92    7.91
  -2  -1   3  326.78    7.89
   2   1  -3  307.50    7.35
  -2  -1   2   17.85    2.07
   2   1  -2   15.91    1.31
   2   1  -2   18.05    1.63
  -2  -1   2   16.17    1.69
  -2  -1   2   18.54    2.02
  -2  -1   2   17.18    1.82
   2   1  -2   14.42    1.86
  -2  -1   1  131.65    2.51
  -2  -1   1  127.07    4.99
   2   1  -1  127.32    3.79
   2   1  -1  126.15    5.06
  -2  -1   1  126.23    3.72
   2   1  -1  129.22    2.66
  -2  -1   1  133.04    4.78
  -2  -1   1  124.29    5.02
  -2  -1   1  128.24    4.83
   2   1   0    1.49    0.41
  -2  -1   0    1.09    0.43
  -2  -1   0    1.09    0.66
   2   1   0    0.84    0.67
  -2  -1   0    0.75    0.58
  -2  -1   0    1.03    0.58
  -2  -1   0   -0.17    0.47
  -2  -1   0    1.88    0.46
   2   1   1 5256.59   31.29
  -2  -1  -1 5239.87   18.87
   2   1   1 5295.30   23.84
  -2  -1  -1 5179.01   34.54
   2   1   1 5109.30   28.24
  -2  -1  -1 5184.33   29.67
  -2  -1  -1 5261.47   31.95
  -2  -1  -1 4971.02   23.02
  -2  -1  -1 5182.64   33.48
   2   1   1 5279.91   15.86
   2   1   1 5285.31   15.99
  -2  -1  -1 5042.50   31.55
   2   1   2 2341.53   21.14
  -2  -1  -2 2297.42   22.50
   2   1   2 2342.78   20.52
  -2  -1  -2 2310.49   23.07
   2   1   2 2341.67   15.83
  -2  -1  -2 2336.76   14.92
  -2  -1  -2 2307.81   24.76
  -2  -1  -2 2353.36   17.76
   2   1   3  659.22    9.11
  -2  -1  -3  655.37   12.86
   2   1   3  674.31   14.56
  -2  -1  -3  658.83    9.75
  -2  -1  -3  635.83   12.47
  -2  -1  -3  661.62   14.17
  -2  -1  -3  651.30   10.57
   2   1   3  643.46   11.61
   2   1   4  641.91    9.85
  -2  -1  -4  654.06   15.34
  -2  -1  -4  632.73   11.70
  -2  -1  -4  635.90   13.03
   2   1   4  670.72   12.37
  -2  -1  -4  657.79   11.36
   2   1   4  647.73   15.38
  -2  -1  -5  142.77    6.02
   2   1   5  142.05    8.04
   2   1   5  141.18    5.15
  -2  -1  -5  139.88    7.65
   2   1   5  148.12    6.16
  -2  -1  -5  146.02    6.58
   2   1   5  139.68    7.74
  -2  -1  -5  142.23    6.13
   2   1   6   -0.45    0.61
   2   1   6    0.62    0.95
   2   1   6   -0.66    0.63
  -2  -1  -6    0.06    0.53
  -2  -1  -6   -0.14    0.84
  -2  -1  -6    0.21    0.76
   2   1   7   56.06    3.89
  -2  -1  -7   70.61    5.14
  -2  -1  -7   84.05    5.61
   2   1   7   66.76    4.66
   2   1   7   65.22    6.20
  -2  -1  -7   63.77    6.02
   2   1   7   67.27    6.25
   2   1   8  721.41   14.81
  -2  -1  -8  735.50   17.93
  -2  -1  -8  760.70   18.24
  -2  -1  -8  720.39   21.21
   2   1   8  759.85   16.52
   2   1   8  735.41   21.64
   2   1   8  745.04   22.06
   2   1   9  919.71   25.15
   2   1   9  900.11   25.84
  -2  -1  -9  913.07   21.45
  -2  -1  -9  943.82   25.83
   2   1   9  928.12   19.30
  -2  -1  -9  932.51   21.67
   2   1   9  867.77   17.51
   2   1  10  341.02   11.75
   2   1  10  345.82   16.89
   2   1  10  356.98   12.58
  -2  -1 -10  339.80   16.44
   2   1  10  356.46   16.40
  -2  -1 -10  330.57   13.87
  -2  -1 -10  328.63   13.81
   2   1  11  280.67   16.22
   2   1  11  289.25   15.46
  -2  -1 -11  289.26   13.75
   2   1  11  300.76   12.07
  -2  -1 -11  307.11   14.20
  -2  -1 -12   16.06    3.55
   2   1  12   16.88    4.30
   2   1  12   20.78    4.39
  -2  -1 -12   13.04    3.25
   2   1  13    3.96    2.26
  -2  -1 -13    3.42    2.02
   2   1  13    6.95    2.84
  -2  -1 -13    4.80    2.17
   2   1  14    3.63    2.36
   2   1  14   -0.27    2.17
  -2  -1 -14    2.74    2.10
  -2  -1 -14    6.73    2.80
   2   1  15   82.85    9.86
  -2  -1 -15   76.32    9.07
   2   1  15   73.84   10.24
  -2  -1 -15   75.35    8.86
   2   1  16    2.32    2.96
   2   1  16    0.69    1.78
  -2  -1 -16   -2.32    2.77
  -2  -1 -16    1.22    1.70
   2   1  17  153.42   13.96
  -2  -1 -17  150.36   13.66
  -2  -1 -17  129.53   12.90
   2   2 -18    3.01    2.44
  -2  -2  18    3.01    2.81
  -2  -2  18    2.48    1.85
  -2  -2  17   44.92    8.67
  -2  -2  17   52.48    6.94
   2   2 -17   49.30    7.77
   2   2 -16   19.28    4.90
  -2  -2  16   13.56    3.46
  -2  -2  16   11.49    4.26
  -2  -2  16   17.02    3.87
  -2  -2  15    1.76    1.90
  -2  -2  15    1.09    1.48
   2   2 -15    3.97    1.90
  -2  -2  15    6.54    3.51
  -2  -2  14   27.01    5.74
   2   2 -14   29.84    4.60
  -2  -2  14   27.35    4.41
   2   2 -14   21.29    4.47
  -2  -2  14   25.30    4.30
  -2  -2  13  179.96   10.66
   2   2 -13  180.87   11.94
  -2  -2  13  167.08   10.14
  -2  -2  13  172.94   13.53
   2   2 -13  171.58   10.36
  -2  -2  12  130.47   11.07
   2   2 -12  123.05    9.34
  -2  -2  12  112.55    8.03
  -2  -2  12  104.90    7.65
   2   2 -12  124.90    8.37
   2   2 -11    1.09    1.33
   2   2 -11    0.54    1.20
  -2  -2  11    2.56    2.19
  -2  -2  11   -0.04    0.78
  -2  -2  11   -0.56    1.09
  -2  -2  10    3.63    1.47
  -2  -2  10    8.36    2.89
   2   2 -10    4.58    1.78
  -2  -2  10    6.61    2.00
   2   2 -10    5.03    1.80
  -2  -2   9  476.67   13.57
   2   2  -9  518.73   15.68
  -2  -2   9  474.74   14.00
   2   2  -9  488.25   14.29
  -2  -2   9  491.70   18.16
   2   2  -8   12.15    2.37
  -2  -2   8   13.46    2.79
   2   2  -8   13.95    2.53
  -2  -2   8   12.65    2.90
  -2  -2   8   14.11    2.45
  -2  -2   8    8.35    1.84
   2   2  -7  219.73    8.78
  -2  -2   7  183.53    9.64
  -2  -2   7  203.21    9.85
  -2  -2   7  213.32    8.48
  -2  -2   7  210.13    7.78
   2   2  -7  214.22    8.51
   2   2  -6   31.97    3.08
  -2  -2   6   33.52    3.24
  -2  -2   6   29.15    3.66
  -2  -2   6   26.68    2.68
   2   2  -6   30.93    3.15
   2   2  -5  261.62    8.03
  -2  -2   5  272.77    9.42
  -2  -2   5  276.74   10.06
  -2  -2   5  270.53    7.74
   2   2  -5  282.00    8.76
  -2  -2   5  280.48    8.88
  -2  -2   4  159.33    6.70
  -2  -2   4  167.01    7.48
   2   2  -4  157.25    7.31
  -2  -2   4  162.41    6.57
  -2  -2   4  158.31    5.72
   2   2  -4  168.38    6.41
   2   2  -4  165.38    5.67
   2   2  -3  106.51    4.79
  -2  -2   3  103.12    5.40
   2   2  -3  104.06    5.70
  -2  -2   3   98.58    5.04
   2   2  -3  103.38    3.88
  -2  -2   3  102.40    5.12
  -2  -2   3  100.92    4.52
  -2  -2   2 2312.95   23.99
  -2  -2   2 2250.10   21.10
  -2  -2   2 2290.96   23.52
   2   2  -2 2353.15   15.31
  -2  -2   2 2296.41   23.21
  -2  -2   2 2391.31   21.65
   2   2  -2 2376.44   25.89
   2   2  -2 2297.85   20.75
  -2  -2   1  247.67    7.22
   2   2  -1  247.50    7.98
   2   2  -1  240.95    6.31
  -2  -2   1  248.58    7.85
  -2  -2   1  253.25    7.18
  -2  -2   1  256.54    6.48
   2   2  -1  261.00    3.91
  -2  -2   1  249.86    7.59
   2   2   0 2491.96   18.64
   2   2   0 2506.72   24.41
  -2  -2   0 2411.08   23.50
  -2  -2   0 2393.86   26.63
  -2  -2   0 2435.88   24.20
  -2  -2   0 2443.77   21.81
  -2  -2   0 2391.23   20.50
  -2  -2   0 2444.11   25.10
  -2  -2  -1  779.09   12.42
   2   2   1  782.24   13.23
   2   2   1  796.45    8.25
  -2  -2  -1  761.24   15.33
  -2  -2  -1  793.57   14.45
  -2  -2  -1  807.73   14.64
   2   2   1  792.58   13.91
   2   2   1  802.73    9.82
  -2  -2  -1  756.07   14.08
  -2  -2  -1  782.11   12.08
   2   2   1  835.05    6.96
   2   2   2  788.75   13.16
   2   2   2  811.27    9.38
  -2  -2  -2  804.57   15.46
  -2  -2  -2  780.86   13.06
   2   2   2  793.12    6.87
   2   2   2  777.70   14.28
  -2  -2  -2  761.25   15.68
  -2  -2  -2  831.55   15.42
  -2  -2  -2  793.81   15.35
  -2  -2  -2  786.31   13.04
   2   2   3    0.23    0.29
  -2  -2  -3    0.54    0.88
  -2  -2  -3    0.31    0.52
  -2  -2  -3    0.10    0.32
  -2  -2  -3    0.35    0.51
  -2  -2  -3    0.31    0.74
   2   2   3    0.55    0.57
  -2  -2  -3    1.43    0.92
   2   2   3    0.20    0.53
   2   2   4  165.41    3.48
   2   2   4  187.39    9.39
  -2  -2  -4  186.71    6.42
  -2  -2  -4  181.96    8.45
  -2  -2  -4  176.86    7.15
  -2  -2  -4  193.39    8.74
   2   2   4  179.62    7.93
  -2  -2  -4  177.25    7.07
   2   2   4  176.36    6.44
   2   2   5  399.15   14.49
  -2  -2  -5  377.80   12.98
   2   2   5  367.97    6.28
   2   2   5  382.77   12.47
  -2  -2  -5  385.35   10.27
   2   2   5  396.67    9.99
  -2  -2  -5  391.37   11.40
   2   2   6  324.95    6.90
  -2  -2  -6  355.68   10.88
   2   2   6  356.57    9.86
   2   2   6  346.72   12.76
  -2  -2  -6  337.09   11.35
  -2  -2  -6  348.82   13.36
   2   2   6  361.92   14.46
   2   2   7  794.13   22.50
  -2  -2  -7  764.09   17.34
  -2  -2  -7  770.83   21.07
  -2  -2  -7  761.35   18.39
   2   2   7  780.20   15.32
   2   2   7  804.04   20.95
   2   2   8   64.08    6.91
  -2  -2  -8   63.66    5.45
  -2  -2  -8   59.14    5.53
  -2  -2  -8   66.18    6.72
   2   2   8   74.82    5.03
   2   2   8   67.18    6.47
   2   2   9  570.64   20.91
  -2  -2  -9  549.87   20.24
  -2  -2  -9  541.01   16.90
  -2  -2  -9  541.76   17.73
   2   2   9  516.19   19.18
   2   2   9  574.63   14.64
   2   2  10   42.14    6.12
   2   2  10   45.10    6.07
  -2  -2 -10   40.12    4.96
   2   2  10   39.06    4.05
  -2  -2 -10   41.73    5.24
  -2  -2 -10   37.68    5.73
   2   2  11   10.92    3.20
   2   2  11    8.58    3.27
  -2  -2 -11    4.58    2.04
  -2  -2 -11   10.11    2.73
   2   2  12  100.86   10.03
  -2  -2 -12  101.71    8.90
   2   2  12   98.14    9.89
  -2  -2 -12  121.00    9.91
   2   2  13  112.32   11.05
   2   2  13  100.51   10.63
  -2  -2 -13  111.55   10.14
  -2  -2 -13  111.51    9.93
   2   2  14   32.87    6.23
  -2  -2 -14   42.53    6.45
   2   2  14   39.68    7.09
  -2  -2 -14   31.96    5.87
   2   2  15  119.26   12.26
  -2  -2 -15   97.90   10.35
  -2  -2 -15   88.46   10.01
  -2  -2 -16    1.56    2.37
  -2  -2 -16    3.19    3.89
  -2  -2 -16   -0.45    1.92
  -2  -3  18  105.43   10.64
  -2  -3  18  131.57   15.32
   2   3 -17   21.25    5.12
  -2  -3  17   21.17    6.03
  -2  -3  17   27.82    5.36
   2   3 -16  136.52   12.13
  -2  -3  16  143.97   14.61
  -2  -3  16  119.39   10.48
   2   3 -16  113.90    9.80
   2   3 -15    1.37    1.27
  -2  -3  15    3.11    2.82
  -2  -3  15    2.46    1.77
   2   3 -15    0.82    1.79
  -2  -3  14  127.28    9.87
  -2  -3  14  122.76    8.71
  -2  -3  14  130.29   12.57
   2   3 -14  132.51   10.81
   2   3 -14  107.34    8.73
   2   3 -13    0.20    1.36
   2   3 -13   -0.42    1.41
  -2  -3  13    0.65    0.93
  -2  -3  13   -1.59    2.09
  -2  -3  13   -0.31    1.38
   2   3 -12   28.85    4.20
  -2  -3  12   29.63    5.62
  -2  -3  12   36.19    4.35
   2   3 -12   34.72    5.00
  -2  -3  12   39.04    5.09
   2   3 -11  128.46    8.94
  -2  -3  11  106.84    9.68
  -2  -3  11  136.46   10.36
  -2  -3  11  132.22    8.77
  -2  -3  11  124.29    7.49
   2   3 -11  125.73    8.25
   2   3 -10  244.37   10.98
  -2  -3  10  237.93   13.67
   2   3 -10  248.38   11.62
  -2  -3  10  227.90   10.98
  -2  -3  10  250.73   13.28
  -2  -3  10  229.38    9.55
  -2  -3   9  385.75   16.37
  -2  -3   9  383.35   15.78
  -2  -3   9  381.93   13.66
   2   3  -9  376.54   13.41
   2   3  -9  384.25   13.15
  -2  -3   9  376.52   11.52
  -2  -3   8  641.38   19.27
   2   3  -8  682.97   16.86
  -2  -3   8  676.04   14.41
  -2  -3   8  690.92   17.57
   2   3  -8  712.88   17.21
  -2  -3   8  681.02   20.37
  -2  -3   7  302.22    9.02
  -2  -3   7  312.13   12.72
   2   3  -7  316.85   10.71
   2   3  -7  311.46   10.97
  -2  -3   7  321.78   13.28
  -2  -3   7  309.41   11.31
  -2  -3   7  306.55   11.49
   2   3  -6  435.31   11.68
  -2  -3   6  431.95   12.80
  -2  -3   6  442.36   14.19
  -2  -3   6  442.37   12.95
  -2  -3   6  437.87   10.23
   2   3  -6  462.93   12.75
   2   3  -5  297.66    8.84
  -2  -3   5  312.14   10.58
   2   3  -5  306.51   10.10
  -2  -3   5  258.06    7.60
  -2  -3   5  272.61    9.51
  -2  -3   5  299.84   10.93
   2   3  -4   17.01    2.35
   2   3  -4   19.78    3.01
  -2  -3   4   17.73    2.53
  -2  -3   4   14.63    2.36
  -2  -3   4   13.74    2.06
   2   3  -4   20.83    2.18
  -2  -3   4   17.29    2.48
  -2  -3   4   21.30    2.17
  -2  -3   3  317.92    9.82
  -2  -3   3  347.58    9.60
   2   3  -3  341.94    9.72
  -2  -3   3  333.97   11.17
  -2  -3   3  337.83   10.66
   2   3  -3  336.64   11.29
  -2  -3   3  322.75    8.31
  -2  -3   3  335.94   10.16
   2   3  -3  329.03    7.64
   2   3  -2   17.58    2.55
   2   3  -2   21.16    2.38
  -2  -3   2   23.58    2.48
   2   3  -2   20.72    1.72
  -2  -3   2   21.24    2.71
  -2  -3   2   20.47    2.36
  -2  -3   2   20.51    2.49
  -2  -3   2   14.24    1.99
   2   3  -1  804.09   13.91
  -2  -3   1  826.52   13.66
  -2  -3   1  781.58   15.40
  -2  -3   1  824.08   16.55
   2   3  -1  835.46    9.74
  -2  -3   1  836.29   14.44
   2   3  -1  821.43   16.11
   2   3   0   36.40    3.28
  -2  -3   0   37.37    3.13
  -2  -3   0   36.66    2.77
  -2  -3   0   33.36    3.41
  -2  -3   0   32.29    2.96
   2   3   0   38.61    2.07
  -2  -3   0   39.96    3.63
   2   3   0   35.47    2.83
  -2  -3  -1   17.94    1.92
  -2  -3  -1   17.51    2.31
   2   3   1   22.31    2.46
   2   3   1   17.39    2.48
  -2  -3  -1   17.04    2.26
  -2  -3  -1   16.12    2.52
  -2  -3  -1   18.61    2.65
   2   3   1   18.56    2.04
   2   3   2  622.68   11.28
   2   3   2  621.70   12.65
   2   3   2  663.47   15.25
  -2  -3  -2  641.27   11.68
  -2  -3  -2  631.91   14.46
  -2  -3  -2  625.73   15.54
  -2  -3  -2  674.33   15.52
  -2  -3  -2  624.65   13.83
   2   3   3  155.49    5.69
  -2  -3  -3  187.66    9.03
   2   3   3  182.89    8.21
  -2  -3  -3  177.90    6.59
  -2  -3  -3  178.39    8.16
  -2  -3  -3  168.47    7.56
   2   3   3  171.10    6.53
   2   3   4  552.98   17.18
   2   3   4  555.15   14.81
  -2  -3  -4  532.14   14.01
  -2  -3  -4  537.03   15.53
  -2  -3  -4  561.16   15.46
  -2  -3  -4  535.79   12.22
  -2  -3  -4  563.57   16.36
   2   3   4  562.54   11.84
   2   3   5   10.76    1.68
  -2  -3  -5   12.50    2.07
  -2  -3  -5    6.27    2.07
  -2  -3  -5   14.37    2.68
  -2  -3  -5    9.81    2.41
   2   3   5   10.46    2.04
  -2  -3  -5   10.96    2.23
   2   3   5   14.01    2.95
   2   3   6    1.08    0.60
   2   3   6   -0.13    0.76
  -2  -3  -6   -0.55    1.27
  -2  -3  -6    0.70    0.83
   2   3   6    1.99    1.32
  -2  -3  -6    0.63    1.09
  -2  -3  -6    0.34    1.52
  -2  -3  -6   -0.14    0.81
   2   3   7  196.01   11.83
  -2  -3  -7  189.84    9.06
   2   3   7  189.90    9.87
   2   3   7  200.31    7.60
  -2  -3  -7  185.87    9.85
  -2  -3  -7  194.55   11.06
  -2  -3  -7  188.97   11.32
  -2  -3  -8  116.74    7.62
   2   3   8  138.91    9.06
   2   3   8  135.58    6.55
  -2  -3  -8  123.07    9.36
   2   3   8  133.90   10.22
  -2  -3  -8  120.84    9.59
  -2  -3  -8  127.48    8.73
  -2  -3  -9   -0.61    2.00
   2   3   9    0.89    0.97
   2   3   9   -0.47    1.57
  -2  -3  -9    1.41    1.29
  -2  -3  -9    0.99    1.10
  -2  -3  -9    3.78    1.89
   2   3  10   99.40    9.64
   2   3  10   92.88    8.40
  -2  -3 -10   96.39    9.53
  -2  -3 -10   88.88    7.56
  -2  -3 -10   94.68    8.57
   2   3  11   33.98    5.89
   2   3  11   30.03    5.21
  -2  -3 -11   28.11    5.06
  -2  -3 -11   35.72    5.19
  -2  -3 -11   33.12    6.12
   2   3  12   -0.89    2.20
  -2  -3 -12    3.19    2.29
  -2  -3 -12    2.53    2.22
  -2  -3 -12    1.50    1.09
  -2  -3 -13   23.94    5.76
  -2  -3 -13   25.74    5.30
   2   3  13   34.80    6.44
  -2  -3 -13   30.38    5.31
  -2  -3 -14    0.71    2.23
  -2  -3 -14    0.57    1.52
   2   3  14    0.15    2.15
  -2  -3 -14   -2.80    3.36
   2   3  15   10.94    3.68
  -2  -3 -15    7.77    4.07
  -2  -3 -15    7.74    3.60
  -2  -3 -16   22.52    5.78
   2   4 -18    0.18    1.63
  -2  -4  18    4.81    3.01
  -2  -4  17   20.34    4.82
   2   4 -17   17.24    4.19
  -2  -4  17   15.60    5.33
   2   4 -17   22.37    5.36
  -2  -4  16    0.36    2.15
   2   4 -16    5.66    2.60
  -2  -4  16    0.08    1.36
   2   4 -16    5.30    2.47
   2   4 -15  100.13    8.90
  -2  -4  15   98.08    9.54
   2   4 -15   96.90    9.84
  -2  -4  15  111.13   12.52
   2   4 -14   33.49    5.56
   2   4 -14   27.80    4.71
  -2  -4  14   32.82    6.39
  -2  -4  14   27.60    4.81
   2   4 -13   24.07    4.18
  -2  -4  13   23.45    5.25
   2   4 -13   32.24    5.10
  -2  -4  13   23.49    4.27
   2   4 -12   39.43    5.39
  -2  -4  12   41.45    6.37
  -2  -4  12   36.09    6.05
  -2  -4  12   36.15    5.16
   2   4 -12   40.14    5.04
   2   4 -11   54.71    5.89
  -2  -4  11   60.11    7.22
  -2  -4  11   57.05    7.25
  -2  -4  11   65.83    6.74
   2   4 -11   59.11    5.93
  -2  -4  11   56.47    4.83
   2   4 -10  305.40   12.83
  -2  -4  10  284.05   10.06
  -2  -4  10  284.57   13.20
   2   4 -10  289.97   12.74
  -2  -4  10  307.48   15.30
  -2  -4  10  293.85   15.44
  -2  -4   9  995.99   23.69
  -2  -4   9 1041.72   27.47
   2   4  -9 1007.53   22.57
   2   4  -9 1027.36   22.66
  -2  -4   9 1006.76   23.54
  -2  -4   9 1011.08   26.43
  -2  -4   9 1038.16   18.10
  -2  -4   8   36.71    4.97
  -2  -4   8   34.79    4.34
   2   4  -8   42.95    4.63
  -2  -4   8   32.19    4.82
   2   4  -8   36.91    4.06
  -2  -4   8   32.86    3.12
  -2  -4   8   30.16    3.91
   2   4  -7  160.46    8.43
  -2  -4   7  151.03    8.10
  -2  -4   7  148.34    9.23
  -2  -4   7  146.52    9.13
   2   4  -7  158.94    7.91
  -2  -4   7  150.13    8.58
  -2  -4   7  155.30    6.37
  -2  -4   6  117.51    7.73
   2   4  -6  123.93    6.53
  -2  -4   6  130.53    8.07
   2   4  -6  129.05    7.41
  -2  -4   6  128.30    7.74
  -2  -4   6  117.31    5.30
  -2  -4   6  120.08    6.76
  -2  -4   5   93.02    6.45
  -2  -4   5   98.08    5.77
  -2  -4   5   87.34    6.27
   2   4  -5   89.77    5.18
   2   4  -5  102.11    6.34
  -2  -4   5   96.25    6.83
  -2  -4   5   97.35    4.75
  -2  -4   4  472.39   13.54
  -2  -4   4  455.31   14.66
   2   4  -4  479.32   13.38
  -2  -4   4  457.18   11.91
   2   4  -4  450.63   14.55
  -2  -4   4  465.25   14.16
   2   4  -4  473.65   11.07
  -2  -4   3   34.11    4.04
  -2  -4   3   37.27    3.82
   2   4  -3   32.53    3.49
  -2  -4   3   33.23    3.34
   2   4  -3   30.25    3.70
  -2  -4   3   35.22    3.95
   2   4  -3   28.85    2.59
  -2  -4   3   27.72    2.85
  -2  -4   3   27.11    3.00
   2   4  -2 2419.91   28.52
  -2  -4   2 2385.30   26.08
  -2  -4   2 2404.97   26.16
  -2  -4   2 2433.93   26.08
  -2  -4   2 2487.28   30.85
  -2  -4   2 2458.54   34.00
   2   4  -2 2409.45   31.46
  -2  -4   2 2465.20   32.04
   2   4  -2 2437.73   21.72
  -2  -4   2 2518.51   29.17
   2   4  -1    2.77    0.95
  -2  -4   1    4.36    1.12
   2   4  -1    4.68    1.52
  -2  -4   1    5.66    1.18
  -2  -4   1    1.89    0.89
  -2  -4   1    3.72    1.44
  -2  -4   1    4.17    1.57
  -2  -4   1    2.88    1.17
   2   4  -1    3.97    0.94
   2   4   0 1510.90   21.63
   2   4   0 1457.96   22.50
  -2  -4   0 1498.73   25.10
  -2  -4   0 1442.62   24.68
  -2  -4   0 1478.93   17.72
  -2  -4   0 1473.60   22.90
   2   4   0 1452.75   16.29
  -2  -4   0 1458.47   20.78
  -2  -4  -1    8.68    2.13
   2   4   1    8.99    1.78
   2   4   1   11.55    2.03
   2   4   1    8.64    2.07
   2   4   1    9.92    1.48
  -2  -4  -1   12.56    2.59
  -2  -4  -1    9.20    1.35
  -2  -4  -1    7.56    1.73
  -2  -4  -1    7.84    1.84
  -2  -4  -1    6.91    1.96
   2   4   2   17.10    2.28
   2   4   2   15.94    2.23
  -2  -4  -2   13.20    2.28
  -2  -4  -2   19.73    3.20
  -2  -4  -2   14.35    2.80
   2   4   2   18.77    2.92
  -2  -4  -2   15.83    1.81
  -2  -4  -2   15.86    2.66
  -2  -4  -2   14.85    2.73
   2   4   3   74.82    4.76
   2   4   3   79.26    6.49
  -2  -4  -3   87.73    4.43
  -2  -4  -3   75.30    5.61
  -2  -4  -3   91.51    7.00
   2   4   3  100.48    6.83
  -2  -4  -3   70.80    6.25
  -2  -4  -3   87.34    6.32
  -2  -4  -3   83.10    5.96
   2   4   3   87.54    5.00
  -2  -4  -4   -0.05    1.22
  -2  -4  -4    2.07    0.87
  -2  -4  -4   -0.27    0.68
  -2  -4  -4    0.38    1.11
   2   4   4   -0.37    1.25
   2   4   4    0.68    0.71
  -2  -4  -4   -0.96    1.01
   2   4   4    0.25    0.79
   2   4   5   52.28    5.88
  -2  -4  -5   42.59    4.80
  -2  -4  -5   55.66    4.10
  -2  -4  -5   51.12    5.59
  -2  -4  -5   50.38    5.70
   2   4   5   58.50    3.98
  -2  -4  -5   37.76    4.58
   2   4   6  267.78   13.92
  -2  -4  -6  261.35   13.50
  -2  -4  -6  263.99   12.48
  -2  -4  -6  246.80   11.70
  -2  -4  -6  259.77   12.62
   2   4   6  261.60    8.47
   2   4   7  607.07   21.70
  -2  -4  -7  575.19   21.09
   2   4   7  600.68   13.07
  -2  -4  -7  568.23   18.80
  -2  -4  -7  540.44   19.00
  -2  -4  -8   23.05    3.36
   2   4   8   16.42    3.89
  -2  -4  -8   23.17    4.30
   2   4   8   22.09    3.52
  -2  -4  -8   16.74    4.02
  -2  -4  -8   17.51    3.50
  -2  -4  -9   19.21    4.05
   2   4   9   18.50    4.21
  -2  -4  -9   12.25    3.73
  -2  -4  -9   15.11    3.60
  -2  -4 -10  241.19   15.92
   2   4  10  259.17   16.05
  -2  -4 -10  237.14   14.24
   2   4  11   16.29    4.36
  -2  -4 -11   14.81    4.27
  -2  -4 -11   15.43    4.05
   2   4  12  260.73   17.53
  -2  -4 -12  257.43   18.26
  -2  -4 -12  229.22   15.50
   2   4  13   80.65   10.17
  -2  -4 -13   84.98   10.70
  -2  -4 -13   66.46    8.79
   2   4  14  358.33   21.96
  -2  -4 -14  306.85   19.65
  -2  -4 -14  346.66   22.75
  -2  -4 -15    4.96    2.88
   2   5 -18   37.08    6.19
  -2  -5  18   29.57    6.38
  -2  -5  18   37.18    6.78
   2   5 -17    8.99    3.07
  -2  -5  17    8.68    4.34
  -2  -5  17    4.03    2.59
  -2  -5  17   14.49    4.26
   2   5 -17    6.52    2.84
  -2  -5  16   99.39   12.69
   2   5 -16   83.68    9.74
  -2  -5  16   98.82   10.40
  -2  -5  16   90.71   10.28
   2   5 -16   94.89    9.34
   2   5 -15    6.83    3.14
  -2  -5  15    9.83    4.23
  -2  -5  15   11.32    3.81
  -2  -5  15    7.96    3.02
   2   5 -15    9.91    3.30
   2   5 -14   59.43    6.85
  -2  -5  14   67.12    8.07
   2   5 -14   71.59    7.98
  -2  -5  14   60.99    7.63
  -2  -5  14   70.26    9.74
  -2  -5  13   99.42   10.23
  -2  -5  13   91.11   10.59
   2   5 -13  103.51    9.16
  -2  -5  13   93.57    9.07
  -2  -5  13   92.05    8.99
   2   5 -13   95.21    8.40
  -2  -5  12  340.77   18.36
  -2  -5  12  333.75   16.17
   2   5 -12  341.91   15.77
  -2  -5  12  333.16   16.38
  -2  -5  12  339.05   19.25
   2   5 -12  340.81   15.13
   2   5 -11   36.70    4.93
  -2  -5  11   40.51    5.40
  -2  -5  11   39.43    6.09
  -2  -5  11   36.83    6.18
   2   5 -11   41.96    5.34
  -2  -5  11   35.98    5.36
  -2  -5  10  380.84   17.65
  -2  -5  10  394.87   15.82
  -2  -5  10  370.96   16.02
   2   5 -10  405.75   15.42
  -2  -5  10  400.36   18.59
   2   5 -10  423.86   15.96
   2   5  -9   -1.05    1.70
   2   5  -9    0.06    1.03
  -2  -5   9   -0.01    1.08
  -2  -5   9   -0.91    1.67
  -2  -5   9   -1.35    1.33
  -2  -5   9   -0.39    0.82
   2   5  -8   45.79    4.67
  -2  -5   8   52.64    5.99
  -2  -5   8   32.56    4.49
  -2  -5   8   43.05    4.66
  -2  -5   8   46.45    5.43
   2   5  -8   52.61    5.45
  -2  -5   8   43.06    5.47
  -2  -5   8   46.07    3.56
  -2  -5   7   -0.26    0.75
  -2  -5   7   -0.09    0.47
   2   5  -7   -0.30    0.91
  -2  -5   7    0.01    1.15
  -2  -5   7    1.72    1.25
  -2  -5   7   -0.90    1.14
  -2  -5   7    1.57    1.29
   2   5  -7    1.42    1.32
  -2  -5   6   36.88    4.51
   2   5  -6   26.84    3.76
   2   5  -6   36.57    3.77
  -2  -5   6   30.70    3.48
  -2  -5   6   28.90    4.13
  -2  -5   6   35.94    4.49
  -2  -5   6   38.93    4.68
  -2  -5   5  544.83   16.27
  -2  -5   5  543.87   17.19
  -2  -5   5  540.27   13.82
   2   5  -5  565.04   13.87
  -2  -5   5  530.21   15.78
   2   5  -5  554.96   16.16
  -2  -5   5  524.43   17.39
   2   5  -4  245.82   10.55
   2   5  -4  255.01    8.88
   2   5  -4  231.11   11.25
  -2  -5   4  243.39   11.73
  -2  -5   4  244.56    8.96
  -2  -5   4  244.03   10.20
  -2  -5   4  244.31   11.40
   2   5  -3  561.24   15.72
  -2  -5   3  559.01   17.02
  -2  -5   3  592.89   14.79
  -2  -5   3  586.23   14.23
  -2  -5   3  554.99   17.75
   2   5  -3  572.23   16.94
   2   5  -3  558.48   12.55
  -2  -5   3  572.82   13.27
  -2  -5   3  594.92   16.95
   2   5  -2 1176.85   22.40
   2   5  -2 1146.14   23.21
  -2  -5   2 1217.20   19.90
   2   5  -2 1169.62   17.29
  -2  -5   2 1142.71   18.58
  -2  -5   2 1188.81   24.54
  -2  -5   2 1182.56   26.00
  -2  -5   2 1186.49   18.63
  -2  -5   2 1230.10   22.92
  -2  -5   2 1201.98   24.19
   2   5  -1    1.59    1.01
  -2  -5   1   -0.05    0.45
  -2  -5   1    0.86    0.75
   2   5  -1    0.06    0.51
  -2  -5   1    0.39    0.56
  -2  -5   1   -0.36    1.37
  -2  -5   1    0.26    0.99
   2   5  -1    0.51    0.87
  -2  -5   1    0.20    0.92
  -2  -5   1   -0.21    1.20
   2   5   0   34.41    3.78
  -2  -5   0   30.34    4.02
  -2  -5   0   32.37    3.26
  -2  -5   0   36.12    2.81
  -2  -5   0   42.52    5.09
  -2  -5   0   39.93    4.65
   2   5   0   34.46    3.75
   2   5   0   37.60    3.12
  -2  -5   0   37.82    4.16
   2   5   1  145.42    7.61
   2   5   1  147.38    8.32
   2   5   1  161.00    9.22
   2   5   1  144.45    7.31
  -2  -5  -1  155.70    8.91
  -2  -5  -1  148.12    7.26
  -2  -5  -1  162.83    5.57
  -2  -5  -1  135.04    9.06
  -2  -5  -1  158.40    9.53
  -2  -5  -1  165.90    8.82
   2   5   1  150.80    6.52
   2   5   2  661.54   16.20
   2   5   2  713.36   15.68
   2   5   2  662.47   18.76
  -2  -5  -2  713.44   11.42
  -2  -5  -2  703.92   19.23
  -2  -5  -2  718.81   16.83
  -2  -5  -2  703.74   20.99
  -2  -5  -2  668.71   20.09
  -2  -5  -2  680.75   18.37
   2   5   2  730.57   19.91
   2   5   2  679.67   14.37
   2   5   3  305.14   11.06
   2   5   3  313.63   13.54
  -2  -5  -3  309.57    7.77
  -2  -5  -3  328.73   12.09
  -2  -5  -3  295.66   13.83
  -2  -5  -3  331.50   13.32
  -2  -5  -3  333.39   14.64
   2   5   3  312.58   10.06
  -2  -5  -3  305.90   12.62
   2   5   3  314.55   13.27
   2   5   4  623.48   15.80
  -2  -5  -4  703.14   12.43
   2   5   4  694.35   21.23
  -2  -5  -4  676.62   21.58
  -2  -5  -4  693.86   18.65
  -2  -5  -4  706.50   21.63
   2   5   4  683.25   19.92
  -2  -5  -4  671.65   19.55
   2   5   4  706.03   14.54
  -2  -5  -5    2.21    1.34
   2   5   5    5.20    1.28
   2   5   5    6.26    2.30
  -2  -5  -5    6.46    2.09
  -2  -5  -5    3.19    1.68
  -2  -5  -5    3.82    2.08
   2   5   5   10.75    2.71
   2   5   6   57.44    6.79
  -2  -5  -6   59.97    6.69
  -2  -5  -6   64.38    6.44
  -2  -5  -6   66.13    7.43
  -2  -5  -6   62.69    6.47
  -2  -5  -7    4.16    1.98
   2   5   7    5.07    1.97
  -2  -5  -7    8.19    3.18
  -2  -5  -7    4.71    1.90
   2   5   8  233.51   14.74
  -2  -5  -8  220.12   13.45
  -2  -5  -8  229.04   13.44
  -2  -5  -8  225.54   14.92
  -2  -5  -9    3.73    2.63
   2   5   9   -1.11    1.73
  -2  -5  -9    1.98    1.46
  -2  -5  -9   -1.48    2.30
   2   5  10   16.84    4.35
  -2  -5 -10   17.34    4.90
  -2  -5 -10   18.75    4.26
  -2  -5 -11   14.60    4.81
   2   5  11   10.71    3.67
  -2  -5 -11   15.44    4.25
  -2  -5 -12   29.85    6.69
   2   5  12   27.56    5.88
  -2  -5 -12   26.04    5.62
   2   5  13   63.62    9.35
  -2  -5 -13   78.48   10.98
  -2  -5 -13   54.74    8.50
  -2  -5 -14   44.71    8.05
   2   6 -17    1.08    1.73
   2   6 -17   -1.54    1.61
  -2  -6  17    1.93    2.53
  -2  -6  16  105.53   13.35
   2   6 -16   81.44    9.64
  -2  -6  16   87.68   10.05
  -2  -6  16   78.51    9.68
   2   6 -16  102.50    9.88
   2   6 -15   17.80    4.35
  -2  -6  15   12.69    5.07
  -2  -6  15   16.15    4.41
   2   6 -15   13.25    3.75
  -2  -6  15   14.89    3.95
  -2  -6  14   82.83   10.13
  -2  -6  14   78.07   10.50
  -2  -6  14   72.23    8.28
   2   6 -14   83.67    8.50
   2   6 -14   79.99    8.69
  -2  -6  14   70.82    8.72
   2   6 -13   43.59    5.99
  -2  -6  13   41.70    7.36
  -2  -6  13   50.33    7.71
  -2  -6  13   48.49    6.63
  -2  -6  13   46.41    6.40
   2   6 -13   49.79    6.56
  -2  -6  13   46.46    6.85
   2   6 -12   -0.38    1.24
   2   6 -12   -3.95    2.10
  -2  -6  12    0.51    1.48
  -2  -6  12   -0.41    1.74
  -2  -6  12    0.28    1.29
  -2  -6  12    1.09    1.42
  -2  -6  12    0.52    1.29
   2   6 -11   13.36    3.21
   2   6 -11    9.38    2.84
  -2  -6  11    6.33    2.25
  -2  -6  11   10.39    3.32
  -2  -6  11    1.08    1.57
  -2  -6  11    9.45    2.94
  -2  -6  11    7.20    2.68
   2   6 -10    2.24    1.47
   2   6 -10    1.09    1.24
  -2  -6  10    1.69    1.59
  -2  -6  10    2.53    1.85
  -2  -6  10    2.47    1.50
  -2  -6  10    4.65    2.28
  -2  -6  10    2.28    1.51
   2   6  -9   95.18    7.92
  -2  -6   9  114.95    9.68
   2   6  -9  115.87    8.15
  -2  -6   9  109.56    7.71
  -2  -6   9  114.98    9.64
  -2  -6   9  111.33    9.14
  -2  -6   9  105.88    8.90
   2   6  -8   61.30    6.36
  -2  -6   8   47.58    5.98
  -2  -6   8   53.66    6.29
  -2  -6   8   52.97    5.20
  -2  -6   8   52.30    6.09
   2   6  -8   62.24    5.75
  -2  -6   8   60.94    6.68
  -2  -6   7  614.30   20.20
  -2  -6   7  605.40   16.43
  -2  -6   7  614.24   19.94
  -2  -6   7  601.11   20.20
  -2  -6   7  600.65   20.47
   2   6  -7  644.47   19.67
   2   6  -7  660.84   17.67
   2   6  -6    7.75    1.99
  -2  -6   6    8.59    2.42
  -2  -6   6   12.48    3.01
  -2  -6   6    8.16    2.39
  -2  -6   6   11.66    3.16
   2   6  -6   11.36    2.71
  -2  -6   6    4.84    1.59
   2   6  -5   88.19    7.65
  -2  -6   5   77.45    7.35
  -2  -6   5   70.19    6.15
   2   6  -5   79.94    6.80
  -2  -6   5   74.78    6.96
  -2  -6   5   79.14    5.39
   2   6  -5   80.42    5.67
  -2  -6   5   86.30    6.53
   2   6  -4  166.44    9.54
  -2  -6   4  171.65    9.07
  -2  -6   4  173.92   10.85
   2   6  -4  192.36    8.37
   2   6  -4  182.88   10.68
  -2  -6   4  171.70    7.59
  -2  -6   4  162.69   10.09
  -2  -6   3   22.55    3.71
   2   6  -3   16.49    3.05
  -2  -6   3   23.50    3.23
  -2  -6   3   19.08    2.55
   2   6  -3   16.12    3.23
  -2  -6   3   25.22    4.27
  -2  -6   3   19.72    3.36
   2   6  -3   26.14    3.00
  -2  -6   3   19.55    3.49
  -2  -6   3   24.81    3.05
   2   6  -2  114.05    7.72
  -2  -6   2  127.17    6.81
  -2  -6   2  117.54    8.89
  -2  -6   2  130.73    8.79
  -2  -6   2  115.81    8.38
  -2  -6   2  123.73    6.23
  -2  -6   2  122.15    6.04
   2   6  -2  118.02    6.17
  -2  -6   2  122.58    7.98
   2   6  -2  115.68    7.96
   2   6  -1   12.09    2.63
  -2  -6   1   14.69    3.26
   2   6  -1   14.92    2.28
  -2  -6   1   17.74    2.12
  -2  -6   1   14.69    2.28
  -2  -6   1   11.21    2.91
  -2  -6   1   12.76    2.92
   2   6  -1   12.94    2.74
  -2  -6   1   12.45    2.69
  -2  -6   1   13.37    2.09
   2   6   0   67.94    5.85
   2   6   0   70.89    5.77
   2   6   0   64.21    6.42
  -2  -6   0   72.90    4.99
  -2  -6   0   59.43    5.73
   2   6   0   70.50    5.78
  -2  -6   0   73.66    6.70
  -2  -6   0   59.18    6.22
   2   6   0   66.59    4.70
  -2  -6   0   65.53    3.57
  -2  -6   0   72.33    7.22
   2   6   1  151.83    8.75
   2   6   1  143.21    8.74
  -2  -6  -1  137.53    7.23
   2   6   1  154.12    8.20
  -2  -6  -1  143.92   10.23
   2   6   1  153.27    9.96
  -2  -6  -1  122.03    8.35
  -2  -6  -1  150.31    9.51
  -2  -6  -1  144.80    9.96
   2   6   1  136.57    6.87
   2   6   2   63.62    5.66
   2   6   2   71.90    5.33
   2   6   2   54.19    5.62
  -2  -6  -2   56.61    6.46
   2   6   2   62.68    4.91
  -2  -6  -2   57.43    6.64
   2   6   2   67.09    6.63
  -2  -6  -2   67.68    6.42
  -2  -6  -2   72.34    6.71
  -2  -6  -2   64.46    5.21
   2   6   3   50.18    5.03
   2   6   3   43.61    4.02
   2   6   3   50.92    5.87
   2   6   3   44.30    5.53
  -2  -6  -3   38.76    4.42
  -2  -6  -3   45.47    5.99
  -2  -6  -3   44.41    5.90
  -2  -6  -3   52.15    5.78
   2   6   3   40.88    4.17
  -2  -6  -3   41.09    5.14
   2   6   4  136.17    9.82
  -2  -6  -4  143.98    8.82
  -2  -6  -4  128.42   10.20
  -2  -6  -4  133.19   10.24
   2   6   4  125.33    7.84
   2   6   4  129.28    9.34
  -2  -6  -4  126.09    9.23
   2   6   4  138.41    6.81
  -2  -6  -5  280.34   15.61
   2   6   5  271.12   14.65
   2   6   5  272.42   13.79
  -2  -6  -5  277.37   14.96
  -2  -6  -5  303.11   13.61
  -2  -6  -5  276.21   14.03
   2   6   6   26.09    4.63
  -2  -6  -6   22.35    3.91
  -2  -6  -6   20.20    4.77
  -2  -6  -6   19.95    4.24
  -2  -6  -6   19.34    3.83
   2   6   7    5.24    2.65
  -2  -6  -7    2.18    2.15
  -2  -6  -7   -0.15    1.35
  -2  -6  -8   12.15    3.98
   2   6   8   26.89    5.31
  -2  -6  -8   18.99    4.22
  -2  -6  -8   30.60    5.37
   2   6   9   27.84    5.65
  -2  -6  -9   26.60    6.08
  -2  -6  -9   18.59    4.27
   2   6  10  102.21   11.04
  -2  -6 -10   88.83   10.82
  -2  -6 -10   96.66   10.28
   2   6  11    1.24    1.89
  -2  -6 -11    0.26    2.66
  -2  -6 -11    2.54    1.79
   2   6  12  222.67   17.31
  -2  -6 -12  218.73   18.42
  -2  -6 -12  213.79   16.65
  -2  -6 -13   45.91    8.18
   2   7 -16   -0.31    1.53
  -2  -7  16    1.39    1.85
  -2  -7  16    4.41    3.57
   2   7 -15   33.53    6.14
   2   7 -15   38.66    6.19
  -2  -7  15   36.48    7.94
  -2  -7  15   33.13    6.55
   2   7 -14   60.27    7.79
   2   7 -14   52.23    7.13
  -2  -7  14   54.37    8.51
  -2  -7  14   56.13    8.20
  -2  -7  14   51.23    8.87
  -2  -7  13   80.05   10.39
   2   7 -13   84.22    8.68
  -2  -7  13   71.37    8.91
  -2  -7  13   92.47   10.71
   2   7 -13   76.54    8.30
  -2  -7  12   67.46    8.86
   2   7 -12   85.29    8.35
  -2  -7  12   77.14    9.73
  -2  -7  12   72.53    8.69
   2   7 -12   97.07    9.07
  -2  -7  12   78.51    8.61
  -2  -7  11   63.16    8.20
  -2  -7  11   57.24    7.17
  -2  -7  11   58.39    7.94
   2   7 -11   58.42    6.58
  -2  -7  11   59.34    7.64
   2   7 -11   57.05    6.87
   2   7 -10    3.96    2.23
   2   7 -10    3.49    1.88
  -2  -7  10    2.07    1.65
  -2  -7  10    6.33    3.04
  -2  -7  10    6.20    2.69
  -2  -7  10   -0.34    2.02
   2   7  -9   42.30    5.66
  -2  -7   9   57.24    7.07
  -2  -7   9   32.01    5.26
  -2  -7   9   35.30    5.57
   2   7  -9   49.63    5.52
  -2  -7   9   40.51    5.89
   2   7  -8   52.56    6.23
  -2  -7   8   38.45    5.54
  -2  -7   8   45.27    6.17
  -2  -7   8   37.63    5.69
  -2  -7   8   49.27    6.26
   2   7  -8   54.61    5.68
   2   7  -7  380.31   16.23
  -2  -7   7  381.82   17.40
  -2  -7   7  402.71   16.96
  -2  -7   7  389.13   16.29
  -2  -7   7  352.16   16.91
   2   7  -7  410.87   14.74
   2   7  -6   28.78    4.46
  -2  -7   6   32.15    4.73
   2   7  -6   29.07    4.95
   2   7  -6   27.70    3.70
  -2  -7   6   29.15    4.93
  -2  -7   6   24.29    3.89
  -2  -7   6   37.54    5.42
  -2  -7   5  134.44    8.33
  -2  -7   5  141.71    9.13
   2   7  -5  112.91    9.10
  -2  -7   5  131.18   10.30
   2   7  -5  145.34    9.72
  -2  -7   5  126.83    9.70
   2   7  -5  127.94    7.59
   2   7  -4   38.68    5.11
  -2  -7   4   48.16    5.15
  -2  -7   4   49.97    4.75
   2   7  -4   45.43    4.44
  -2  -7   4   47.07    6.21
  -2  -7   4   46.30    6.05
   2   7  -4   47.06    5.72
   2   7  -3   15.86    3.26
  -2  -7   3   18.27    3.97
   2   7  -3   19.74    3.76
   2   7  -3   17.90    2.64
  -2  -7   3   15.64    2.85
  -2  -7   3   22.53    4.18
  -2  -7   3   11.81    2.15
  -2  -7   3   15.39    3.50
  -2  -7   3   20.60    3.81
   2   7  -3   15.05    2.56
   2   7  -2   97.01    7.79
  -2  -7   2   87.35    7.91
  -2  -7   2   94.06    6.23
   2   7  -2   91.64    6.19
  -2  -7   2  101.02    8.97
  -2  -7   2   95.29    5.55
  -2  -7   2   89.39    7.43
   2   7  -2   94.87    6.14
  -2  -7   2   93.49    8.26
   2   7  -2   86.84    7.33
   2   7  -1  104.46    7.99
  -2  -7   1  107.37    6.08
   2   7  -1  105.72    7.00
   2   7  -1  100.08    7.58
  -2  -7   1  106.42    6.00
  -2  -7   1  115.20    9.59
   2   7  -1  110.30    6.61
  -2  -7   1   96.07    8.50
  -2  -7   1  107.11    8.24
  -2  -7   1  111.95    8.82
   2   7   0  614.39   19.14
   2   7   0  588.12   17.60
   2   7   0  546.40   20.20
  -2  -7   0  595.21   14.67
  -2  -7   0  572.90   21.50
   2   7   0  587.81   15.26
  -2  -7   0  568.38   20.97
   2   7   0  608.38   18.08
  -2  -7   0  592.18   20.40
  -2  -7   0  621.51   20.24
  -2  -7  -1  550.21   20.97
   2   7   1  547.17   18.01
   2   7   1  523.73   17.56
   2   7   1  548.61   16.33
  -2  -7  -1  540.47   21.27
   2   7   1  542.67   15.08
  -2  -7  -1  544.61   19.48
   2   7   1  514.71   19.70
  -2  -7  -1  540.82   19.28
  -2  -7  -1  555.42   15.04
   2   7   2 1367.86   28.50
  -2  -7  -2 1346.60   24.49
   2   7   2 1370.18   24.56
   2   7   2 1297.80   28.92
   2   7   2 1327.36   31.86
  -2  -7  -2 1284.19   33.10
  -2  -7  -2 1337.73   30.75
  -2  -7  -2 1339.52   33.59
  -2  -7  -2 1285.85   30.38
   2   7   3  243.53   11.99
   2   7   3  254.76   13.47
   2   7   3  254.79   14.07
  -2  -7  -3  283.53   12.05
  -2  -7  -3  260.75   13.74
  -2  -7  -3  234.08   14.42
  -2  -7  -3  268.51   15.35
  -2  -7  -3  267.35   14.17
   2   7   4   98.63    8.93
  -2  -7  -4   87.27    8.34
  -2  -7  -4  108.38    7.87
  -2  -7  -4   93.73    9.28
   2   7   4   94.15    8.62
  -2  -7  -4   90.45    9.30
   2   7   5    2.96    1.99
   2   7   5    2.93    1.67
  -2  -7  -5    2.77    1.48
  -2  -7  -5    2.08    2.20
  -2  -7  -5    0.29    1.48
  -2  -7  -5    1.97    1.36
   2   7   6    5.36    2.25
  -2  -7  -6    2.33    1.69
   2   7   6    3.23    2.19
  -2  -7  -6    6.48    2.49
  -2  -7  -6    3.72    2.45
  -2  -7  -6    2.58    1.77
   2   7   7  131.49   11.52
  -2  -7  -7  137.73   12.82
  -2  -7  -7  136.05   10.45
  -2  -7  -7  140.47   11.60
  -2  -7  -8   47.59    7.79
   2   7   8   47.62    7.18
  -2  -7  -8   54.51    7.56
   2   7   9  142.17   12.88
  -2  -7  -9  135.66   12.39
  -2  -7  -9  165.55   15.04
  -2  -7 -10   -2.06    2.99
  -2  -7 -10   -2.22    2.77
   2   7  10   -1.07    2.31
  -2  -7 -11   -1.03    3.40
  -2  -7 -11    0.24    1.97
  -2  -7 -12   22.73    5.65
   2   8 -15   17.67    4.75
   2   8 -15   15.66    4.19
  -2  -8  15   29.39    7.15
  -2  -8  15   22.22    5.36
   2   8 -14   29.63    5.61
   2   8 -14   19.73    4.64
  -2  -8  14   22.59    5.84
  -2  -8  14   30.54    6.69
  -2  -8  14   34.75    6.84
  -2  -8  13   49.54    8.41
   2   8 -13   64.67    7.90
   2   8 -13   71.99    8.52
  -2  -8  13   56.81    8.49
  -2  -8  13   65.44    9.27
   2   8 -12    0.07    1.53
   2   8 -12    1.61    1.62
  -2  -8  12    0.73    1.62
  -2  -8  12   -0.33    2.33
  -2  -8  12   -2.01    2.19
   2   8 -11   -0.32    1.58
   2   8 -11   -4.01    2.05
  -2  -8  11   -0.72    1.85
  -2  -8  11   -1.22    1.94
  -2  -8  11   -0.69    1.60
  -2  -8  11   -0.54    1.61
  -2  -8  10   73.58    8.78
  -2  -8  10   47.58    7.17
   2   8 -10   54.90    7.06
  -2  -8  10   62.84    8.21
  -2  -8  10   45.09    6.86
   2   8 -10   59.87    6.66
   2   8  -9  271.54   15.08
  -2  -8   9  319.32   17.33
  -2  -8   9  299.50   16.45
  -2  -8   9  264.62   15.99
   2   8  -9  300.40   14.40
  -2  -8   9  292.77   16.90
   2   8  -8    7.51    2.32
   2   8  -8    9.75    2.70
  -2  -8   8    9.16    3.08
  -2  -8   8   10.21    2.98
  -2  -8   8   12.50    3.46
  -2  -8   8    6.66    2.71
   2   8  -8    8.67    3.01
   2   8  -7  268.55   14.69
  -2  -8   7  229.28   13.51
  -2  -8   7  231.26   14.56
   2   8  -7  263.33   12.49
   2   8  -7  225.58   14.56
  -2  -8   7  248.06   13.27
  -2  -8   7  250.02   15.20
   2   8  -6    9.00    2.44
   2   8  -6    4.72    2.35
  -2  -8   6   11.90    2.88
   2   8  -6    8.71    2.78
  -2  -8   6    7.83    3.22
  -2  -8   6    9.39    3.25
   2   8  -5    7.09    2.57
   2   8  -5    7.42    2.13
  -2  -8   5    7.81    2.35
   2   8  -5   10.47    3.30
  -2  -8   5    9.55    3.23
  -2  -8   5    5.48    2.43
   2   8  -4   -1.14    1.87
   2   8  -4    2.01    1.39
   2   8  -4    1.84    1.55
  -2  -8   4    0.85    1.04
  -2  -8   4   -0.65    1.87
  -2  -8   4    2.28    1.94
  -2  -8   3  232.44   11.03
   2   8  -3  225.24   12.84
  -2  -8   3  223.51   13.57
  -2  -8   3  229.33   14.47
   2   8  -3  217.63   12.52
  -2  -8   3  227.47   13.78
   2   8  -3  239.32   10.63
  -2  -8   3  228.93   12.92
   2   8  -2   21.57    4.10
  -2  -8   2   17.36    3.64
  -2  -8   2   12.09    3.36
   2   8  -2   16.48    3.43
  -2  -8   2   18.79    4.06
  -2  -8   2   14.46    3.59
   2   8  -1    6.21    2.38
   2   8  -1    5.32    2.12
  -2  -8   1    1.53    2.15
  -2  -8   1    6.10    2.45
  -2  -8   1    0.92    1.25
  -2  -8   1    3.75    2.15
   2   8   0    5.09    2.20
   2   8   0    2.89    2.33
  -2  -8   0    4.76    2.14
  -2  -8   0   -0.39    2.20
   2   8   0    2.65    1.55
  -2  -8   0    1.99    1.85
  -2  -8   0    2.55    1.97
   2   8   0    2.82    1.64
   2   8   1   70.87    7.06
   2   8   1   74.02    6.85
   2   8   1   68.14    6.12
  -2  -8  -1   74.49    8.49
   2   8   1   64.80    7.69
  -2  -8  -1   62.08    7.80
  -2  -8  -1   63.70    7.22
  -2  -8  -1   60.00    7.07
   2   8   2    1.94    1.49
  -2  -8  -2    3.86    2.44
  -2  -8  -2    2.62    1.85
   2   8   2    2.56    1.82
  -2  -8  -2    4.11    2.51
  -2  -8  -2    4.38    2.04
   2   8   2   -0.70    1.51
   2   8   3  417.45   19.36
  -2  -8  -3  431.33   18.92
   2   8   3  411.53   17.70
  -2  -8  -3  411.78   20.45
  -2  -8  -3  431.59   19.53
  -2  -8  -3  388.36   19.98
   2   8   4   78.81    8.14
   2   8   4   62.26    7.51
  -2  -8  -4   78.35    9.11
  -2  -8  -4   64.99    8.47
  -2  -8  -4   71.48    8.06
   2   8   5    3.16    2.16
   2   8   5    0.67    1.24
  -2  -8  -5    0.20    1.48
  -2  -8  -5   -1.18    2.20
  -2  -8  -5    0.42    1.46
   2   8   6    0.03    1.95
  -2  -8  -6    5.04    3.04
   2   8   6    7.73    3.16
  -2  -8  -6   -0.39    2.37
  -2  -8  -6    7.47    3.08
   2   8   7   -0.43    1.50
  -2  -8  -7    1.16    2.33
  -2  -8  -7   -5.23    2.58
   2   8   8   37.86    6.57
  -2  -8  -8   32.74    7.03
  -2  -8  -8   28.89    6.05
   2   8   9   36.78    6.93
  -2  -8  -9   48.62    8.85
  -2  -8  -9   34.12    6.80
   2   8  10   74.70   10.07
  -2  -8 -10   89.10   12.17
  -2  -8 -10   78.22   10.32
  -2  -8 -11    4.49    2.89
   2   9 -15   -0.13    1.37
  -2  -9  15    4.51    3.35
   2   9 -14   17.32    4.33
   2   9 -14    7.89    3.13
  -2  -9  14   10.66    4.00
   2   9 -14   19.63    5.78
  -2  -9  14   16.77    5.29
  -2  -9  14   10.20    3.57
  -2  -9  13   59.27    9.09
  -2  -9  13   44.22    8.09
   2   9 -13   41.88    8.05
   2   9 -13   50.76    7.13
  -2  -9  13   61.12    9.25
   2   9 -13   59.98    8.03
   2   9 -12    4.71    2.30
   2   9 -12    2.27    1.94
  -2  -9  12    4.05    1.84
  -2  -9  12    4.82    2.91
  -2  -9  12    3.01    2.74
   2   9 -12    1.53    2.52
   2   9 -11    4.12    2.07
   2   9 -11    7.26    2.68
  -2  -9  11    4.11    2.74
  -2  -9  11    8.45    3.67
  -2  -9  11    7.03    3.53
  -2  -9  11    1.96    2.14
   2   9 -11    3.19    2.14
   2   9 -10   50.23    7.06
  -2  -9  10   45.00    7.20
   2   9 -10   42.90    7.35
  -2  -9  10   54.39    7.75
   2   9 -10   46.94    6.17
  -2  -9  10   50.19    7.81
   2   9  -9   32.28    6.38
   2   9  -9   57.59    7.48
  -2  -9   9   38.25    6.51
  -2  -9   9   38.08    6.53
   2   9  -9   45.79    5.97
  -2  -9   9   41.03    6.89
   2   9  -8   38.56    6.11
   2   9  -8   28.27    4.49
  -2  -9   8   31.78    5.59
  -2  -9   8   21.50    4.91
  -2  -9   8   32.49    6.07
   2   9  -8   34.39    6.45
   2   9  -7  171.08   12.51
  -2  -9   7  180.85   12.65
   2   9  -7  165.45   13.02
  -2  -9   7  147.82   12.46
  -2  -9   7  159.54   12.91
   2   9  -7  159.74   10.17
  -2  -9   6   70.94    7.69
  -2  -9   6   60.40    8.00
   2   9  -6   49.05    7.10
   2   9  -6   61.75    7.48
  -2  -9   6   62.44    8.03
  -2  -9   5   93.47    8.34
   2   9  -5   95.75    9.14
   2   9  -5   86.23    9.05
  -2  -9   5   82.72    9.07
  -2  -9   5   75.91    8.94
   2   9  -4   32.20    5.34
  -2  -9   4   23.16    5.07
   2   9  -4   30.87    5.27
  -2  -9   4   25.15    5.30
   2   9  -3   54.67    6.78
  -2  -9   3   71.38    8.00
   2   9  -3   69.18    7.51
  -2  -9   3   65.26    8.42
  -2  -9   3   58.08    7.56
  -2  -9   3   63.92    8.04
   2   9  -2  100.36    9.17
   2   9  -2  102.64    8.74
  -2  -9   2  105.50    9.99
  -2  -9   2   90.68    9.53
  -2  -9   2  103.76    9.43
  -2  -9   2  106.56   10.57
  -2  -9   1  105.85    9.62
   2   9  -1  102.84    8.56
   2   9  -1  104.36   10.32
  -2  -9   1   97.68   10.05
  -2  -9   1  107.88   10.68
   2   9  -1  102.66    9.22
  -2  -9   1  106.00   10.00
   2   9   0  213.67   14.70
   2   9   0  210.55   12.94
  -2  -9   0  201.76   14.77
  -2  -9   0  201.04   13.67
  -2  -9   0  189.18   14.21
  -2  -9   0  201.91   13.47
   2   9   1  177.59   11.93
  -2  -9  -1  150.87   12.82
   2   9   1  161.42   12.80
  -2  -9  -1  170.27   12.60
  -2  -9  -1  155.13   12.95
  -2  -9  -1  176.77   12.95
  -2  -9  -2   16.30    4.63
  -2  -9  -2   10.09    3.63
   2   9   2    8.27    3.16
  -2  -9  -2    7.58    2.97
  -2  -9  -2   15.72    3.91
   2   9   3    1.09    1.42
   2   9   3    0.54    1.45
  -2  -9  -3    2.27    2.06
  -2  -9  -3    3.56    2.52
  -2  -9  -3   -4.29    2.56
  -2  -9  -3   -1.23    1.91
   2   9   4   13.67    3.53
  -2  -9  -4   11.10    4.07
   2   9   4   14.07    3.91
  -2  -9  -4   23.80    5.59
  -2  -9  -4   16.22    4.32
   2   9   5   29.35    5.38
   2   9   5   25.63    5.44
  -2  -9  -5   29.64    6.14
  -2  -9  -5   22.32    5.12
  -2  -9  -5   24.98    5.82
   2   9   6   23.51    5.08
   2   9   6   22.87    5.26
  -2  -9  -6   20.77    4.92
  -2  -9  -6   22.01    5.85
   2   9   7   28.91    5.83
  -2  -9  -7   16.20    5.17
  -2  -9  -7   19.21    4.85
  -2  -9  -8   37.32    7.20
   2   9   8   29.34    6.15
  -2  -9  -8   33.61    7.63
   2   9   9   16.50    4.71
  -2  -9  -9   15.12    4.80
  -2 -10  13   51.16    8.94
   2  10 -12   49.39    7.62
   2  10 -12   58.15    9.60
  -2 -10  12   57.19    8.92
  -2 -10  12   51.57    8.76
   2  10 -11  318.89   18.90
  -2 -10  11  269.98   18.82
   2  10 -11  244.74   18.83
  -2 -10  11  274.93   19.26
  -2 -10  10    2.05    2.25
   2  10 -10    2.97    2.73
  -2 -10  10   -0.26    2.40
  -2 -10  10   -4.61    2.79
   2  10 -10    0.31    1.76
  -2 -10   9  605.66   26.78
   2  10  -9  616.91   28.36
   2  10  -9  694.15   26.92
  -2 -10   9  618.51   27.83
  -2 -10   9  623.66   26.32
   2  10  -8   12.91    3.82
  -2 -10   8   10.91    4.08
  -2 -10   8   16.08    4.37
   2  10  -8   12.38    4.38
  -2 -10   8    4.11    2.75
   2  10  -7   60.12    7.91
  -2 -10   7   67.89    8.20
  -2 -10   7   48.43    7.55
  -2 -10   7   54.91    8.17
   2  10  -7   44.91    7.41
   2  10  -6   20.08    4.65
   2  10  -6   21.86    4.92
  -2 -10   6   15.28    4.58
  -2 -10   6   26.00    5.61
   2  10  -5   60.31    7.76
  -2 -10   5   50.31    7.77
  -2 -10   5   61.43    8.44
   2  10  -5   46.90    6.94
   2  10  -4  171.03   12.78
  -2 -10   4  190.77   14.98
  -2 -10   4  176.39   13.88
   2  10  -4  179.96   13.13
   2  10  -3    3.20    2.00
   2  10  -3   -0.94    1.99
  -2 -10   3   -1.54    2.76
  -2 -10   3    4.06    2.36
   2  10  -2  184.33   14.43
  -2 -10   2  193.95   15.10
  -2 -10   2  203.10   15.22
  -2 -10   2  172.49   13.16
  -2 -10   2  184.69   14.10
   2  10  -2  189.13   13.38
   2  10  -1    1.14    1.67
   2  10  -1    2.28    2.42
  -2 -10   1    4.17    2.20
  -2 -10   1    4.42    2.92
  -2 -10   1    0.05    1.65
   2  10   0   20.15    4.45
  -2 -10   0   13.52    3.91
   2  10   0   14.07    3.83
  -2 -10   0   12.44    4.29
  -2 -10   0   14.39    4.02
  -2 -10   0   16.93    4.81
  -2 -10  -1   31.97    5.97
  -2 -10  -1   45.34    7.64
  -2 -10  -1   37.28    6.96
   2  10   1   41.44    7.02
  -2 -10  -1   35.16    6.37
   2  10   2   53.45    8.06
  -2 -10  -2   55.53    8.51
  -2 -10  -2   64.42    8.48
  -2 -10  -2   53.39    8.45
  -2 -10  -2   54.47    7.98
  -2 -10  -3  212.32   17.02
   2  10   3  235.32   16.62
  -2 -10  -3  242.33   17.62
  -2 -10  -3  232.95   15.95
  -2 -10  -3  216.10   15.89
   2  10   4   -5.26    2.84
  -2 -10  -4    0.11    2.30
  -2 -10  -4    0.28    1.96
  -2 -10  -4   -1.55    2.33
  -2 -10  -5   20.53    5.36
  -2 -10  -5   25.20    5.96
   2  10   5   22.32    5.41
  -2 -10  -5   20.46    5.17
  -2 -10  -6    3.34    2.66
  -2 -10  -6    9.60    3.85
  -2 -10  -7    9.61    4.01
  -2 -11  11   21.83    5.65
   2  11 -10   13.51    4.13
  -2 -11  10   21.03    5.16
   2  11 -10   19.59    5.64
   2  11  -9    5.13    2.51
   2  11  -9    1.30    1.74
  -2 -11   9    3.86    2.15
  -2 -11   9    1.19    1.94
   2  11  -8  157.16   13.60
  -2 -11   8  147.32   14.21
   2  11  -8  121.98   12.63
  -2 -11   8  136.56   13.48
   2  11  -7    0.68    1.72
  -2 -11   7   -1.26    2.85
  -2 -11   7    1.31    2.59
   2  11  -7   -0.89    2.33
   2  11  -6    2.84    2.08
   2  11  -6    0.97    1.65
  -2 -11   6   -0.30    2.04
  -2 -11   6    2.55    2.20
   2  11  -5   35.29    6.32
   2  11  -5   33.03    6.11
  -2 -11   5   38.60    7.09
  -2 -11   5   41.70    7.70
   2  11  -4    4.39    2.46
   2  11  -4    8.39    3.06
  -2 -11   4   13.26    4.43
  -2 -11   4    7.06    3.31
   2  11  -3    5.34    2.70
   2  11  -3    8.30    3.56
  -2 -11   3    5.29    3.06
  -2 -11   3   11.53    4.01
   2  11  -2  158.74   12.92
  -2 -11   2  133.49   13.36
   2  11  -2  150.01   13.95
  -2 -11   2  141.76   12.93
  -2 -11   2  140.97   13.21
  -2 -11   2  172.00   15.26
   2  11  -1   66.58    8.25
  -2 -11   1   78.34    9.73
  -2 -11   1   81.45   10.51
   2  11  -1   74.94    9.94
  -2 -11   1   85.60   10.83
  -2 -11   1   73.86    9.52
   2  11   0  110.39   11.91
  -2 -11   0  133.56   13.35
  -2 -11   0  121.59   12.13
  -2 -11   0   98.19   11.99
  -2 -11   0  110.78   11.51
   2  11   1   31.53    6.55
  -2 -11  -1   35.60    7.31
  -2 -11  -1   28.23    6.07
  -2 -11  -1   34.76    7.12
  -2 -11  -1   25.55    5.71
  -2 -11  -2   18.70    5.46
  -2 -11  -2   18.22    5.03
  -2 -11  -2   11.61    3.91
  -2 -11  -2   16.07    4.71
   2  11   2   13.10    4.50
   2  11   3   43.42    7.68
  -2 -11  -3   43.99    7.78
  -2 -11  -3   59.80    8.60
  -2 -11  -3   49.56    8.57
  -2 -11  -3   52.62    8.86
  -2 -11  -4    5.94    3.30
  -2 -11  -5    9.58    3.91
   2  12  -8   -1.43    2.50
   2  12  -7   34.57    6.78
  -2 -12   7   47.11    8.38
   2  12  -6  109.66   11.65
  -2 -12   6   88.79   11.29
   2  12  -5    0.32    1.64
  -2 -12   5    1.02    2.06
  -2 -12   5    2.63    1.94
  -2 -12   4   40.81    7.96
   2  12  -4   47.82    7.68
  -2 -12   4   64.95    9.59
   2  12  -3    6.45    2.90
  -2 -12   3    4.22    2.18
  -2 -12   3   10.52    4.63
   2  12  -2    6.16    2.71
  -2 -12   2   11.77    4.24
  -2 -12   2    5.32    2.81
  -2 -12   1    2.12    2.33
  -2 -12   1   -2.44    2.62
  -2 -12   1    0.49    2.17
  -2 -12   1    4.88    2.92
  -2 -12   0   38.99    7.27
  -2 -12   0   33.11    6.75
  -3  13   0   54.49    8.55
  -3  13  -1   15.38    4.37
  -3  13  -2    1.15    2.38
  -3  13  -3  139.58   13.54
  -3  13  -4   17.56    5.24
  -3  12   4   20.37    4.94
  -3  12   4   13.43    4.62
  -3  12   3   56.58    9.19
  -3  12   3   48.74    7.84
  -3  12   3   48.18    7.92
   3 -12  -3   75.26   10.81
   3 -12  -3   58.40    9.31
  -3  12   2   26.71    6.36
  -3  12   2   24.67    5.36
   3 -12  -2   29.13    6.76
  -3  12   2   24.48    5.68
   3 -12  -2   26.84    6.03
  -3  12   1    0.47    1.71
  -3  12   1    0.31    2.42
   3 -12  -1   -1.20    2.15
  -3  12   1   -2.54    1.81
   3 -12  -1   -4.74    3.65
  -3  12   0    0.88    1.92
  -3  12   0    1.33    2.13
  -3  12   0    6.41    2.93
   3 -12   0    2.13    2.36
  -3  12  -1   26.47    5.75
  -3  12  -1   25.26    5.58
   3 -12   1   31.96    6.49
  -3  12  -1   38.66    7.55
  -3  12  -2    5.82    3.08
  -3  12  -2    3.28    2.55
  -3  12  -2    2.32    1.75
   3 -12   2   -0.27    2.04
  -3  12  -3   52.87    9.16
  -3  12  -3   37.28    6.61
  -3  12  -3   39.98    7.17
   3 -12   3   45.43    7.75
  -3  12  -4   10.59    4.17
  -3  12  -4    7.80    3.21
  -3  12  -5   -1.36    2.74
  -3  12  -5   -1.60    1.80
   3 -12   5   -0.79    1.47
   3 -12   5   -1.20    1.87
  -3  12  -6   11.77    4.16
   3 -12   6   14.93    4.45
  -3  12  -6   14.44    4.34
   3 -12   6    7.93    3.55
  -3  12  -7   -2.03    3.52
   3 -12   7    5.84    3.35
   3 -12   7   -1.87    1.86
  -3  12  -7    2.95    2.39
   3 -12   8   69.17    9.69
  -3  12  -8   82.07   10.34
   3 -12   8   78.60   10.34
   3 -12   9    4.22    3.03
   3 -12   9    8.53    3.45
  -3  11   7    9.48    3.56
   3 -11  -7    6.03    3.45
   3 -11  -6    0.55    1.06
   3 -11  -6    2.98    2.44
  -3  11   6    1.13    2.09
  -3  11   5    3.20    1.86
  -3  11   5    6.29    3.09
   3 -11  -5    4.60    3.56
   3 -11  -5    4.99    2.41
  -3  11   4  153.03   13.02
  -3  11   4  132.70   12.66
   3 -11  -4  166.79   15.18
   3 -11  -4  153.03   14.34
  -3  11   3   -0.55    2.36
   3 -11  -3    4.35    3.03
  -3  11   3    0.78    1.56
   3 -11  -3   -0.51    1.36
  -3  11   2  105.09   10.73
  -3  11   2  110.25   11.50
   3 -11  -2  129.88   13.01
   3 -11  -2  105.22   11.60
  -3  11   1    1.60    1.65
  -3  11   1    0.85    1.45
  -3  11   1    2.58    2.31
   3 -11  -1   -0.57    2.08
   3 -11  -1    0.26    1.46
  -3  11   0   18.39    5.26
  -3  11   0   20.51    4.94
   3 -11   0   13.96    4.29
  -3  11   0   30.06    6.05
   3 -11   0   17.22    4.71
  -3  11  -1   51.59    8.34
  -3  11  -1   36.42    6.49
  -3  11  -1   47.13    7.37
   3 -11   1   57.02    8.06
  -3  11  -2    1.35    1.85
  -3  11  -2   -0.56    1.56
  -3  11  -2    2.00    2.64
   3 -11   2    4.21    2.84
  -3  11  -3  280.58   19.40
   3 -11   3  298.54   16.78
  -3  11  -3  273.83   17.59
   3 -11   3  289.66   17.97
   3 -11   3  259.67   15.82
  -3  11  -4   37.61    7.26
   3 -11   4   44.01    6.87
  -3  11  -4   47.01    7.35
   3 -11   4   36.80    6.32
  -3  11  -5  345.90   21.29
   3 -11   5  303.23   18.16
   3 -11   5  342.91   19.02
  -3  11  -5  330.88   19.39
  -3  11  -6   60.95    9.21
   3 -11   6   51.23    7.69
  -3  11  -6   58.14    8.21
   3 -11   6   51.76    7.72
  -3  11  -7    0.04    2.09
   3 -11   7   -5.57    2.90
   3 -11   7    0.74    1.98
  -3  11  -7    2.42    2.08
  -3  11  -8   51.79    8.27
  -3  11  -8   53.75    8.02
   3 -11   8   43.07    7.29
   3 -11   8   49.34    8.04
  -3  11  -9    0.22    1.37
   3 -11   9   -0.67    2.07
   3 -11   9    2.41    2.09
  -3  11  -9   -1.25    2.08
   3 -11  10   34.94    7.13
  -3  11 -10   43.18    7.44
  -3  11 -10   51.79    8.01
   3 -11  10   40.59    7.26
  -3  11 -11    2.66    2.85
   3 -11  11   -1.38    1.94
  -3  10   9   51.96    7.54
   3 -10  -9   51.71    9.09
  -3  10   8   51.01    8.08
   3 -10  -8   69.86   10.27
   3 -10  -8   64.81    9.71
   3 -10  -7  182.91   16.01
   3 -10  -7  190.27   16.06
  -3  10   7  164.17   14.06
   3 -10  -6   33.59    6.77
  -3  10   6   28.50    5.95
   3 -10  -6   27.45    6.62
   3 -10  -5  145.83   13.90
  -3  10   5  179.35   13.35
   3 -10  -5  192.75   15.51
  -3  10   5  143.51   12.65
  -3  10   4   20.10    4.60
  -3  10   4   26.15    5.62
   3 -10  -4   26.03    5.95
   3 -10  -4   21.35    5.03
   3 -10  -3   39.12    7.02
  -3  10   3   26.55    5.23
  -3  10   3   23.02    5.20
   3 -10  -3   29.06    5.91
  -3  10   2  106.23   10.11
   3 -10  -2  116.13   11.48
   3 -10  -2  122.25   11.48
  -3  10   2  118.16   11.11
  -3  10   1   11.84    3.68
  -3  10   1   13.74    3.88
   3 -10  -1   19.88    4.83
   3 -10  -1   15.72    4.25
  -3  10   0  256.15   15.66
   3 -10   0  257.45   16.23
   3 -10   0  270.62   17.11
  -3  10   0  283.01   17.11
   3 -10   0  275.28   14.52
  -3  10  -1    2.14    2.29
  -3  10  -1    0.19    1.56
   3 -10   1   -0.87    1.64
   3 -10   1    2.64    1.80
  -3  10  -1   -0.39    1.47
   3 -10   1    5.18    3.09
  -3  10  -2  436.99   22.79
   3 -10   2  493.28   20.32
   3 -10   2  512.86   20.20
   3 -10   2  513.31   22.19
  -3  10  -2  487.20   22.09
  -3  10  -3   89.32   10.39
   3 -10   3   90.58    8.99
  -3  10  -3   96.10    9.86
   3 -10   3  110.33   10.38
   3 -10   3   99.23    9.16
  -3  10  -4   59.11    8.53
   3 -10   4   55.33    7.27
   3 -10   4   58.02    7.26
  -3  10  -4   50.74    7.20
  -3  10  -5   26.41    5.60
   3 -10   5   30.18    5.57
  -3  10  -5   24.94    5.20
   3 -10   5   25.10    4.98
  -3  10  -6   37.96    6.66
   3 -10   6   37.06    6.27
   3 -10   6   40.48    6.29
  -3  10  -6   44.16    6.82
   3 -10   7   77.14    9.36
  -3  10  -7   80.81    9.31
   3 -10   7   78.23    8.86
  -3  10  -7   76.28    9.42
  -3  10  -8    8.79    3.30
  -3  10  -8   13.01    4.13
   3 -10   8    5.23    2.27
   3 -10   8    3.38    2.16
  -3  10  -9  113.13   11.57
   3 -10   9  116.39   11.87
   3 -10   9  119.84   11.61
  -3  10  -9  134.16   12.29
  -3  10 -10   11.90    4.11
  -3  10 -10    5.62    2.97
   3 -10  10   12.15    3.96
   3 -10  10   11.28    4.00
  -3  10 -11   56.84    8.31
   3 -10  11   57.54    9.01
   3 -10  11   51.25    8.10
  -3  10 -11   63.12    8.77
  -3  10 -12    0.31    1.54
   3 -10  12   -0.33    2.44
   3 -10  12    3.09    3.03
  -3  10 -13   38.14    6.81
   3 -10  13   49.75    8.95
  -3   9  11   -0.12    2.00
   3  -9 -11    2.26    2.90
  -3   9  10   54.82    7.76
   3  -9 -10   35.17    7.26
   3  -9 -10   51.75    8.88
   3  -9  -9    4.02    2.68
   3  -9  -9    4.27    3.22
  -3   9   9    2.77    2.05
  -3   9   8   68.83    8.03
   3  -9  -8   63.14    9.16
   3  -9  -8   58.84    8.73
  -3   9   7    0.97    1.63
   3  -9  -7   -1.23    2.53
   3  -9  -7   -0.48    1.73
   3  -9  -6    0.44    1.71
  -3   9   6   -0.45    1.07
   3  -9  -6    3.75    2.31
  -3   9   5    1.14    1.04
  -3   9   5    0.39    1.53
  -3   9   5   -3.68    2.09
   3  -9  -5    1.50    1.85
   3  -9  -5   -0.50    1.87
  -3   9   4    5.74    2.75
  -3   9   4    6.58    2.21
  -3   9   4   -0.26    1.53
   3  -9  -4    2.25    2.10
   3  -9  -4    3.19    2.35
   3  -9  -3   57.16    7.80
   3  -9  -3   57.50    7.80
  -3   9   3   52.04    7.16
  -3   9   3   49.15    6.50
   3  -9  -2   11.41    3.36
   3  -9  -2   12.18    2.91
  -3   9   2   13.96    3.74
  -3   9   2   10.11    3.08
   3  -9  -2   15.35    3.98
  -3   9   1   35.42    5.56
   3  -9  -1   30.64    4.68
  -3   9   1   35.14    5.88
   3  -9  -1   33.92    4.56
   3  -9  -1   26.26    5.12
   3  -9  -1   27.74    5.15
   3  -9   0   37.34    4.91
  -3   9   0   34.53    5.53
  -3   9   0   36.88    5.98
   3  -9   0   36.88    5.17
   3  -9   0   38.94    6.04
   3  -9   0   43.59    6.31
  -3   9  -1  284.55   15.32
   3  -9   1  310.80   14.36
   3  -9   1  312.00   15.05
   3  -9   1  312.57   16.29
  -3   9  -1  309.95   16.73
   3  -9   2   16.81    3.65
  -3   9  -2   14.45    3.76
  -3   9  -2   10.95    3.66
   3  -9   2   17.02    3.63
   3  -9   2   20.60    4.46
  -3   9  -3  988.04   32.28
   3  -9   3  925.71   27.21
  -3   9  -3 1038.19   30.30
   3  -9   3 1053.78   25.07
   3  -9   3  984.83   26.83
   3  -9   3  993.01   28.63
  -3   9  -4   27.58    5.12
  -3   9  -4   13.11    4.02
   3  -9   4   20.89    4.40
   3  -9   4   21.51    4.15
  -3   9  -5   23.58    5.03
   3  -9   5   39.48    6.10
  -3   9  -5   36.20    5.81
   3  -9   5   29.58    5.02
   3  -9   6    4.49    2.36
  -3   9  -6    9.04    3.31
  -3   9  -6   14.50    4.11
   3  -9   6    8.25    2.77
  -3   9  -7   -0.26    1.22
  -3   9  -7    1.20    1.89
   3  -9   7   -0.70    1.46
   3  -9   7    0.50    1.15
   3  -9   7    0.75    1.64
  -3   9  -8  118.80   11.06
   3  -9   8  134.46   11.99
   3  -9   8  118.72   10.95
   3  -9   8  120.61   10.61
  -3   9  -8  140.84   11.72
  -3   9  -9   47.94    7.14
   3  -9   9   56.13    8.13
   3  -9   9   39.61    6.91
   3  -9   9   47.75    6.96
  -3   9  -9   47.10    7.10
  -3   9 -10  135.25   11.79
   3  -9  10  148.23   13.39
  -3   9 -10  147.16   12.52
   3  -9  10  142.33   13.29
   3  -9  10  131.27   11.90
  -3   9 -11    3.73    2.38
  -3   9 -11    0.95    1.72
   3  -9  11    0.55    1.83
   3  -9  11    5.89    3.15
   3  -9  11   -0.59    1.22
   3  -9  12   26.94    6.52
  -3   9 -12   27.73    5.53
  -3   9 -12   33.79    6.21
   3  -9  12   31.21    6.31
   3  -9  12   26.83    6.04
  -3   9 -13   40.58    6.64
  -3   9 -13   53.21    8.16
   3  -9  13   39.58    7.98
   3  -9  13   44.39    8.27
   3  -9  13   52.92    8.50
  -3   9 -14   38.54    6.55
   3  -9  14   37.49    8.16
   3  -8 -12    3.00    2.59
  -3   8  12    5.45    2.84
   3  -8 -12    4.18    3.10
  -3   8  11   -1.22    1.86
   3  -8 -11   -0.12    1.73
   3  -8 -11   -1.56    1.64
  -3   8  10   36.31    6.19
   3  -8 -10   34.74    7.03
   3  -8 -10   28.94    6.23
  -3   8   9   44.95    6.56
   3  -8  -9   33.66    6.70
   3  -8  -9   41.97    7.26
  -3   8   8   31.67    5.31
   3  -8  -8   26.66    5.59
   3  -8  -8   27.77    5.92
  -3   8   7  236.57   13.62
   3  -8  -7  238.83   16.27
   3  -8  -7  256.01   16.48
  -3   8   6  103.07    8.58
   3  -8  -6   90.31    9.71
   3  -8  -6   96.04    9.82
  -3   8   5   94.05    7.74
  -3   8   5   98.77    8.64
   3  -8  -5   87.24    9.23
   3  -8  -5   89.69    9.24
  -3   8   4   52.31    5.49
  -3   8   4   42.97    5.67
   3  -8  -4   51.93    6.96
   3  -8  -4   39.17    5.97
  -3   8   4   50.03    6.73
  -3   8   3  136.65    8.23
  -3   8   3  145.63   10.29
   3  -8  -3  141.77   11.11
   3  -8  -3  141.07    8.20
   3  -8  -3  153.33   11.42
   3  -8  -3  131.42    8.58
  -3   8   3  143.17   11.13
  -3   8   2  241.28   10.25
  -3   8   2  206.77   12.18
   3  -8  -2  214.20   13.31
   3  -8  -2  247.21   10.90
   3  -8  -2  245.50   14.14
  -3   8   2  240.69   14.30
   3  -8  -2  233.59   11.69
   3  -8  -1    6.32    2.13
  -3   8   1   13.40    2.36
  -3   8   1   11.00    3.26
  -3   8   1    7.34    2.78
   3  -8  -1   10.85    3.37
   3  -8  -1   12.23    2.93
   3  -8  -1    9.59    2.86
   3  -8   0  266.16   12.96
   3  -8   0  279.80   12.15
  -3   8   0  275.81   14.00
   3  -8   0  275.72   14.54
   3  -8   0  282.84   14.85
  -3   8   0  279.97   15.12
  -3   8  -1   88.86    8.49
   3  -8   1   66.27    6.10
   3  -8   1   90.77    8.46
   3  -8   1   84.30    7.52
   3  -8   1   85.46    8.04
   3  -8   2   91.00    7.94
   3  -8   2   89.22    7.34
   3  -8   2   94.05    8.25
  -3   8  -2   92.47    8.63
  -3   8  -3   29.95    5.32
  -3   8  -3   37.62    5.58
   3  -8   3   34.81    5.07
   3  -8   3   39.03    4.45
   3  -8   3   30.83    4.76
   3  -8   3   33.50    4.58
  -3   8  -4   57.98    7.43
  -3   8  -4   74.50    6.06
   3  -8   4   68.92    6.40
  -3   8  -4   67.09    7.32
   3  -8   4   79.04    7.86
   3  -8   4   71.60    6.89
   3  -8   4   72.15    5.75
  -3   8  -5   79.12    8.55
   3  -8   5   86.56    7.71
   3  -8   5   84.72    8.34
   3  -8   5   89.41    7.86
  -3   8  -5   77.46    6.59
  -3   8  -5   91.88    8.61
  -3   8  -6   34.87    5.77
  -3   8  -6   36.47    5.47
   3  -8   6   33.34    5.44
   3  -8   6   25.01    4.60
   3  -8   6   35.29    5.12
  -3   8  -7  498.93   21.24
   3  -8   7  521.41   21.66
   3  -8   7  524.71   21.35
   3  -8   7  505.40   19.64
  -3   8  -7  540.94   21.38
  -3   8  -8    0.81    1.38
   3  -8   8    0.48    1.37
   3  -8   8    3.11    2.13
   3  -8   8    0.80    1.71
  -3   8  -8   -0.18    1.91
  -3   8  -9   45.29    6.50
   3  -8   9   45.17    6.83
   3  -8   9   36.63    6.45
   3  -8   9   51.02    6.84
  -3   8  -9   56.14    7.30
  -3   8 -10    0.61    1.84
  -3   8 -10   -0.35    2.23
   3  -8  10    2.23    1.49
   3  -8  10    0.73    1.68
   3  -8  10    2.67    2.26
   3  -8  11   14.50    3.98
  -3   8 -11   16.03    3.98
  -3   8 -11   11.67    3.53
   3  -8  11   14.24    4.64
   3  -8  11   19.99    5.08
  -3   8 -12   41.54    6.29
  -3   8 -12   42.22    6.79
   3  -8  12   36.01    7.45
   3  -8  12   39.24    6.78
   3  -8  12   45.78    7.57
  -3   8 -13    0.45    1.47
  -3   8 -13    2.03    2.57
   3  -8  13    6.50    3.18
   3  -8  13    3.32    3.10
   3  -8  13    4.02    2.78
   3  -8  14   83.83   11.03
   3  -8  14   59.30    9.83
  -3   8 -14   87.91    9.11
   3  -8  14   80.84   10.16
  -3   8 -14   75.03    9.54
   3  -8  15   -3.83    3.08
  -3   7  13   75.13    9.45
   3  -7 -13   91.96   11.81
   3  -7 -13   82.73   11.19
  -3   7  12   84.22    9.82
   3  -7 -12   68.34    9.84
   3  -7 -12   79.05   10.46
  -3   7  11   47.66    7.11
   3  -7 -11   42.36    7.26
   3  -7 -11   39.81    7.34
  -3   7  10  120.61   10.74
   3  -7 -10  109.87   11.53
   3  -7 -10   99.94   10.98
  -3   7   9  195.25   12.99
   3  -7  -9  188.78   14.18
   3  -7  -9  174.54   14.01
  -3   7   8    7.66    2.75
   3  -7  -8    8.17    3.23
   3  -7  -8   10.98    3.60
  -3   7   7  111.55    8.92
   3  -7  -7  100.19    9.81
   3  -7  -7  117.93   10.49
  -3   7   6   28.48    4.40
   3  -7  -6   23.83    4.96
   3  -7  -6   33.88    5.42
   3  -7  -5    2.03    1.69
  -3   7   5    2.56    1.62
  -3   7   5    5.52    1.92
   3  -7  -5    1.45    1.36
   3  -7  -5    3.65    1.99
  -3   7   4  230.17   10.83
   3  -7  -4  222.50   10.59
   3  -7  -4  238.69    9.39
   3  -7  -4  223.41   13.04
  -3   7   4  222.31   11.71
   3  -7  -4  212.67   12.89
  -3   7   3   15.44    3.21
  -3   7   3   28.17    3.65
   3  -7  -3   16.27    3.09
   3  -7  -3   18.96    2.90
   3  -7  -3   19.72    3.90
   3  -7  -3   25.34    4.33
  -3   7   2  464.06   13.59
   3  -7  -2  446.83   15.23
   3  -7  -2  447.52   17.56
  -3   7   2  484.11   17.04
   3  -7  -2  478.80   13.79
  -3   7   2  439.16   18.03
  -3   7   1   92.95    5.67
  -3   7   1   94.21    8.36
   3  -7  -1   78.48    6.50
  -3   7   1   88.08    7.31
   3  -7  -1   83.45    7.58
   3  -7  -1   98.95    8.19
   3  -7  -1   78.87    5.73
   3  -7   0   13.09    3.05
   3  -7   0    7.65    2.24
   3  -7   0   11.90    2.54
   3  -7   0   17.76    3.55
  -3   7   0   19.37    3.92
  -3   7   0    3.78    1.89
  -3   7   0   19.18    2.40
   3  -7   1   43.01    5.32
  -3   7  -1   42.13    3.62
   3  -7   1   40.28    4.38
   3  -7   1   46.63    5.54
  -3   7  -1   50.55    3.46
  -3   7  -1   46.49    5.87
   3  -7   1   41.70    4.99
  -3   7  -2  652.21   21.43
   3  -7   2  621.77   19.55
  -3   7  -2  659.29   15.49
   3  -7   2  610.05   17.43
   3  -7   2  645.50   19.77
  -3   7  -3  117.09    9.71
   3  -7   3  148.06    9.82
   3  -7   3  149.51    7.68
   3  -7   3  143.55    9.38
  -3   7  -3  137.34    9.85
  -3   7  -3  149.87    8.01
   3  -7   3  136.13    8.41
  -3   7  -4  160.30   11.35
   3  -7   4  184.83   11.29
   3  -7   4  161.57    9.48
   3  -7   4  167.96    9.99
  -3   7  -4  156.69   10.46
  -3   7  -4  165.53    9.02
   3  -7   4  174.17    7.87
  -3   7  -5    2.87    1.65
   3  -7   5   -0.48    1.66
  -3   7  -5    1.40    1.44
   3  -7   5    1.18    1.26
   3  -7   5    1.39    1.11
  -3   7  -6   76.42    7.74
   3  -7   6   77.85    7.79
   3  -7   6   71.55    7.36
   3  -7   6   77.44    6.96
  -3   7  -6   93.76    8.34
  -3   7  -7   53.97    6.52
   3  -7   7   64.98    7.41
   3  -7   7   52.72    6.72
   3  -7   7   57.02    6.25
  -3   7  -7   60.67    6.85
  -3   7  -8  132.85   10.24
   3  -7   8  137.28   11.02
   3  -7   8  127.61   10.99
   3  -7   8  125.48    9.54
  -3   7  -8  157.30   11.24
  -3   7  -9  105.07    9.19
   3  -7   9  118.04   10.57
   3  -7   9  114.53   10.87
  -3   7  -9  115.75    9.76
   3  -7   9  118.40    9.65
  -3   7 -10   36.02    5.45
  -3   7 -10   37.83    5.88
   3  -7  10   34.59    6.04
   3  -7  10   26.09    5.58
   3  -7  10   40.68    5.97
  -3   7 -11   29.52    5.41
   3  -7  11   35.26    6.70
   3  -7  11   35.19    6.34
   3  -7  11   36.10    5.78
  -3   7 -11   31.19    5.15
  -3   7 -12  116.54    9.72
   3  -7  12  109.80   12.38
   3  -7  12  118.34   11.79
  -3   7 -12  134.90   11.63
   3  -7  12  133.10   11.49
  -3   7 -13   50.04    6.47
   3  -7  13   53.66    9.15
   3  -7  13   59.79    8.11
  -3   7 -13   53.72    7.52
   3  -7  13   59.03    8.72
  -3   7 -14   -0.20    1.90
   3  -7  14   -5.58    3.09
   3  -7  14    2.54    2.56
   3  -7  14   -1.00    1.86
   3  -7  15   94.35   11.72
   3  -7  15   64.38   10.62
   3  -7  15   81.67   10.11
  -3   7 -15   83.75   10.04
   3  -6 -15   28.63    6.96
  -3   6  14    9.96    3.88
   3  -6 -14    7.74    3.36
   3  -6 -14    7.64    4.15
   3  -6 -13   26.25    6.20
  -3   6  13   32.48    6.14
   3  -6 -13   20.72    5.86
  -3   6  12   26.28    5.41
   3  -6 -12   14.44    4.61
   3  -6 -12   36.43    6.81
   3  -6 -11   25.98    5.59
  -3   6  11   32.36    5.42
   3  -6 -11   31.61    6.11
   3  -6 -10    5.20    2.84
  -3   6  10   10.59    3.19
   3  -6 -10    8.33    3.36
  -3   6   9  168.43   11.48
   3  -6  -9  195.76   13.62
   3  -6  -9  178.11   13.16
  -3   6   8  684.61   22.10
   3  -6  -8  645.77   23.94
   3  -6  -8  691.36   24.55
  -3   6   7   18.23    3.57
   3  -6  -7    5.59    1.91
   3  -6  -7    8.46    3.03
   3  -6  -7   17.86    3.96
  -3   6   6   43.29    5.07
   3  -6  -6   34.09    4.12
   3  -6  -6   31.08    5.06
   3  -6  -6   35.93    5.31
  -3   6   5  117.30    7.82
   3  -6  -5  105.94    7.01
  -3   6   5  115.35    7.86
   3  -6  -5  111.49    8.89
   3  -6  -5  126.22    9.41
  -3   6   4  112.61    7.26
   3  -6  -4  135.71    6.27
  -3   6   4  115.14    7.72
   3  -6  -4  111.19    7.09
  -3   6   4  123.26    6.40
   3  -6  -4  116.38    8.77
   3  -6  -4  114.20    8.62
   3  -6  -3   75.23    4.75
  -3   6   3   81.19    3.99
   3  -6  -3   76.38    6.97
   3  -6  -3   71.27    6.63
  -3   6   3   73.57    4.43
  -3   6   3   71.39    5.43
   3  -6  -3   70.17    5.71
  -3   6   3   66.75    5.85
  -3   6   2  668.95   11.77
   3  -6  -2  642.68   19.31
  -3   6   2  668.12   17.97
   3  -6  -2  656.37   17.54
  -3   6   2  673.30   11.44
   3  -6  -2  694.61   20.12
   3  -6  -2  675.38   14.56
  -3   6   2  685.56   15.59
  -3   6   2  663.56   20.75
  -3   6   1  222.48    8.29
   3  -6  -1  202.39    9.83
  -3   6   1  217.06   11.85
  -3   6   1  200.49    9.89
  -3   6   1  216.29    5.30
   3  -6  -1  210.04    8.33
   3  -6  -1  222.51   11.17
   3  -6  -1  225.66   11.22
  -3   6   1  215.69    7.12
   3  -6   0  200.52    8.42
  -3   6   0  207.86    7.58
   3  -6   0  201.21   10.50
   3  -6   0  189.54    9.74
  -3   6   0  189.62   10.90
   3  -6   0  208.69   10.66
  -3   6   0  209.76    7.43
  -3   6  -1    2.93    1.04
  -3   6  -1    3.62    0.99
  -3   6  -1    1.45    1.20
   3  -6   1    0.74    0.91
   3  -6   1    2.77    1.48
   3  -6   1    3.27    1.79
   3  -6   1    0.32    1.06
   3  -6   2 1090.24   24.43
   3  -6   2 1083.00   21.01
   3  -6   2 1142.65   23.92
  -3   6  -2 1127.09   26.30
  -3   6  -2 1156.91   20.55
  -3   6  -2 1155.93   14.41
  -3   6  -3  221.67    9.67
  -3   6  -3  226.84   11.82
   3  -6   3  215.24    9.62
   3  -6   3  209.52   10.94
   3  -6   3  232.52   10.87
  -3   6  -3  218.62    5.55
  -3   6  -4  284.44   13.86
   3  -6   4  279.17   12.72
  -3   6  -4  297.09   13.62
   3  -6   4  324.43    9.25
   3  -6   4  292.12   13.50
   3  -6   4  299.95   11.79
  -3   6  -5 1130.38   27.56
   3  -6   5 1130.59   27.34
   3  -6   5 1143.81   27.46
   3  -6   5 1113.82   23.42
  -3   6  -5 1158.89   27.13
   3  -6   5 1190.53   16.25
  -3   6  -6  539.71   19.14
   3  -6   6  534.86   19.39
  -3   6  -6  559.36   19.07
   3  -6   6  533.47   19.78
   3  -6   6  550.81   17.10
  -3   6  -7  552.59   19.28
   3  -6   7  553.58   20.31
   3  -6   7  555.02   21.16
   3  -6   7  557.54   17.93
  -3   6  -7  578.69   19.89
  -3   6  -8  267.13   13.35
   3  -6   8  248.82   14.88
  -3   6  -8  270.12   13.92
   3  -6   8  278.44   14.94
   3  -6   8  281.91   13.36
   3  -6   9   88.09    8.79
   3  -6   9   81.94    9.00
   3  -6   9   91.85    8.00
  -3   6  -9   95.56    8.47
  -3   6  -9   94.18    8.01
  -3   6 -10   22.92    3.98
  -3   6 -10   28.32    4.87
   3  -6  10   13.41    3.93
   3  -6  10   19.34    4.41
   3  -6  10   20.66    4.09
  -3   6 -11    4.78    2.09
  -3   6 -11    8.45    2.86
   3  -6  11    2.66    2.31
   3  -6  11    7.60    3.08
   3  -6  11    8.74    2.88
  -3   6 -12  145.21   10.02
   3  -6  12  117.12   11.28
   3  -6  12  115.29   12.25
   3  -6  12  133.10   10.99
  -3   6 -12  143.33   11.49
  -3   6 -13   44.27    6.63
   3  -6  13   35.58    6.67
   3  -6  13   42.85    6.55
   3  -6  13   36.69    7.53
  -3   6 -13   53.97    6.20
   3  -6  14   80.75   10.16
   3  -6  14   66.75    8.51
   3  -6  14   68.75   10.51
  -3   6 -14   86.30    9.53
  -3   6 -15   41.19    7.08
   3  -6  15   41.62    7.49
   3  -6  15   31.15    7.59
   3  -6  15   35.13    6.33
  -3   6 -16   23.01    5.42
   3  -6  16   24.51    6.05
   3  -6  16   18.63    5.86
  -3   5  15   35.89    6.83
   3  -5 -15   37.60    7.67
   3  -5 -15   24.97    6.25
  -3   5  14    1.72    1.73
   3  -5 -14    3.53    2.69
   3  -5 -14    8.54    3.62
  -3   5  13  181.64   13.94
   3  -5 -13  141.96   13.01
   3  -5 -13  164.42   14.03
  -3   5  12   78.47    8.81
   3  -5 -12   57.14    8.00
   3  -5 -12   70.67    8.78
  -3   5  11  217.12   13.79
   3  -5 -11  191.32   13.98
   3  -5 -11  217.95   14.70
   3  -5 -10    4.16    2.35
  -3   5  10    9.91    2.95
   3  -5 -10    7.69    2.68
  -3   5   9  190.91   11.71
   3  -5  -9  174.40    9.58
   3  -5  -9  169.04   12.03
   3  -5  -9  171.34   11.79
   3  -5  -8   26.29    3.73
  -3   5   8   25.66    4.29
   3  -5  -8   27.99    4.85
   3  -5  -8   32.90    5.13
  -3   5   7  109.62    8.04
  -3   5   7  114.02    6.52
   3  -5  -7  106.21    7.08
   3  -5  -7   94.02    8.22
   3  -5  -7  119.29    9.13
  -3   5   6  362.19   13.87
   3  -5  -6  332.20   12.15
  -3   5   6  335.92   10.42
   3  -5  -6  330.89   14.58
   3  -5  -6  355.07   15.04
  -3   5   5   53.05    4.99
   3  -5  -5   43.47    4.40
   3  -5  -5   42.42    5.10
   3  -5  -5   52.98    5.60
  -3   5   5   55.26    3.95
  -3   5   4 1255.49   22.87
  -3   5   4 1288.10   23.12
  -3   5   4 1233.04   20.12
   3  -5  -4 1218.94   22.41
   3  -5  -4 1169.37   25.16
   3  -5  -4 1197.47   25.61
  -3   5   4 1222.74   17.66
  -3   5   3  238.95    9.30
  -3   5   3  245.85    8.13
   3  -5  -3  246.84   11.08
  -3   5   3  249.77    9.96
   3  -5  -3  257.49    7.48
   3  -5  -3  240.71   10.00
   3  -5  -3  248.59   11.26
  -3   5   3  269.07    7.98
  -3   5   2  351.47    8.74
   3  -5  -2  356.22   12.16
  -3   5   2  352.83    9.11
   3  -5  -2  350.84    8.40
  -3   5   2  348.71   10.54
   3  -5  -2  359.31    9.05
   3  -5  -2  358.32   13.01
   3  -5  -2  370.64   13.41
  -3   5   1   95.26    4.90
   3  -5  -1   85.84    4.58
   3  -5  -1   99.32    6.76
   3  -5  -1   90.26    4.77
  -3   5   1   97.06    4.05
   3  -5  -1  101.01    6.76
  -3   5   1  103.50    7.54
   3  -5  -1   91.65    6.28
  -3   5   1   93.75    5.14
   3  -5   0   10.81    2.28
  -3   5   0   20.75    2.46
  -3   5   0   17.84    3.24
   3  -5   0   12.44    1.98
   3  -5   0   16.10    2.12
  -3   5   0   17.73    1.56
   3  -5   0   15.13    2.70
  -3   5   0   17.03    2.03
   3  -5   0   16.85    2.83
  -3   5  -1  308.07    9.89
  -3   5  -1  297.49    5.97
   3  -5   1  304.76    9.49
   3  -5   1  309.99   11.92
   3  -5   1  321.91   11.61
  -3   5  -1  306.30   12.74
  -3   5  -1  309.11    8.07
   3  -5   1  303.43    9.90
  -3   5  -2    2.23    0.76
  -3   5  -2    2.16    0.97
   3  -5   2    1.18    1.35
  -3   5  -2    2.53    1.58
  -3   5  -2    2.36    0.61
   3  -5   2    0.03    0.74
   3  -5   2    1.14    0.91
   3  -5   2    2.03    1.16
   3  -5   3  443.39   15.08
  -3   5  -3  476.74   13.84
   3  -5   3  417.85   13.02
   3  -5   3  457.00   13.71
   3  -5   3  464.85   12.66
  -3   5  -3  455.54   15.59
  -3   5  -3  443.49    8.64
  -3   5  -4    0.71    1.16
  -3   5  -4    0.50    1.28
   3  -5   4   -0.16    0.96
  -3   5  -4    0.59    0.51
   3  -5   4   -0.29    0.94
   3  -5   4    0.52    1.03
   3  -5   4    0.46    0.85
  -3   5  -5  310.10   13.34
   3  -5   5  336.84   14.04
   3  -5   5  347.64   12.00
   3  -5   5  325.38   14.23
  -3   5  -5  295.06    9.10
  -3   5  -5  324.85   13.46
   3  -5   5  309.88   12.29
  -3   5  -6    0.22    1.16
   3  -5   6    3.24    1.59
   3  -5   6    3.13    1.52
  -3   5  -6    3.20    1.15
  -3   5  -6    5.05    2.01
   3  -5   6    0.53    0.82
   3  -5   6    3.29    0.91
   3  -5   6    1.09    1.53
  -3   5  -7   94.04    7.40
   3  -5   7  102.40    7.26
   3  -5   7   92.59    8.46
   3  -5   7  110.20    8.66
   3  -5   7  101.90    7.67
  -3   5  -7  115.84    8.40
  -3   5  -8    5.86    2.06
  -3   5  -8    3.42    1.69
   3  -5   8   10.11    2.46
   3  -5   8    5.20    2.33
  -3   5  -9   -0.41    1.34
   3  -5   9    4.02    1.95
  -3   5  -9    0.70    1.28
   3  -5   9   -0.82    2.05
   3  -5   9    1.86    1.44
  -3   5 -10    2.24    1.29
  -3   5 -10    2.10    1.45
   3  -5  10    0.52    1.23
   3  -5  10    3.91    2.37
   3  -5  10    3.91    1.93
  -3   5 -11   27.93    4.14
  -3   5 -11   24.45    4.36
   3  -5  11   25.26    5.37
   3  -5  11   27.27    4.58
   3  -5  11   22.28    4.73
  -3   5 -12    0.03    0.90
  -3   5 -12    1.48    1.51
   3  -5  12    3.41    2.32
   3  -5  12   -0.04    1.59
   3  -5  12    1.21    2.55
  -3   5 -13   36.73    5.96
   3  -5  13   29.44    6.61
   3  -5  13   26.13    5.48
   3  -5  13   30.43    5.30
  -3   5 -14    0.61    1.23
   3  -5  14    3.47    3.71
   3  -5  14   -0.08    1.84
   3  -5  14    1.46    1.76
  -3   5 -15   36.71    6.44
   3  -5  15   30.21    7.23
   3  -5  15   29.33    6.11
   3  -5  15   24.31    5.18
  -3   5 -16   13.98    4.16
   3  -5  16   21.10    5.50
   3  -5  16   15.27    5.25
   3  -5  16   13.20    4.02
   3  -5  17    9.13    3.96
   3  -4 -16   16.51    4.94
  -3   4  16   20.35    5.29
   3  -4 -16   26.77    6.15
  -3   4  15    3.30    1.94
   3  -4 -15    2.29    2.69
   3  -4 -15    1.60    1.75
  -3   4  14   62.12    8.28
   3  -4 -14   51.71    7.89
   3  -4 -14   55.76    8.21
  -3   4  13   21.35    4.79
   3  -4 -13   16.77    4.56
   3  -4 -13   16.60    4.47
  -3   4  12    2.72    2.07
   3  -4 -12    0.39    1.38
   3  -4 -12    2.13    2.05
  -3   4  11   88.16    8.48
  -3   4  11   81.38    7.56
   3  -4 -11   86.64    7.28
   3  -4 -11   69.49    7.93
   3  -4 -11   85.20    8.58
   3  -4 -10   17.26    3.18
  -3   4  10   17.82    3.53
  -3   4  10   22.95    4.31
   3  -4 -10   18.86    4.10
   3  -4 -10   27.69    4.80
  -3   4   9  942.42   24.96
  -3   4   9  915.00   22.13
   3  -4  -9  928.17   22.17
   3  -4  -9  938.31   26.06
   3  -4  -9  927.98   25.80
  -3   4   8   17.47    3.47
  -3   4   8   13.55    2.60
   3  -4  -8   10.63    2.46
   3  -4  -8    8.41    2.79
   3  -4  -8   18.03    3.56
  -3   4   7  526.62   16.91
   3  -4  -7  535.92   17.84
  -3   4   7  515.03   14.47
   3  -4  -7  533.76   15.49
   3  -4  -7  506.56   17.35
  -3   4   6   42.11    4.56
  -3   4   6   41.18    3.84
   3  -4  -6   38.86    4.06
   3  -4  -6   38.37    4.57
   3  -4  -6   36.98    4.51
  -3   4   5   28.14    3.54
   3  -4  -5   20.70    2.91
  -3   4   5   25.29    2.89
   3  -4  -5   21.24    3.32
   3  -4  -5   24.15    3.53
  -3   4   4  592.88   14.84
  -3   4   4  579.98   12.80
  -3   4   4  564.41   13.45
   3  -4  -4  570.75    7.38
   3  -4  -4  572.18   14.72
   3  -4  -4  585.02   16.19
  -3   4   3  126.38    5.78
  -3   4   3  123.75    5.85
   3  -4  -3  125.34    6.83
   3  -4  -3  130.73    4.23
   3  -4  -3  133.05    4.22
   3  -4  -3  124.08    7.20
  -3   4   3  132.30    6.63
  -3   4   2   68.32    4.49
  -3   4   2   64.76    4.35
  -3   4   2   64.61    3.84
   3  -4  -2   57.81    3.20
   3  -4  -2   60.51    4.78
  -3   4   2   61.82    3.97
   3  -4  -2   60.19    3.00
   3  -4  -2   64.00    4.84
   3  -4  -2   60.44    4.86
  -3   4   1   16.18    2.20
   3  -4  -1    8.82    2.00
  -3   4   1   16.49    1.83
  -3   4   1   13.06    1.89
   3  -4  -1   12.09    1.67
  -3   4   1   18.18    2.23
   3  -4  -1   13.14    1.55
   3  -4  -1   14.20    2.29
   3  -4  -1   14.59    2.37
  -3   4   0   59.23    3.21
   3  -4   0   54.12    4.66
   3  -4   0   57.89    3.83
   3  -4   0   57.06    3.34
   3  -4   0   60.45    4.51
  -3   4   0   62.33    4.19
   3  -4   0   62.37    4.64
  -3   4   0   62.04    5.31
  -3   4   0   55.81    3.59
  -3   4  -1  180.69    5.54
  -3   4  -1  200.68    7.83
   3  -4   1  185.66    7.21
   3  -4   1  171.80    8.37
  -3   4  -1  189.78    9.16
   3  -4   1  186.77    6.49
   3  -4   1  189.14    7.84
  -3   4  -1  184.60    6.15
  -3   4  -2  176.25    7.78
  -3   4  -2  177.81    5.83
   3  -4   2  185.43    8.85
   3  -4   2  180.28    7.55
   3  -4   2  186.52    7.69
  -3   4  -2  172.89    5.72
  -3   4  -2  177.15    8.86
   3  -4   2  173.83    6.57
  -3   4  -3  757.26   13.01
   3  -4   3  791.94   18.93
  -3   4  -3  837.08   17.96
   3  -4   3  787.89   14.85
  -3   4  -3  797.28   18.83
   3  -4   3  782.06   16.74
  -3   4  -4  739.95   18.51
   3  -4   4  807.45   19.76
   3  -4   4  748.55   17.28
   3  -4   4  811.13   15.95
  -3   4  -4  788.63   19.11
  -3   4  -4  755.73   14.20
  -3   4  -5  610.22   16.80
   3  -4   5  638.76   19.62
   3  -4   5  647.17   18.41
   3  -4   5  655.31   16.97
  -3   4  -5  632.62   14.20
  -3   4  -5  645.89   17.56
  -3   4  -6   30.10    3.81
   3  -4   6   30.35    3.89
   3  -4   6   33.78    3.11
   3  -4   6   37.32    4.66
   3  -4   6   27.52    4.34
  -3   4  -6   34.25    3.62
  -3   4  -6   37.71    4.50
   3  -4   7   27.89    3.94
  -3   4  -7   24.64    3.31
   3  -4   7   28.68    3.08
  -3   4  -7   26.40    3.82
   3  -4   7   23.87    4.47
  -3   4  -7   24.03    3.38
   3  -4   7   22.87    3.81
  -3   4  -8   67.15    5.55
   3  -4   8   77.76    5.33
   3  -4   8   83.04    8.32
   3  -4   8   90.44    7.72
  -3   4  -8   79.64    6.82
  -3   4  -8   89.22    6.85
   3  -4   8   70.55    6.44
  -3   4  -9   36.74    4.10
   3  -4   9   50.72    4.57
   3  -4   9   55.12    6.35
   3  -4   9   41.83    6.45
  -3   4  -9   50.10    5.68
   3  -4   9   45.99    5.42
  -3   4 -10   44.51    4.51
   3  -4  10   64.26    5.46
   3  -4  10   63.67    7.08
   3  -4  10   46.46    6.91
   3  -4  10   64.33    6.66
  -3   4 -10   66.25    6.79
   3  -4  11   75.42    8.06
   3  -4  11   74.26    9.15
  -3   4 -11   72.65    7.26
  -3   4 -11   77.43    6.12
   3  -4  12  192.31   15.42
   3  -4  12  202.06   13.66
  -3   4 -12  199.07   12.53
  -3   4 -13   20.26    4.31
   3  -4  13   24.82    6.00
   3  -4  13   26.78    5.26
  -3   4 -14   28.95    5.38
   3  -4  14   23.31    5.17
   3  -4  14   23.50    6.23
  -3   4 -15    7.35    2.95
   3  -4  15    4.86    2.46
   3  -4  15    4.93    2.51
  -3   4 -16    4.37    2.57
   3  -4  16    5.69    2.73
   3  -4  16    3.98    3.43
   3  -3 -17   23.32    5.81
  -3   3  16   57.70    8.38
   3  -3 -16   49.80    8.25
   3  -3 -16   62.75    8.95
  -3   3  15   48.72    7.17
   3  -3 -15   34.64    6.50
   3  -3 -15   40.75    7.01
  -3   3  14   -0.46    1.57
  -3   3  14   -1.79    1.83
   3  -3 -14    1.13    1.82
   3  -3 -14    0.16    1.17
  -3   3  13  181.28   12.86
  -3   3  13  168.92   12.43
   3  -3 -13  174.28   13.03
   3  -3 -13  180.04   13.08
  -3   3  12    8.89    2.87
  -3   3  12   12.74    3.43
   3  -3 -12    8.39    2.89
   3  -3 -12    6.67    2.84
  -3   3  11   56.23    6.48
  -3   3  11   50.84    6.09
   3  -3 -11   45.48    6.01
   3  -3 -11   50.22    6.20
  -3   3  10   45.09    5.68
  -3   3  10   39.71    5.19
   3  -3 -10   33.10    5.04
   3  -3 -10   42.36    5.47
  -3   3   9  274.53   13.00
  -3   3   9  262.40   12.22
   3  -3  -9  247.59   12.43
   3  -3  -9  232.53   12.21
  -3   3   8 1053.45   24.06
   3  -3  -8 1089.53   24.61
   3  -3  -8 1098.15   24.76
  -3   3   7  108.88    7.34
   3  -3  -7  103.63    7.23
  -3   3   7  119.11    7.25
   3  -3  -7   93.98    6.89
   3  -3  -7  115.25    3.19
  -3   3   6 1468.05   25.53
   3  -3  -6 1473.76   24.54
   3  -3  -6 1486.77   25.85
  -3   3   6 1463.87   23.75
   3  -3  -6 1460.27   11.55
  -3   3   5   36.15    3.79
   3  -3  -5   34.90    3.66
   3  -3  -5   33.35    1.86
   3  -3  -5   33.54    3.67
  -3   3   5   35.14    3.50
  -3   3   4 1529.33   22.82
  -3   3   4 1490.34   21.34
  -3   3   4 1505.12   21.90
   3  -3  -4 1478.26   22.90
   3  -3  -4 1495.55   13.34
   3  -3  -4 1477.47   23.09
   3  -3  -4 1446.18   22.17
  -3   3   3  133.90    6.36
  -3   3   3  132.97    6.12
  -3   3   3  135.75    6.14
  -3   3   3  138.73    2.79
   3  -3  -3  155.90    6.78
   3  -3  -3  130.92    6.62
   3  -3  -3  138.95    4.44
   3  -3  -3  133.82    6.63
  -3   3   2   84.89    4.13
   3  -3  -2   87.20    4.79
   3  -3  -2   84.77    2.40
  -3   3   2   83.79    4.51
  -3   3   2   86.38    4.76
   3  -3  -2   92.55    3.90
   3  -3  -2   85.26    5.32
   3  -3  -2   78.50    4.84
  -3   3   2   85.76    4.83
   3  -3  -1  563.65   13.50
  -3   3   1  534.69    9.93
   3  -3  -1  534.10   11.25
   3  -3  -1  550.11    7.49
   3  -3  -1  569.02   10.43
  -3   3   1  559.95   12.19
   3  -3  -1  532.79   12.06
  -3   3   1  544.52   10.76
  -3   3   1  528.97   11.25
   3  -3   0 1874.70   15.69
   3  -3   0 1841.00   24.80
  -3   3   0 1823.71   19.13
   3  -3   0 1804.18   19.89
   3  -3   0 1779.05   21.25
  -3   3   0 1795.52   25.78
  -3   3   0 1867.62   22.79
  -3   3   0 1826.02   19.95
  -3   3  -1  292.96    7.81
   3  -3   1  285.29    9.94
  -3   3  -1  285.60    9.28
   3  -3   1  303.94    7.00
  -3   3  -1  283.72    7.70
   3  -3   1  281.09    8.40
   3  -3   1  291.01    8.35
  -3   3  -1  290.24   10.28
  -3   3  -2  222.09    8.63
  -3   3  -2  214.74    7.01
   3  -3   2  225.29    9.06
   3  -3   2  218.21    7.14
   3  -3   2  222.56    7.93
  -3   3  -2  215.61    8.90
  -3   3  -2  214.37    6.73
  -3   3  -3  164.16    7.81
   3  -3   3  157.38    7.89
   3  -3   3  151.68    6.99
  -3   3  -3  152.67    7.53
  -3   3  -3  151.91    6.31
  -3   3  -4  137.92    7.13
   3  -3   4  127.02    7.36
  -3   3  -4  131.80    6.35
   3  -3   4  128.27    6.80
  -3   3  -4  123.05    6.93
  -3   3  -5  215.88    8.81
   3  -3   5  227.14   10.27
   3  -3   5  222.48    9.43
   3  -3   5  226.86   11.54
  -3   3  -5  221.71    8.88
  -3   3  -5  234.01    9.82
  -3   3  -6  321.05   10.47
   3  -3   6  322.16   12.80
   3  -3   6  322.34   14.47
  -3   3  -6  330.75   12.07
  -3   3  -6  331.79   11.81
   3  -3   6  327.03   12.04
  -3   3  -7    4.97    1.43
  -3   3  -7    7.36    2.05
   3  -3   7    6.29    2.07
   3  -3   7    1.15    1.51
   3  -3   7    0.48    1.10
  -3   3  -7    5.89    1.83
   3  -3   7    3.54    1.46
  -3   3  -8  442.41   15.67
   3  -3   8  417.47   13.67
   3  -3   8  430.79   16.06
  -3   3  -8  451.59   15.28
   3  -3   8  451.35   19.09
   3  -3   8  468.55   15.91
  -3   3  -8  439.35   12.41
  -3   3  -9  516.50   13.54
   3  -3   9  501.72   15.65
   3  -3   9  480.32   17.76
   3  -3   9  488.97   20.98
  -3   3  -9  514.69   17.07
   3  -3   9  490.48   17.01
  -3   3  -9  504.46   17.85
  -3   3 -10    0.48    0.85
  -3   3 -10    1.33    1.36
   3  -3  10    2.64    1.35
   3  -3  10   -0.59    1.01
   3  -3  10    1.05    1.63
   3  -3  10    1.53    1.24
  -3   3 -11    5.65    2.20
   3  -3  11   10.66    3.07
   3  -3  11    6.56    3.09
   3  -3  11    7.93    2.41
   3  -3  11    6.83    2.25
   3  -3  12   48.26    5.69
   3  -3  12   38.10    5.72
   3  -3  12   44.77    7.56
  -3   3 -12   50.57    6.26
  -3   3 -13   11.35    3.30
   3  -3  13    4.80    3.18
  -3   3 -14    5.22    2.48
   3  -3  14    1.54    1.67
   3  -3  14    2.57    2.68
  -3   3 -15   49.00    7.19
   3  -3  15   46.44    7.10
   3  -3  15   50.70    9.18
   3  -3  16  173.95   17.30
  -3   3 -16  165.53   13.64
  -3   3 -17    5.52    3.03
  -3   2  17    0.89    1.78
   3  -2 -17   -0.66    2.54
   3  -2 -17    1.98    2.12
  -3   2  16  101.07   10.57
  -3   2  16  105.49   11.73
   3  -2 -16   86.94   10.28
   3  -2 -16  109.66   11.40
  -3   2  15   18.49    4.55
   3  -2 -15   16.26    4.45
  -3   2  15   21.43    5.19
   3  -2 -15   21.97    4.91
  -3   2  14   73.99    8.38
  -3   2  14   71.62    8.80
   3  -2 -14   63.70    8.23
   3  -2 -14   72.32    8.39
   3  -2 -13   32.68    5.52
  -3   2  13   40.12    5.92
  -3   2  13   38.75    6.22
   3  -2 -13   37.06    5.68
  -3   2  12   20.55    4.05
  -3   2  12   21.47    4.49
   3  -2 -12   18.18    4.15
   3  -2 -12   21.19    4.14
  -3   2  11  344.26   16.01
  -3   2  11  361.03   15.82
   3  -2 -11  358.22   16.63
   3  -2 -11  364.04   15.67
  -3   2  10   12.98    3.15
   3  -2 -10   13.00    3.11
  -3   2  10   11.34    2.89
   3  -2 -10   15.35    3.24
   3  -2  -9   16.64    3.23
  -3   2   9   14.77    2.98
  -3   2   9   24.02    3.91
   3  -2  -9   22.80    3.62
   3  -2  -9   13.28    1.94
  -3   2   8   16.16    2.94
  -3   2   8   17.00    3.09
   3  -2  -8   17.34    1.98
   3  -2  -8   20.46    3.17
  -3   2   7    6.39    1.95
  -3   2   7    3.35    1.42
   3  -2  -7    6.00    1.19
   3  -2  -7    4.93    1.60
  -3   2   6  578.17   15.27
   3  -2  -6  562.37    9.99
  -3   2   6  570.49   15.23
   3  -2  -6  564.54   14.43
   3  -2  -5   17.07    1.74
  -3   2   5   19.64    2.72
  -3   2   5   18.44    2.66
   3  -2  -5   17.70    2.33
   3  -2  -5   19.03    2.52
   3  -2  -4  490.30    8.81
  -3   2   4  500.85   12.58
  -3   2   4  482.33   12.44
  -3   2   4  473.36    4.88
  -3   2   4  508.68   12.74
   3  -2  -4  508.62   11.17
  -3   2   4  446.53    4.67
   3  -2  -4  515.49   12.08
   3  -2  -3   17.94    1.94
   3  -2  -3   16.83    2.37
  -3   2   3   16.72    2.26
  -3   2   3   22.17    2.53
   3  -2  -3   17.73    2.16
   3  -2  -3   17.97    1.72
  -3   2   3   17.00    2.20
   3  -2  -2   55.35    3.08
  -3   2   2   56.26    3.77
  -3   2   2   55.57    3.92
   3  -2  -2   54.58    3.45
  -3   2   2   58.53    3.84
   3  -2  -2   60.57    3.14
  -3   2   1  135.21    3.52
  -3   2   1  136.95    6.11
  -3   2   1  133.32    5.57
   3  -2  -1  126.45    4.25
   3  -2  -1  126.53    4.84
   3  -2  -1  123.92    4.80
  -3   2   1  128.88    5.46
   3  -2  -1  130.74    6.11
   3  -2   0  261.38    8.67
  -3   2   0  265.32    8.52
  -3   2   0  259.78    7.67
   3  -2   0  258.78    7.33
   3  -2   0  251.39    6.41
  -3   2   0  245.01    8.47
  -3   2   0  278.92    7.87
  -3   2  -1  522.26   12.22
  -3   2  -1  518.60   12.31
  -3   2  -1  514.80   11.03
   3  -2   1  501.75   12.29
  -3   2  -1  506.79   10.63
   3  -2   1  513.24    8.74
   3  -2   1  511.51   10.94
  -3   2  -2  302.12    8.83
   3  -2   2  292.04    9.56
  -3   2  -2  292.62    9.17
   3  -2   2  294.80    8.76
  -3   2  -2  312.32   10.03
  -3   2  -3  261.78    8.78
   3  -2   3  262.23    9.37
  -3   2  -3  257.95    8.67
   3  -2   3  263.88    8.81
  -3   2  -4  318.70    9.01
  -3   2  -4  334.18   10.58
   3  -2   4  318.93   10.86
   3  -2   4  337.37   10.50
  -3   2  -4  334.53   10.27
  -3   2  -5  294.10    8.40
   3  -2   5  275.44   12.45
   3  -2   5  284.85   10.74
  -3   2  -5  287.14   10.53
   3  -2   5  295.77   10.42
  -3   2  -5  292.67   10.06
  -3   2  -6  278.30    8.21
   3  -2   6  298.05   13.70
  -3   2  -6  289.36   10.56
   3  -2   6  278.32   11.14
   3  -2   6  292.78   10.95
  -3   2  -6  290.95   11.40
  -3   2  -7   98.64    7.17
   3  -2   7  101.36    6.88
   3  -2   7  108.96    8.85
   3  -2   7  104.08    7.15
   3  -2   7  108.45    7.04
  -3   2  -7  107.07    6.81
  -3   2  -7  109.50    5.22
  -3   2  -8   93.64    7.44
   3  -2   8   86.75    6.67
   3  -2   8   89.04    7.00
   3  -2   8  100.55    8.97
   3  -2   8  101.78    7.18
  -3   2  -8   97.27    6.79
  -3   2  -8  107.06    5.23
  -3   2  -9    0.62    0.82
  -3   2  -9    0.73    1.07
  -3   2  -9    2.80    1.75
   3  -2   9    1.05    1.68
   3  -2   9    0.86    1.09
   3  -2   9    0.93    0.95
   3  -2   9    3.50    1.89
   3  -2  10  293.82   13.48
   3  -2  10  293.14   13.82
   3  -2  10  317.34   17.46
   3  -2  10  299.04   13.61
  -3   2 -10  272.26   12.76
  -3   2 -10  299.63   14.96
  -3   2 -10  309.47    9.56
   3  -2  11  142.92    9.90
   3  -2  11  133.76    9.76
   3  -2  11  128.53    9.26
   3  -2  11  123.41   11.46
  -3   2 -11  133.94    9.41
   3  -2  12   36.11    5.38
   3  -2  12   36.17    5.16
   3  -2  12   30.82    6.02
   3  -2  12   37.17    5.42
  -3   2 -12   43.38    5.71
   3  -2  13  287.12   15.18
   3  -2  13  301.96   19.69
   3  -2  13  322.64   16.36
  -3   2 -13  322.20   16.25
   3  -2  14  131.98   10.80
   3  -2  14  142.52   11.27
  -3   2 -14  148.15   11.75
   3  -2  14  114.43   12.71
   3  -2  15   50.74    8.93
  -3   2 -15   57.76    7.87
  -3   2 -16   51.19    7.59
   3  -2  16   46.07    9.15
  -3   2 -16   53.83    7.39
   3  -2  17   53.26    9.81
  -3   2 -17   58.95    8.60
  -3   2 -17   58.04    7.97
  -3   1  18   40.35    7.18
  -3   1  18   27.53    6.51
  -3   1  17   13.54    4.76
  -3   1  17   14.13    4.28
   3  -1 -17    6.30    3.05
   3  -1 -17    6.64    3.08
  -3   1  16    4.85    2.42
   3  -1 -16    1.64    1.79
  -3   1  16    0.93    1.78
   3  -1 -16    3.11    2.39
  -3   1  15   32.93    5.78
  -3   1  15   35.24    6.54
   3  -1 -15   39.50    6.70
   3  -1 -15   36.16    6.04
  -3   1  14   33.22    6.14
  -3   1  14   41.55    6.08
   3  -1 -14   35.82    6.01
   3  -1 -14   35.87    5.71
  -3   1  13   16.88    3.87
  -3   1  13   14.84    4.11
   3  -1 -13   10.08    3.09
   3  -1 -13   11.15    3.26
  -3   1  12   25.31    4.32
   3  -1 -12   33.01    4.89
  -3   1  12   23.22    4.72
   3  -1 -12   24.55    4.61
  -3   1  11    0.92    1.23
   3  -1 -11   -1.27    1.46
  -3   1  11    1.31    1.54
   3  -1 -11   -0.28    1.45
  -3   1  10   -0.72    1.33
  -3   1  10    0.20    1.15
   3  -1 -10    1.08    1.34
   3  -1 -10   -0.12    0.86
   3  -1 -10    1.36    1.10
  -3   1   9   69.12    6.10
   3  -1  -9   79.22    5.27
   3  -1  -9   78.81    6.73
  -3   1   9   88.68    7.38
   3  -1  -9   79.09    6.19
  -3   1   8  607.25   16.96
   3  -1  -8  611.05   13.97
  -3   1   8  620.12   18.25
   3  -1  -8  645.94   16.59
   3  -1  -8  598.08   17.60
  -3   1   7   28.47    3.49
  -3   1   7   33.95    4.20
   3  -1  -7   32.66    3.06
   3  -1  -7   35.91    4.12
   3  -1  -7   36.68    3.71
  -3   1   6 1728.44   25.33
  -3   1   6 1708.51   26.93
   3  -1  -6 1668.37   20.84
  -3   1   6 1711.92   16.19
   3  -1  -6 1699.92   23.20
   3  -1  -6 1659.06   25.90
  -3   1   5  199.31    8.08
   3  -1  -5  200.07    6.93
  -3   1   5  213.61    8.84
  -3   1   5  202.94    8.73
   3  -1  -5  228.88    7.78
  -3   1   5  203.33    4.91
   3  -1  -4   60.64    3.63
  -3   1   4   66.04    4.68
  -3   1   4   66.27    4.64
  -3   1   4   63.18    2.31
   3  -1  -4   62.98    3.77
  -3   1   4   60.24    4.24
   3  -1  -3 1631.12   13.79
   3  -1  -3 1588.69   18.01
  -3   1   3 1616.16   21.54
  -3   1   3 1584.07    9.40
  -3   1   3 1660.93   22.35
   3  -1  -3 1623.25   17.10
  -3   1   3 1648.62   20.79
   3  -1  -2 2284.23   21.25
   3  -1  -2 2372.52   25.23
  -3   1   2 2359.01   25.06
   3  -1  -2 2326.97   11.41
   3  -1  -2 2302.64   12.50
   3  -1  -2 2272.69   18.09
  -3   1   2 2336.31   25.45
  -3   1   2 2363.41   23.95
   3  -1  -1 1200.65   17.51
  -3   1   1 1289.09   18.04
  -3   1   1 1223.72    8.44
   3  -1  -1 1217.05   11.31
  -3   1   1 1229.80   16.99
   3  -1  -1 1147.79   15.31
   3  -1   0  407.19   10.08
  -3   1   0  412.49   10.26
   3  -1   0  411.66    5.47
  -3   1   0  383.81    9.51
  -3   1   0  398.95    9.28
   3  -1   0  405.05    9.25
  -3   1  -1 1458.21   19.71
   3  -1   1 1472.89   19.31
  -3   1  -1 1427.36   17.37
   3  -1   1 1459.10   18.23
  -3   1  -1 1436.62   18.73
  -3   1  -2   33.78    3.16
  -3   1  -2   32.72    1.96
  -3   1  -2   30.15    2.58
   3  -1   2   32.22    2.94
   3  -1   2   32.69    2.91
  -3   1  -3  375.26   11.05
  -3   1  -3  374.88    6.33
   3  -1   3  387.70   10.52
  -3   1  -3  389.64    9.52
   3  -1   3  395.11   10.53
  -3   1  -4  247.98    5.91
   3  -1   4  244.06    8.80
  -3   1  -4  249.71    5.12
  -3   1  -4  254.79    8.20
   3  -1   4  253.08    8.91
  -3   1  -4  247.95    9.56
  -3   1  -5    1.40    0.53
  -3   1  -5    2.44    1.03
   3  -1   5    1.10    0.93
   3  -1   5    2.34    1.38
  -3   1  -5    0.69    0.85
   3  -1   5    1.14    0.92
  -3   1  -6 1287.16   21.18
   3  -1   6 1279.13   27.98
  -3   1  -6 1324.70   13.70
   3  -1   6 1257.32   22.16
  -3   1  -6 1277.70   24.69
   3  -1   6 1261.37   22.00
   3  -1   7  114.49    7.77
   3  -1   7  132.68    9.51
   3  -1   7  124.28    7.33
  -3   1  -7  126.67    8.29
  -3   1  -7  132.33    7.22
   3  -1   7  130.91    7.52
  -3   1  -7  138.12    4.69
   3  -1   8  772.84   21.15
   3  -1   8  769.43   19.13
   3  -1   8  772.78   19.01
   3  -1   8  760.70   24.21
  -3   1  -8  776.01   18.73
  -3   1  -8  776.19   21.76
  -3   1  -8  695.54   11.31
  -3   1  -9   11.39    1.64
  -3   1  -9   11.60    2.71
   3  -1   9    9.99    2.70
  -3   1  -9   13.56    3.32
   3  -1   9   11.99    2.59
   3  -1   9    7.77    2.16
   3  -1   9    9.00    3.28
   3  -1  10  241.14   12.94
   3  -1  10  244.65   11.88
   3  -1  10  227.63   14.80
   3  -1  10  265.60   12.30
  -3   1 -10  252.65   12.15
  -3   1 -10  241.79   13.84
  -3   1 -11   16.67    3.35
   3  -1  11   16.21    3.24
   3  -1  11   14.05    3.32
   3  -1  11   12.51    3.94
  -3   1 -11   16.91    3.88
   3  -1  11   16.28    3.33
  -3   1 -12   58.18    6.62
   3  -1  12   52.84    6.71
   3  -1  12   65.31    6.66
   3  -1  12   53.31    6.08
   3  -1  12   46.73    7.45
   3  -1  13   19.65    4.50
   3  -1  13   21.93    5.30
  -3   1 -13   22.33    4.30
   3  -1  14   24.52    5.04
  -3   1 -14   45.16    6.64
   3  -1  14   29.50    6.53
  -3   1 -14   39.35    5.79
   3  -1  15    4.03    2.92
   3  -1  15   -0.14    1.17
  -3   1 -15    0.36    1.33
  -3   1 -15    2.01    2.50
   3  -1  16    0.93    2.27
   3  -1  16    3.61    2.40
  -3   1 -16    4.79    2.55
  -3   1 -16    0.91    1.70
  -3   1 -17   18.88    4.93
   3  -1  17   29.61    7.52
  -3   1 -17   23.93    5.35
  -3   0  18   69.12    8.82
  -3   0  18   85.01   12.05
  -3   0  17   58.64    7.92
  -3   0  17   68.84   10.48
   3   0 -17   65.96    8.70
   3   0 -17   66.66    9.22
  -3   0  16  129.30   11.24
   3   0 -16  109.61   11.30
  -3   0  16  129.98   13.65
   3   0 -16  132.68   11.78
  -3   0  15   87.88    8.93
   3   0 -15   86.34    9.47
  -3   0  15   86.59   10.40
   3   0 -15   84.61    9.01
  -3   0  14   13.70    3.60
  -3   0  14   16.50    4.47
  -3   0  14   13.68    2.85
   3   0 -14    9.51    3.19
   3   0 -14   18.81    4.04
  -3   0  13  147.44   10.40
  -3   0  13  148.49   12.20
   3   0 -13  132.56   10.63
  -3   0  13  164.32    9.32
   3   0 -12    3.10    1.94
  -3   0  12    9.00    2.69
  -3   0  12   10.92    3.63
  -3   0  12   10.74    2.47
   3   0 -12   10.44    3.15
  -3   0  11  613.37   19.22
   3   0 -11  580.89   17.45
  -3   0  11  610.57   22.07
  -3   0  11  639.32   16.27
   3   0 -11  595.50   20.08
  -3   0  10   10.76    2.92
   3   0 -10   11.53    2.44
  -3   0  10   13.62    2.88
  -3   0  10    9.83    2.04
   3   0 -10   14.41    3.14
  -3   0   9  526.18   16.04
  -3   0   9  520.60   18.18
   3   0  -9  523.57   16.76
   3   0  -9  503.33   14.76
  -3   0   9  523.90   13.02
  -3   0   8   33.58    3.91
   3   0  -8   26.82    3.28
   3   0  -8   31.68    3.85
  -3   0   8   36.92    4.63
  -3   0   8   29.60    2.89
   3   0  -7    0.49    0.77
  -3   0   7    1.96    1.16
  -3   0   7    0.72    0.54
   3   0  -7    0.91    0.95
  -3   0   7    1.09    0.85
  -3   0   6  138.03    6.94
   3   0  -6  127.96    6.78
  -3   0   6  143.99    8.03
  -3   0   6  136.80    7.57
  -3   0   6  130.40    5.20
   3   0  -6  127.43    6.44
   3   0  -5  877.49   16.44
  -3   0   5  898.35   18.90
  -3   0   5  884.92   16.57
  -3   0   5  871.57   12.26
  -3   0   5  917.30   18.37
   3   0  -5  906.70   16.48
   3   0  -4  341.84    9.47
   3   0  -4  351.82    9.87
  -3   0   4  342.83    7.24
  -3   0   4  350.24   10.81
  -3   0   4  348.27    9.84
   3   0  -3 1279.42   18.12
  -3   0   3 1281.83   13.37
  -3   0   3 1304.35   19.93
  -3   0   3 1302.28   18.28
   3   0  -2 4344.87   32.43
  -3   0   2 4316.52   24.20
  -3   0   2 4375.45   33.04
   3   0  -1  170.75    6.32
   3   0  -1  190.05    6.67
  -3   0   1  168.97    4.92
   3   0  -1  178.00    2.94
  -3   0   1  164.85    6.40
  -3   0   1  167.08    6.78
  -3   0   0 1700.45   20.78
   3   0   0 1657.10   19.62
  -3   0   0 1671.92   21.60
   3   0   0 1703.32   19.33
   3   0   0 1663.94   10.66
  -3   0   0 1659.72   14.80
  -3   0  -1  210.93    7.85
   3   0   1  214.16    6.78
   3   0   1  219.23    7.26
  -3   0  -1  209.20    5.14
  -3   0  -1  222.77    6.60
  -3   0  -1  210.04    7.92
  -3   0  -2   14.85    1.77
  -3   0  -2   15.37    2.26
  -3   0  -2   14.33    1.50
   3   0   2   16.86    2.13
  -3   0  -2   13.20    2.08
   3   0   2   14.52    1.81
  -3   0  -2   14.51    1.10
  -3   0  -3  165.90    7.73
  -3   0  -3  144.38    5.45
  -3   0  -3  157.68    5.36
   3   0   3  149.70    5.95
  -3   0  -3  157.91    7.47
   3   0   3  156.91    6.62
  -3   0  -4  113.84    5.04
   3   0   4  112.82    7.30
  -3   0  -4  108.29    4.85
   3   0   4  110.32    5.75
   3   0   4  101.91    5.17
  -3   0  -4  105.78    6.57
  -3   0  -5 1272.21   17.01
  -3   0  -5 1292.24   18.67
   3   0   5 1298.16   26.19
  -3   0  -5 1253.06   23.97
   3   0   5 1272.15   19.31
   3   0   5 1261.83   20.44
   3   0   6   24.86    2.88
   3   0   6   24.92    3.97
   3   0   6   26.31    3.13
  -3   0  -6   25.10    3.71
  -3   0  -6   23.83    2.81
   3   0   7  273.76   10.54
   3   0   7  281.49   12.92
   3   0   7  273.24   10.01
  -3   0  -7  306.71   13.26
  -3   0  -7  278.08   10.21
   3   0   7  273.22   13.56
  -3   0  -8  196.60   11.33
   3   0   8  176.44   10.72
   3   0   8  173.39    8.35
   3   0   8  184.78   11.74
   3   0   8  172.39    8.76
  -3   0  -8  173.98    8.73
   3   0   9  127.59    9.50
   3   0   9  122.78    7.36
   3   0   9  129.53    8.02
   3   0   9  134.70   10.67
  -3   0  -9  135.16    8.32
  -3   0  -9  132.25    9.85
  -3   0  -9  108.71    7.08
  -3   0 -10    6.23    2.09
   3   0  10    1.45    1.22
  -3   0 -10    3.00    1.87
   3   0  10    3.04    2.11
   3   0  10    1.05    1.56
  -3   0 -10    1.98    1.20
   3   0  10    2.43    1.47
   3   0  11  237.51   14.09
   3   0  11  209.55   14.62
  -3   0 -11  202.10   13.54
   3   0  11  228.99   11.66
  -3   0 -11  238.15   12.60
  -3   0 -11  213.22   11.49
  -3   0 -12    3.57    2.14
  -3   0 -12    4.45    1.75
   3   0  12    3.05    2.12
   3   0  12    1.89    1.18
   3   0  12    7.77    3.37
   3   0  13   21.70    5.31
   3   0  13   16.69    3.47
   3   0  13   12.16    3.54
  -3   0 -13   19.35    3.92
  -3   0 -13   24.58    4.70
  -3   0 -14    8.40    3.06
   3   0  14    9.99    3.91
   3   0  14    5.68    2.38
  -3   0 -14   13.20    3.59
   3   0  15   68.89    8.93
   3   0  15   74.36   10.52
  -3   0 -15   80.76    9.25
  -3   0 -15   75.51    8.62
   3   0  16   -0.29    3.04
   3   0  16   -3.54    2.46
  -3   0 -16    2.66    2.29
  -3   0 -16   -1.63    2.72
   3   0  17   28.92    7.22
   3   0  17   34.74    6.79
  -3   0 -17   43.09    7.16
  -3   0 -17   27.57    6.07
  -3  -1  18    8.14    3.03
  -3  -1  18   22.15    5.85
  -3  -1  17   31.73    5.66
  -3  -1  17   23.39    6.24
   3   1 -17   23.65    5.46
   3   1 -17   35.66    6.36
  -3  -1  16   92.55   11.51
   3   1 -16   85.76    9.86
  -3  -1  16   93.49    9.23
  -3  -1  15    9.06    3.03
  -3  -1  15    6.58    3.47
  -3  -1  15    6.40    2.35
   3   1 -15    4.01    2.48
  -3  -1  14   61.99    6.91
  -3  -1  14   61.63    8.47
   3   1 -14   59.05    7.42
  -3  -1  14   63.77    6.43
  -3  -1  13   68.13    8.46
   3   1 -13   67.17    6.80
   3   1 -13   70.31    7.66
  -3  -1  13   73.23    6.52
  -3  -1  13   74.97    7.21
   3   1 -12   11.81    2.95
  -3  -1  12   21.68    3.89
  -3  -1  12   19.03    4.47
  -3  -1  12   16.98    2.98
   3   1 -12   20.50    3.98
  -3  -1  11   41.92    4.94
  -3  -1  11   41.93    5.94
   3   1 -11   23.85    3.85
   3   1 -11   43.55    5.40
  -3  -1  11   41.74    4.48
   3   1 -11   38.18    4.59
   3   1 -10   23.89    3.53
   3   1 -10   15.71    3.11
  -3  -1  10   16.58    2.99
  -3  -1  10   14.07    3.38
  -3  -1  10   18.12    2.86
   3   1 -10   22.81    3.73
  -3  -1   9   80.49    6.07
   3   1  -9   83.77    6.54
   3   1  -9   89.42    6.71
  -3  -1   9   92.70    7.88
  -3  -1   9   92.13    5.88
   3   1  -9   83.85    6.17
  -3  -1   8  137.93    8.98
  -3  -1   8  150.66    7.13
   3   1  -8  147.07    8.27
   3   1  -8  149.60    8.14
   3   1  -8  146.27    7.64
  -3  -1   8  142.75    7.61
  -3  -1   7  209.72    9.98
  -3  -1   7  193.58   10.14
   3   1  -7  194.22    9.08
   3   1  -7  202.75    8.79
  -3  -1   7  209.60    7.93
   3   1  -7  207.58    8.64
  -3  -1   7  194.43    8.40
   3   1  -6  176.95    8.36
  -3  -1   6  185.96    8.91
   3   1  -6  187.71    7.86
  -3  -1   6  179.44    6.97
   3   1  -6  187.15    7.66
  -3  -1   6  200.20    8.05
  -3  -1   5  306.04    8.64
   3   1  -5  336.66   11.09
  -3  -1   5  326.14   11.07
   3   1  -5  324.05    9.43
  -3  -1   5  315.93    9.67
   3   1  -5  313.66    9.43
  -3  -1   4  348.68   10.94
  -3  -1   4  337.72    8.88
   3   1  -4  353.18   10.94
  -3  -1   4  340.21    9.72
   3   1  -4  348.16    8.85
   3   1  -4  337.82    9.12
  -3  -1   3  614.51   13.94
   3   1  -3  628.84   14.03
   3   1  -3  632.16   10.43
  -3  -1   3  621.30   14.42
  -3  -1   3  601.56   11.61
  -3  -1   3  614.74   12.81
   3   1  -3  614.60   11.37
   3   1  -2  136.21    6.32
  -3  -1   2  124.54    5.31
  -3  -1   2  128.08    6.19
   3   1  -2  141.34    5.03
  -3  -1   2  135.59    6.45
  -3  -1   2  131.97    5.95
   3   1  -1 1462.62   20.13
  -3  -1   1 1430.61   20.25
  -3  -1   1 1458.85   17.93
  -3  -1   1 1448.86   20.78
   3   1  -1 1467.30   14.57
  -3  -1   1 1467.79   13.40
  -3  -1   1 1456.65   19.87
   3   1   0    0.89    0.40
  -3  -1   0    0.82    0.70
   3   1   0    0.73    0.45
   3   1   0    0.20    0.44
  -3  -1   0    0.51    0.65
  -3  -1   0    0.34    0.84
  -3  -1   0    0.54    0.56
  -3  -1   0    0.43    0.23
  -3  -1   0    0.21    0.36
   3   1   0    0.57    0.60
   3   1   1  389.71    8.42
  -3  -1  -1  391.31   10.78
   3   1   1  391.30    8.31
  -3  -1  -1  408.89   10.75
  -3  -1  -1  389.13    8.89
  -3  -1  -1  405.73    4.57
  -3  -1  -1  397.35   11.42
  -3  -1  -1  384.51    6.20
   3   1   1  381.71    5.12
   3   1   1  396.52   10.32
  -3  -1  -2  115.19    5.83
  -3  -1  -2  116.34    3.31
  -3  -1  -2  116.42    6.43
  -3  -1  -2  109.96    5.94
  -3  -1  -2  112.65    3.94
   3   1   2  108.13    4.39
   3   1   2  114.17    5.59
  -3  -1  -3  227.99    9.49
   3   1   3  227.18    6.55
  -3  -1  -3  244.64    5.91
  -3  -1  -3  226.72    6.36
   3   1   3  252.10    8.44
  -3  -1  -3  233.91    8.42
  -3  -1  -3  248.58    9.17
  -3  -1  -4 2592.23   33.69
   3   1   4 2626.48   28.12
  -3  -1  -4 2600.30   22.48
  -3  -1  -4 2562.78   23.94
   3   1   4 2612.82   23.02
   3   1   5   63.38    5.68
  -3  -1  -5   55.83    5.26
  -3  -1  -5   76.59    4.42
  -3  -1  -5   61.53    4.10
   3   1   5   62.85    4.58
   3   1   5   64.75    3.84
  -3  -1  -5   62.77    4.59
   3   1   6  946.62   23.68
   3   1   6  915.64   15.32
   3   1   6  991.66   23.78
  -3  -1  -6  969.04   17.25
   3   1   6  958.33   18.39
  -3  -1  -6  995.10   18.10
  -3  -1  -6  940.76   22.70
   3   1   7   95.33    8.00
   3   1   7  104.47    5.44
   3   1   7   95.49    6.15
   3   1   7  105.20    8.29
  -3  -1  -7  105.09    8.07
  -3  -1  -7   97.76    6.04
  -3  -1  -7  103.02    6.35
   3   1   8   57.83    6.48
   3   1   8   61.99    4.49
   3   1   8   58.10    6.52
  -3  -1  -8   67.23    6.88
  -3  -1  -8   54.70    4.93
   3   1   8   63.63    5.23
  -3  -1  -8   49.40    4.96
   3   1   9   21.97    4.17
   3   1   9   24.91    3.05
   3   1   9   21.84    4.37
  -3  -1  -9   30.30    5.00
  -3  -1  -9   28.88    3.96
   3   1   9   19.91    3.04
  -3  -1  -9   18.78    3.18
   3   1  10   78.40    8.23
   3   1  10   84.15    8.71
  -3  -1 -10   81.53    8.42
  -3  -1 -10   98.44    7.63
   3   1  10   96.38    7.02
  -3  -1 -10   94.57    7.60
   3   1  11  172.55   12.55
   3   1  11  158.77   12.68
  -3  -1 -11  178.76   13.07
  -3  -1 -11  163.59   10.51
  -3  -1 -11  169.37   10.60
   3   1  11  179.56   10.02
   3   1  12   31.35    5.96
   3   1  12   37.37    6.13
  -3  -1 -12   32.53    5.01
  -3  -1 -12   36.80    5.29
   3   1  13  116.52   11.14
   3   1  13  107.95   11.60
  -3  -1 -13  118.41   10.11
  -3  -1 -13  119.03   10.13
   3   1  14  149.62   13.13
   3   1  14  161.58   14.52
  -3  -1 -14  144.97   11.82
  -3  -1 -14  145.43   11.77
   3   1  15  272.62   18.35
   3   1  15  275.23   19.82
  -3  -1 -15  261.96   16.60
  -3  -1 -15  264.27   16.63
   3   1  16    9.90    4.20
   3   1  16    8.79    3.42
  -3  -1 -16    9.50    3.51
  -3  -1 -16    2.00    2.07
  -3  -2  18    6.17    2.53
  -3  -2  17  124.95   14.30
   3   2 -17  111.47   11.64
  -3  -2  16    0.22    1.93
  -3  -2  16    0.19    1.21
  -3  -2  16    2.09    1.81
   3   2 -16    1.10    1.79
  -3  -2  15    1.68    2.54
  -3  -2  15    3.71    1.98
  -3  -2  15    4.12    2.04
   3   2 -15    2.44    1.79
   3   2 -15   -2.00    1.93
   3   2 -14   89.56    8.97
  -3  -2  14   95.73   10.70
  -3  -2  14   89.08    7.87
   3   2 -14   91.64    8.89
   3   2 -14   93.97    8.30
  -3  -2  14   93.42    8.11
   3   2 -13  284.69   14.94
   3   2 -13  266.19   14.62
  -3  -2  13  263.31   12.95
  -3  -2  13  265.89   16.80
   3   2 -13  292.15   13.86
  -3  -2  13  280.53   13.46
  -3  -2  12  192.93   13.62
   3   2 -12  194.82   11.79
  -3  -2  12  203.74   10.93
   3   2 -12  205.86   11.12
  -3  -2  12  198.24   10.82
  -3  -2  11  540.69   17.03
  -3  -2  11  526.78   21.19
   3   2 -11  497.20   17.73
   3   2 -11  519.47   16.90
  -3  -2  11  514.98   16.52
  -3  -2  10   55.90    5.26
  -3  -2  10   58.74    6.89
   3   2 -10   61.72    5.85
  -3  -2  10   50.08    4.97
   3   2 -10   59.56    5.56
   3   2  -9   12.82    2.63
   3   2  -9   13.01    2.58
   3   2  -9    9.14    2.52
  -3  -2   9   12.95    2.92
  -3  -2   9    8.02    2.62
  -3  -2   9    9.11    2.11
  -3  -2   9    7.94    2.10
   3   2  -8   22.08    3.09
   3   2  -8   16.20    3.08
   3   2  -8   17.38    2.56
  -3  -2   8   14.58    3.23
  -3  -2   8   18.53    2.81
  -3  -2   8    9.25    2.51
  -3  -2   8   21.95    2.96
  -3  -2   7  170.82    9.72
   3   2  -7  159.79    8.93
  -3  -2   7  151.36    8.55
   3   2  -7  157.11    7.54
  -3  -2   7  159.49    7.62
  -3  -2   7  167.25    7.58
   3   2  -7  173.70    8.14
  -3  -2   6  277.93   10.92
  -3  -2   6  263.01    9.47
   3   2  -6  283.00    9.35
  -3  -2   6  277.63   11.78
   3   2  -6  295.76   11.66
  -3  -2   6  274.43    9.27
   3   2  -6  279.66    9.65
   3   2  -5  607.55   16.21
  -3  -2   5  613.67   15.52
   3   2  -5  626.45   12.68
  -3  -2   5  617.74   14.02
  -3  -2   5  625.36   13.58
   3   2  -5  644.01   13.86
   3   2  -4 2674.33   23.23
  -3  -2   4 2592.83   30.49
  -3  -2   4 2570.32   28.10
  -3  -2   4 2616.70   27.47
   3   2  -4 2632.71   26.30
  -3  -2   3  284.89    9.77
   3   2  -3  284.63   10.37
  -3  -2   3  289.13   10.03
   3   2  -3  291.11    6.63
  -3  -2   3  278.92    9.13
  -3  -2   3  276.05    8.86
   3   2  -3  300.13    8.35
   3   2  -2  438.44   12.32
  -3  -2   2  431.40   11.77
  -3  -2   2  420.18   11.70
   3   2  -2  446.93    6.55
  -3  -2   2  433.58   11.31
  -3  -2   2  444.11    9.44
  -3  -2   2  425.55   11.09
   3   2  -2  442.38    9.42
  -3  -2   1  759.84   15.17
   3   2  -1  827.81   16.34
  -3  -2   1  776.52   16.78
  -3  -2   1  830.24   16.35
  -3  -2   1  783.56   15.47
  -3  -2   1  804.95   13.27
   3   2  -1  804.72   11.69
  -3  -2   0  194.99    7.58
   3   2   0  193.85    7.81
  -3  -2   0  204.42    7.95
  -3  -2   0  200.48    8.54
  -3  -2   0  204.02    8.26
  -3  -2   0  199.23    7.13
  -3  -2   0  192.23    5.70
   3   2   0  203.47    5.32
   3   2   1  405.64   11.06
  -3  -2  -1  358.07   10.39
   3   2   1  392.98   10.31
  -3  -2  -1  394.38   11.93
  -3  -2  -1  378.70   11.91
   3   2   1  388.02    7.86
  -3  -2  -1  411.84   11.55
  -3  -2  -1  384.45   10.62
  -3  -2  -1  388.62    8.47
   3   2   1  388.59    6.41
   3   2   2  282.49    4.46
   3   2   2  285.69    9.06
  -3  -2  -2  297.61    9.89
  -3  -2  -2  283.47   10.48
  -3  -2  -2  268.45    7.62
   3   2   2  270.21    6.04
  -3  -2  -2  271.29    9.22
   3   2   2  289.64    9.29
  -3  -2  -3  501.64   14.65
   3   2   3  498.60   12.43
   3   2   3  494.00    7.94
  -3  -2  -3  472.46   10.99
  -3  -2  -3  481.38    8.38
  -3  -2  -3  480.88   12.83
  -3  -2  -3  497.93   13.68
   3   2   3  516.84   12.46
  -3  -2  -4    1.67    1.27
   3   2   4    2.46    0.61
   3   2   4    5.16    1.51
  -3  -2  -4    5.14    1.71
  -3  -2  -4    1.63    0.90
  -3  -2  -4    3.42    0.99
   3   2   5  150.19    4.64
  -3  -2  -5  152.60    6.31
   3   2   5  158.29    7.28
  -3  -2  -5  148.38    7.07
  -3  -2  -5  162.79    9.24
   3   2   6  112.68    8.72
   3   2   6   99.41    4.02
   3   2   6  104.27    7.54
  -3  -2  -6  102.53    6.82
  -3  -2  -6  107.64    7.97
  -3  -2  -6   97.28    5.64
  -3  -2  -6  107.49    7.05
   3   2   6  103.18    6.06
  -3  -2  -6  108.56    6.53
   3   2   7   -0.28    1.41
  -3  -2  -7    0.66    1.13
  -3  -2  -7    0.03    0.79
   3   2   7   -0.39    1.29
  -3  -2  -7    1.94    1.35
  -3  -2  -7    0.01    0.72
   3   2   7    0.51    0.68
   3   2   8   78.29    7.91
  -3  -2  -8   92.02    8.34
   3   2   8   85.62    7.78
   3   2   8   87.99    6.02
  -3  -2  -8   82.09    6.07
   3   2   9   62.02    7.40
   3   2   9   43.76    5.83
  -3  -2  -9   52.38    6.55
   3   2   9   48.83    4.70
  -3  -2  -9   46.05    4.99
  -3  -2  -9   49.64    5.56
   3   2  10  143.23   11.55
   3   2  10  141.38   10.94
  -3  -2 -10  114.44   10.21
  -3  -2 -10  118.44    8.43
   3   2  10  115.42    7.49
  -3  -2 -10  122.78    9.14
   3   2  11   -0.18    1.53
   3   2  11   -0.12    1.54
  -3  -2 -11   -0.78    1.75
  -3  -2 -11    0.92    0.99
  -3  -2 -11   -0.01    0.95
   3   2  12   -0.79    2.15
   3   2  12    1.70    1.75
  -3  -2 -12    1.92    1.54
  -3  -2 -12    4.19    2.02
   3   2  13  108.49   11.32
  -3  -2 -13  104.11    9.55
   3   2  13  114.40   11.58
  -3  -2 -13   97.10    9.66
   3   2  14  101.93   11.42
   3   2  14   91.67   10.81
  -3  -2 -14   78.04    9.03
   3   2  15   15.42    4.75
  -3  -2 -15   17.35    5.53
  -3  -2 -15   10.65    3.85
  -3  -2 -16   65.39    8.98
  -3  -3  18    4.07    2.57
  -3  -3  17   67.19   10.66
   3   3 -17   71.84    9.36
  -3  -3  17   71.11    8.47
   3   3 -16    2.30    1.78
  -3  -3  16    3.52    1.97
  -3  -3  16    4.02    2.11
   3   3 -16    2.63    1.82
   3   3 -16    0.56    1.73
  -3  -3  15  150.94   14.40
   3   3 -15  135.49   11.83
  -3  -3  15  137.21   10.83
   3   3 -15  132.90   11.57
   3   3 -15  139.50   10.55
   3   3 -14    4.27    2.17
  -3  -3  14    5.12    2.07
  -3  -3  14    3.16    2.61
  -3  -3  14    5.23    2.39
   3   3 -14    5.22    2.43
   3   3 -13  198.70   12.53
  -3  -3  13  206.32   14.94
  -3  -3  13  207.87   12.30
   3   3 -13  207.19   11.79
  -3  -3  13  212.63   11.35
  -3  -3  12   39.33    6.17
   3   3 -12   47.38    5.92
  -3  -3  12   42.55    5.99
  -3  -3  12   46.56    5.56
   3   3 -12   43.25    5.32
  -3  -3  12   54.46    5.50
  -3  -3  11  342.32   17.60
  -3  -3  11  401.82   15.61
  -3  -3  11  344.75   16.09
   3   3 -11  372.46   15.25
   3   3 -11  365.65   14.48
  -3  -3  11  348.15   13.08
  -3  -3  10   62.12    7.22
   3   3 -10   73.75    6.46
  -3  -3  10   73.82    6.39
  -3  -3  10   75.90    7.17
  -3  -3  10   65.25    5.53
   3   3 -10   81.28    6.63
   3   3  -9    1.59    1.24
   3   3  -9    4.22    1.99
  -3  -3   9    0.91    1.04
   3   3  -9    2.52    1.46
  -3  -3   9    5.30    2.54
  -3  -3   9    1.12    1.44
  -3  -3   9    2.66    1.56
  -3  -3   8  213.55   10.02
   3   3  -8  210.99   11.30
  -3  -3   8  201.07   10.45
   3   3  -8  211.01    9.41
  -3  -3   8  215.25    8.94
  -3  -3   8  219.43   11.92
   3   3  -8  217.44    9.85
   3   3  -7 1008.33   19.11
   3   3  -7  957.53   23.18
  -3  -3   7 1002.54   22.10
  -3  -3   7  981.13   20.83
  -3  -3   7  974.84   18.19
  -3  -3   7 1019.20   24.22
   3   3  -7 1039.23   20.65
  -3  -3   6  185.11    9.79
   3   3  -6  183.46    8.32
   3   3  -6  173.24    7.30
   3   3  -6  176.24    9.65
  -3  -3   6  170.80    8.53
  -3  -3   6  168.55    8.61
  -3  -3   6  175.84    7.50
   3   3  -5    3.57    1.00
  -3  -3   5    1.75    1.19
   3   3  -5    0.63    0.93
  -3  -3   5    2.19    1.03
  -3  -3   5    5.08    1.66
   3   3  -5    4.49    1.35
  -3  -3   5    3.28    1.37
  -3  -3   4  666.11   14.37
   3   3  -4  661.83   17.51
  -3  -3   4  655.18   15.75
  -3  -3   4  645.01   15.87
   3   3  -4  659.35   11.42
   3   3  -4  679.32   14.47
   3   3  -3  186.79    9.05
  -3  -3   3  181.10    8.04
   3   3  -3  184.94    5.24
  -3  -3   3  166.50    8.06
  -3  -3   3  171.69    7.29
   3   3  -3  174.43    7.07
   3   3  -2   29.50    2.78
  -3  -3   2   30.53    3.27
   3   3  -2   31.42    1.78
   3   3  -2   27.16    3.42
  -3  -3   2   29.56    3.31
  -3  -3   2   32.39    3.56
  -3  -3   2   30.09    3.04
   3   3  -1    5.00    1.14
  -3  -3   1    3.39    1.17
   3   3  -1    4.04    0.47
   3   3  -1    3.72    1.40
  -3  -3   1    6.53    1.73
  -3  -3   1    3.19    1.20
  -3  -3   1    1.63    0.78
  -3  -3   1    2.78    1.24
   3   3   0 1412.42   17.02
  -3  -3   0 1440.45   20.70
   3   3   0 1454.19   22.86
  -3  -3   0 1443.75   23.01
  -3  -3   0 1478.64   23.98
  -3  -3   0 1437.89   19.26
  -3  -3   0 1473.64   22.63
   3   3   1    1.58    0.64
   3   3   1    4.20    1.43
  -3  -3  -1    2.40    1.26
  -3  -3  -1    2.40    0.98
   3   3   1    1.83    0.57
   3   3   1    2.21    1.04
  -3  -3  -1    1.63    1.18
  -3  -3  -1    3.26    1.42
  -3  -3  -1    1.92    0.74
  -3  -3  -1    0.56    0.68
   3   3   2  410.53    7.88
   3   3   2  419.55   11.87
  -3  -3  -2  430.18   14.44
  -3  -3  -2  433.23   11.66
  -3  -3  -2  415.99   13.31
  -3  -3  -2  455.86   13.78
  -3  -3  -2  437.46   13.58
   3   3   2  419.66    6.38
  -3  -3  -2  419.87   11.31
   3   3   2  444.61   12.90
  -3  -3  -3   15.78    2.40
  -3  -3  -3   18.17    3.00
  -3  -3  -3   20.41    3.30
   3   3   3   14.82    2.33
   3   3   3   17.79    2.75
   3   3   3   15.84    1.46
  -3  -3  -3   18.53    3.05
  -3  -3  -3   16.38    2.42
   3   3   4  910.99    9.92
   3   3   4  932.53   19.80
  -3  -3  -4  928.49   21.89
  -3  -3  -4  890.68   21.34
  -3  -3  -4  938.95   21.80
  -3  -3  -4  891.84   18.46
   3   3   4  930.09   17.65
   3   3   5  120.11    8.93
  -3  -3  -5  116.82    8.07
  -3  -3  -5  116.38    7.85
  -3  -3  -5  126.62    8.61
   3   3   5  125.86    6.59
  -3  -3  -5  121.34    7.19
   3   3   6  496.06   19.03
  -3  -3  -6  467.54   17.06
  -3  -3  -6  482.27   14.75
  -3  -3  -6  466.69   12.70
  -3  -3  -6  481.69   16.33
  -3  -3  -6  478.41   17.71
   3   3   6  469.02   12.95
  -3  -3  -6  454.67   14.74
   3   3   7   22.23    2.92
  -3  -3  -7   16.67    2.79
  -3  -3  -7   18.86    3.66
   3   3   7   27.23    4.81
  -3  -3  -7   27.84    3.78
  -3  -3  -7   19.48    3.47
  -3  -3  -7   24.68    4.49
  -3  -3  -7   19.13    3.34
  -3  -3  -8    0.01    1.43
   3   3   8    0.71    1.46
  -3  -3  -8   -0.46    1.09
  -3  -3  -8   -0.87    1.27
   3   3   8    0.07    1.30
   3   3   8    0.11    0.78
  -3  -3  -8    0.06    0.88
  -3  -3  -8   -0.40    1.00
  -3  -3  -9   -0.46    1.30
   3   3   9    0.50    1.82
  -3  -3  -9    2.87    2.47
   3   3   9    2.93    1.75
  -3  -3  -9    2.38    1.85
  -3  -3  -9    1.77    1.20
  -3  -3  -9    2.76    1.53
  -3  -3 -10    9.44    2.69
   3   3  10   19.31    4.63
  -3  -3 -10   14.18    3.74
  -3  -3 -10   18.81    4.48
   3   3  10   16.19    3.76
  -3  -3 -10   23.36    3.96
  -3  -3 -10   19.79    3.99
   3   3  11   80.94    9.43
  -3  -3 -11   70.64    7.40
  -3  -3 -11   72.78    7.23
   3   3  11   81.13    8.57
  -3  -3 -11   88.66   10.12
  -3  -3 -11   81.96    8.45
  -3  -3 -11   86.60    9.71
  -3  -3 -12    1.72    1.89
   3   3  12    8.37    3.25
  -3  -3 -12    5.50    2.76
   3   3  13  226.91   17.04
  -3  -3 -13  241.84   15.97
  -3  -3 -13  264.56   18.82
   3   3  14  136.10   13.76
  -3  -3 -14  115.54   13.14
  -3  -3 -14  112.50   11.40
  -3  -3 -15   -2.26    2.13
  -3  -4  18   54.91    8.83
  -3  -4  18   53.14    7.98
   3   4 -18   41.23    6.57
  -3  -4  17   37.83    7.00
   3   4 -17   40.28    6.32
  -3  -4  17   52.60    9.68
   3   4 -17   40.24    7.04
  -3  -4  17   38.02    6.47
   3   4 -17   37.52    6.78
  -3  -4  16    2.32    1.95
  -3  -4  16    1.54    1.84
   3   4 -16    2.61    1.67
   3   4 -16    3.90    2.11
  -3  -4  16    3.69    2.01
   3   4 -16    5.78    2.94
   3   4 -15   10.39    3.28
  -3  -4  15   18.48    5.67
  -3  -4  15   10.47    3.51
   3   4 -15    8.82    3.28
  -3  -4  15   16.03    4.02
   3   4 -15   11.87    3.67
   3   4 -14   34.87    5.69
   3   4 -14   39.81    5.66
  -3  -4  14   35.76    6.03
  -3  -4  14   43.93    7.75
  -3  -4  14   40.42    6.05
   3   4 -13   21.04    4.02
   3   4 -13   19.34    4.07
  -3  -4  13   17.55    4.67
  -3  -4  13   18.02    3.93
  -3  -4  13   19.63    4.32
  -3  -4  12  122.42   10.09
   3   4 -12  113.17    9.05
  -3  -4  12  113.17   10.90
  -3  -4  12  107.78    9.03
   3   4 -12  127.51    9.20
   3   4 -11    3.00    1.66
  -3  -4  11   -0.53    0.84
   3   4 -11    2.76    1.50
  -3  -4  11    5.26    2.68
  -3  -4  11    4.16    1.85
  -3  -4  11    8.22    2.96
  -3  -4  10  187.84   10.95
  -3  -4  10  192.91   12.69
   3   4 -10  180.05   10.03
  -3  -4  10  187.45   11.23
  -3  -4  10  168.22    8.49
   3   4 -10  189.45   10.38
  -3  -4   9   76.65    7.69
  -3  -4   9   75.10    6.78
   3   4  -9   68.74    7.12
   3   4  -9   71.95    6.02
  -3  -4   9   68.94    6.45
  -3  -4   9   65.36    5.08
   3   4  -9   69.96    6.17
   3   4  -8  348.51   12.32
  -3  -4   8  317.95   14.73
   3   4  -8  307.81   14.41
  -3  -4   8  318.97   13.22
  -3  -4   8  324.39   13.39
  -3  -4   8  330.00   11.00
   3   4  -8  352.44   13.15
  -3  -4   7  572.16   16.79
  -3  -4   7  572.10   18.69
   3   4  -7  585.72   19.27
   3   4  -7  573.50   14.69
  -3  -4   7  573.28   17.45
  -3  -4   7  575.28   14.09
   3   4  -7  605.44   16.74
  -3  -4   6 1091.82   24.56
  -3  -4   6 1049.83   21.92
   3   4  -6 1027.66   24.86
   3   4  -6 1087.80   18.68
  -3  -4   6 1097.61   23.59
  -3  -4   6 1104.74   19.13
   3   4  -6 1086.46   21.55
   3   4  -5  401.12   12.64
  -3  -4   5  416.33   15.40
  -3  -4   5  394.37   12.89
   3   4  -5  410.44   15.12
  -3  -4   5  392.25   13.85
   3   4  -5  392.83   10.35
  -3  -4   5  395.02   13.99
  -3  -4   5  401.41   11.56
   3   4  -4  612.31   15.14
   3   4  -4  640.14   18.38
  -3  -4   4  602.49   18.45
  -3  -4   4  591.69   15.39
   3   4  -4  610.21   11.60
  -3  -4   4  613.38   17.28
   3   4  -3   91.89    5.63
  -3  -4   3   88.74    5.88
   3   4  -3   94.48    4.07
  -3  -4   3   90.15    7.09
   3   4  -3   92.26    6.82
  -3  -4   3   91.25    6.00
  -3  -4   3   87.58    6.45
   3   4  -2  524.20   13.09
  -3  -4   2  512.73   13.59
   3   4  -2  540.58   15.91
  -3  -4   2  545.86   14.40
  -3  -4   2  536.13   15.80
  -3  -4   2  523.81   14.50
  -3  -4   2  552.37   17.33
  -3  -4   2  559.59   13.78
   3   4  -2  525.98    8.52
   3   4  -1 1992.99   29.48
  -3  -4   1 1975.76   25.34
  -3  -4   1 1955.47   32.83
  -3  -4   1 1932.52   27.16
  -3  -4   1 1972.88   30.38
   3   4  -1 1971.54   14.51
  -3  -4   1 1894.49   28.25
   3   4  -1 1933.90   24.27
  -3  -4   1 1979.67   25.89
  -3  -4   0  159.36    8.67
  -3  -4   0  172.64    9.81
  -3  -4   0  151.48    6.83
  -3  -4   0  138.18    7.43
   3   4   0  153.76    8.01
   3   4   0  158.15    6.65
  -3  -4   0  148.52    8.17
   3   4   0  144.94    3.75
  -3  -4   0  146.66    7.23
   3   4   1 1198.40   21.65
   3   4   1 1172.61   23.33
  -3  -4  -1 1181.97   26.05
  -3  -4  -1 1203.93   22.64
  -3  -4  -1 1217.34   24.28
  -3  -4  -1 1196.06   18.88
  -3  -4  -1 1238.39   24.44
  -3  -4  -1 1223.05   21.32
   3   4   1 1195.83   17.63
   3   4   1 1172.51   11.88
   3   4   2   20.23    2.25
   3   4   2   19.78    3.16
  -3  -4  -2   22.97    2.68
  -3  -4  -2   17.58    3.35
  -3  -4  -2   15.44    3.08
  -3  -4  -2   17.97    3.28
  -3  -4  -2   11.15    2.25
   3   4   2   18.89    1.83
  -3  -4  -2   14.72    2.70
   3   4   2   18.93    2.74
   3   4   3 1004.21   15.00
  -3  -4  -3 1010.96   22.50
   3   4   3 1052.72   22.64
  -3  -4  -3  972.55   17.88
  -3  -4  -3  982.47   24.30
  -3  -4  -3  976.05   23.61
  -3  -4  -3  997.37   20.69
   3   4   3 1001.63   19.20
   3   4   4  748.72   12.39
   3   4   4  740.80   22.34
   3   4   4  762.19   19.61
  -3  -4  -4  732.37   20.00
  -3  -4  -4  715.23   21.03
  -3  -4  -4  726.70   21.24
  -3  -4  -4  711.95   18.30
   3   4   4  726.12   16.19
   3   4   5  614.56   21.28
  -3  -4  -5  607.87   19.20
  -3  -4  -5  587.34   19.32
   3   4   5  608.47   14.86
  -3  -4  -5  563.81   19.68
  -3  -4  -5  599.99   17.66
   3   4   6    1.00    0.98
  -3  -4  -6    0.62    0.67
  -3  -4  -6    1.79    1.58
   3   4   6    1.04    1.32
  -3  -4  -6    2.09    1.79
  -3  -4  -6    0.64    1.35
  -3  -4  -6    0.90    1.04
   3   4   7  259.47   14.99
  -3  -4  -7  230.65   13.06
  -3  -4  -7  242.53   13.00
  -3  -4  -7  244.49   10.89
  -3  -4  -7  244.34   14.30
   3   4   7  261.65    9.93
  -3  -4  -7  234.87   12.22
   3   4   8  443.38   20.47
  -3  -4  -8  416.32   18.52
  -3  -4  -8  420.74   19.65
  -3  -4  -8  427.29   17.25
   3   4   9   12.78    3.75
  -3  -4  -9   15.78    3.91
  -3  -4  -9   10.38    3.46
  -3  -4  -9    8.87    2.40
   3   4  10  169.25   13.55
  -3  -4 -10  178.20   13.44
  -3  -4 -10  156.08   13.28
  -3  -4 -10  157.83   11.75
   3   4  11   16.92    4.57
  -3  -4 -11   15.18    4.25
  -3  -4 -11   21.41    5.56
  -3  -4 -11   19.96    4.52
   3   4  12   -2.71    2.49
  -3  -4 -12    3.89    3.19
  -3  -4 -12    4.06    2.90
   3   4  13   10.48    4.01
  -3  -4 -13   19.14    5.60
  -3  -4 -13   12.70    3.96
   3   4  14   20.05    5.76
  -3  -4 -14   16.39    5.19
  -3  -4 -14   13.29    4.57
   3   5 -18    1.64    2.22
  -3  -5  18    1.68    1.89
   3   5 -17   22.64    4.83
  -3  -5  17   19.72    5.98
  -3  -5  17   23.43    5.65
  -3  -5  17   20.63    4.93
   3   5 -17   23.65    5.85
   3   5 -17   22.55    5.42
   3   5 -16   16.74    4.51
   3   5 -16   20.15    4.58
  -3  -5  16    3.81    2.57
  -3  -5  16   17.36    4.67
   3   5 -16    7.75    3.16
  -3  -5  16   19.48    4.78
  -3  -5  15  157.42   15.15
   3   5 -15  141.03   13.13
   3   5 -15  153.58   12.45
  -3  -5  15  142.89   12.61
  -3  -5  15  162.21   13.02
   3   5 -15  150.25   11.54
   3   5 -14   18.52    4.16
   3   5 -14   19.61    4.20
   3   5 -14   23.55    5.28
  -3  -5  14   27.55    6.19
  -3  -5  14   25.76    5.30
  -3  -5  14   17.75    4.29
  -3  -5  13  167.03   12.48
   3   5 -13  167.57   11.65
  -3  -5  13  150.05   11.62
  -3  -5  13  161.48   14.00
   3   5 -13  168.75   11.38
   3   5 -12    0.71    1.14
   3   5 -12    1.37    1.54
  -3  -5  12    0.53    1.31
  -3  -5  12   -0.53    1.22
  -3  -5  12    0.59    1.66
  -3  -5  11   86.61    8.10
   3   5 -11   89.46    7.65
  -3  -5  11   88.39    8.38
  -3  -5  11   85.93    9.20
   3   5 -11   89.62    7.74
  -3  -5  10   49.08    5.85
   3   5 -10   51.22    5.56
  -3  -5  10   52.06    6.24
  -3  -5  10   48.68    6.64
   3   5 -10   60.74    7.32
   3   5 -10   43.49    5.39
  -3  -5   9  582.64   18.94
   3   5  -9  561.30   21.29
  -3  -5   9  637.59   22.61
   3   5  -9  621.52   17.98
  -3  -5   9  624.35   20.67
  -3  -5   9  572.49   14.77
   3   5  -9  643.60   19.39
  -3  -5   8  174.66   11.23
  -3  -5   8  169.61    9.77
   3   5  -8  169.93   11.44
   3   5  -8  165.02    8.68
  -3  -5   8  178.14   11.34
  -3  -5   8  175.59   10.75
  -3  -5   8  181.98    8.03
   3   5  -8  178.80   10.00
  -3  -5   7   34.49    4.90
  -3  -5   7   31.15    4.08
   3   5  -7   35.50    3.79
  -3  -5   7   38.30    5.02
  -3  -5   7   39.20    3.76
   3   5  -7   43.05    4.93
   3   5  -7   44.95    5.77
  -3  -5   7   38.23    5.19
   3   5  -6  486.28   15.56
  -3  -5   6  484.33   15.17
  -3  -5   6  469.75   16.54
   3   5  -6  481.94   17.97
   3   5  -6  488.83   13.13
  -3  -5   6  448.24   16.57
  -3  -5   6  480.56   18.06
   3   5  -5   77.20    6.04
   3   5  -5   84.07    7.29
  -3  -5   5   85.23    6.71
  -3  -5   5   84.88    7.59
  -3  -5   5   74.48    5.71
   3   5  -5   80.15    4.92
  -3  -5   5   81.66    6.96
   3   5  -4   21.48    3.19
  -3  -5   4   19.22    3.73
  -3  -5   4   27.07    3.61
  -3  -5   4   23.48    3.23
   3   5  -4   26.58    2.66
  -3  -5   4   31.43    4.35
   3   5  -4   26.74    4.12
   3   5  -3  294.34   11.16
   3   5  -3  274.19   12.39
  -3  -5   3  294.03   12.15
  -3  -5   3  264.68   13.33
  -3  -5   3  265.56   10.46
  -3  -5   3  257.80   12.14
   3   5  -3  264.27    7.68
   3   5  -2  554.20   14.89
  -3  -5   2  585.66   17.17
  -3  -5   2  582.51   15.41
   3   5  -2  566.55   17.30
  -3  -5   2  599.87   19.87
  -3  -5   2  589.69   18.11
   3   5  -2  592.27   10.60
  -3  -5   2  592.37   15.96
   3   5  -1  827.15   17.83
  -3  -5   1  792.16   18.18
  -3  -5   1  842.97   16.82
  -3  -5   1  830.78   23.36
  -3  -5   1  814.60   21.57
   3   5  -1  833.88   11.92
  -3  -5   1  848.99   21.31
  -3  -5   1  828.31   18.86
   3   5  -1  803.80   19.98
   3   5   0    0.21    0.73
   3   5   0    1.63    1.22
   3   5   0    0.59    0.48
  -3  -5   0    0.58    0.70
  -3  -5   0    1.92    1.59
   3   5   0    1.85    1.13
  -3  -5   0    1.35    1.43
  -3  -5   0    1.28    1.29
  -3  -5   0    0.35    0.80
  -3  -5   0    0.35    0.80
   3   5   1  407.04   11.83
   3   5   1  392.05   13.25
   3   5   1  387.76   14.89
  -3  -5  -1  411.67   11.06
  -3  -5  -1  383.32   16.17
  -3  -5  -1  428.15   15.67
  -3  -5  -1  385.21   15.11
  -3  -5  -1  392.64   13.39
  -3  -5  -1  398.73   13.76
   3   5   1  402.95    8.61
   3   5   2   43.42    3.81
   3   5   2   41.10    4.25
  -3  -5  -2   32.05    3.98
   3   5   2   38.00    4.81
  -3  -5  -2   36.22    4.93
  -3  -5  -2   30.49    4.68
  -3  -5  -2   43.32    5.18
  -3  -5  -2   34.36    4.20
   3   5   2   41.44    3.07
  -3  -5  -2   39.60    3.45
   3   5   3   60.95    5.04
   3   5   3   56.64    4.25
   3   5   3   49.52    5.76
   3   5   3   58.70    5.90
  -3  -5  -3   48.20    5.85
  -3  -5  -3   49.41    5.18
  -3  -5  -3   64.14    6.34
  -3  -5  -3   64.63    6.74
  -3  -5  -3   57.24    5.69
  -3  -5  -3   58.71    4.27
   3   5   4  163.69   10.98
  -3  -5  -4  178.20   11.44
   3   5   4  180.82   10.52
  -3  -5  -4  157.98   10.82
  -3  -5  -4  171.25   10.10
   3   5   4  187.14    8.57
  -3  -5  -4  147.72    9.16
   3   5   5  620.41   22.13
   3   5   5  646.45   20.15
  -3  -5  -5  621.84   20.19
  -3  -5  -5  605.78   21.36
  -3  -5  -5  618.53   22.24
  -3  -5  -5  613.80   19.46
   3   5   5  645.34   15.76
   3   5   6  107.02    9.66
  -3  -5  -6   90.01    8.06
  -3  -5  -6   99.62    8.83
  -3  -5  -6   97.03    9.20
  -3  -5  -6  102.73    8.26
   3   5   7   19.29    4.52
  -3  -5  -7   13.07    3.45
  -3  -5  -7    3.77    1.91
  -3  -5  -7   10.60    2.98
  -3  -5  -7   10.22    3.25
  -3  -5  -8   29.30    5.12
   3   5   8   32.67    6.06
  -3  -5  -8   35.18    6.20
  -3  -5  -8   32.70    5.24
   3   5   9    1.25    1.83
  -3  -5  -9    1.07    1.47
  -3  -5  -9    0.33    1.50
  -3  -5  -9    1.71    1.90
  -3  -5 -10   -2.16    2.10
   3   5  10   -4.44    2.77
  -3  -5 -10    0.19    1.67
  -3  -5 -10    0.64    1.30
   3   5  11   18.00    4.93
  -3  -5 -11   20.20    5.54
  -3  -5 -11   22.42    5.08
   3   5  12   59.37    9.10
  -3  -5 -12   58.71    9.50
  -3  -5 -12   54.19    8.15
   3   5  13   12.21    4.58
  -3  -5 -13    2.56    2.00
  -3  -5 -13   14.01    4.47
   3   6 -17   13.07    4.19
   3   6 -17    5.48    3.25
  -3  -6  17    5.41    3.34
   3   6 -16    4.28    2.09
   3   6 -16   10.87    3.45
  -3  -6  16   13.61    4.24
  -3  -6  16    5.62    2.64
   3   6 -16   10.62    4.20
   3   6 -15   10.91    3.70
   3   6 -15    8.57    2.89
   3   6 -15   11.13    4.00
  -3  -6  15   11.15    4.57
  -3  -6  15    6.09    2.86
  -3  -6  15    9.64    3.35
   3   6 -14   11.86    3.53
   3   6 -14    9.63    3.29
  -3  -6  14   12.35    3.83
  -3  -6  14    3.54    2.69
  -3  -6  14   10.25    3.35
   3   6 -14    9.65    3.69
   3   6 -13   33.72    5.50
   3   6 -13   35.74    5.57
  -3  -6  13   38.90    6.00
  -3  -6  13   32.44    5.81
   3   6 -13   30.78    6.09
  -3  -6  13   21.93    4.80
  -3  -6  13   29.16    6.34
   3   6 -12   25.88    4.60
   3   6 -12   29.25    4.88
   3   6 -12   30.00    5.74
  -3  -6  12   29.70    5.46
  -3  -6  12   23.29    4.55
  -3  -6  12   22.43    4.74
  -3  -6  12   26.39    5.71
   3   6 -11  321.86   18.27
  -3  -6  11  305.98   17.88
  -3  -6  11  333.32   15.82
   3   6 -11  315.52   14.70
  -3  -6  11  298.32   16.47
  -3  -6  11  322.42   16.83
   3   6 -11  323.91   15.45
   3   6 -10    3.03    1.59
   3   6 -10    8.00    2.67
  -3  -6  10    4.65    1.90
  -3  -6  10    4.54    2.28
  -3  -6  10    1.85    1.55
   3   6 -10    3.15    2.20
  -3  -6  10    9.30    3.10
   3   6  -9    4.55    1.93
   3   6  -9    2.47    1.38
  -3  -6   9    3.90    2.26
  -3  -6   9    3.28    2.28
  -3  -6   9    4.30    2.26
  -3  -6   9    5.95    2.09
   3   6  -9    8.98    3.23
  -3  -6   9    1.15    1.56
   3   6  -8    0.07    1.04
   3   6  -8    0.46    1.24
  -3  -6   8   -0.68    1.23
  -3  -6   8    0.04    1.37
   3   6  -8    1.53    1.61
  -3  -6   8    0.66    1.33
  -3  -6   8    0.09    0.77
  -3  -6   8   -0.14    1.62
   3   6  -7  208.36   11.16
  -3  -6   7  203.80   11.90
  -3  -6   7  194.93   11.57
   3   6  -7  186.82   12.22
  -3  -6   7  188.36   10.00
  -3  -6   7  194.46   12.53
   3   6  -7  215.26    9.69
  -3  -6   7  184.53   11.65
   3   6  -6  147.87    9.29
  -3  -6   6  135.99   10.38
  -3  -6   6  139.86    9.37
  -3  -6   6  134.04    8.14
  -3  -6   6  124.15    8.76
   3   6  -6  137.55    7.32
  -3  -6   6  122.34    9.39
   3   6  -6  124.66    9.75
   3   6  -5  303.40   12.96
  -3  -6   5  309.85   11.98
   3   6  -5  288.50   14.33
  -3  -6   5  305.94   15.45
   3   6  -5  319.66   10.56
  -3  -6   5  307.25   13.08
  -3  -6   5  325.33   15.04
   3   6  -4   10.60    2.51
   3   6  -4    6.98    1.59
  -3  -6   4    8.43    2.15
  -3  -6   4    5.65    2.22
  -3  -6   4    5.97    1.87
  -3  -6   4    9.42    2.70
   3   6  -4    7.72    2.54
   3   6  -3   26.09    3.80
   3   6  -3   26.81    2.78
   3   6  -3   21.92    3.83
  -3  -6   3   20.08    4.20
  -3  -6   3   27.70    4.25
  -3  -6   3   21.74    3.94
  -3  -6   3   24.35    3.27
   3   6  -2    0.29    1.13
   3   6  -2    1.55    0.98
   3   6  -2    0.78    0.61
  -3  -6   2   -0.74    0.75
  -3  -6   2   -0.12    1.35
  -3  -6   2   -1.12    1.78
  -3  -6   2    0.07    1.26
  -3  -6   2    0.04    0.91
   3   6  -1   -0.22    0.99
  -3  -6   1    1.73    1.09
  -3  -6   1    0.04    0.67
  -3  -6   1    2.27    1.85
  -3  -6   1   -0.40    1.15
  -3  -6   1    0.82    1.26
   3   6  -1    1.54    0.86
  -3  -6   1    1.19    1.32
   3   6   0   51.44    4.89
  -3  -6   0   58.86    5.19
  -3  -6   0   66.15    4.54
  -3  -6   0   56.05    6.75
   3   6   0   63.81    6.54
  -3  -6   0   59.85    6.36
  -3  -6   0   69.40    6.89
  -3  -6   0   59.61    5.70
   3   6   0   57.01    5.53
   3   6   1  162.35    8.37
   3   6   1  150.68    8.76
   3   6   1  152.83    9.73
  -3  -6  -1  158.18   10.59
  -3  -6  -1  165.64    8.95
  -3  -6  -1  145.87   10.77
   3   6   1  154.88   10.20
  -3  -6  -1  161.57   10.39
  -3  -6  -1  159.31    9.55
   3   6   2  477.03   14.22
  -3  -6  -2  459.80   15.55
   3   6   2  441.15   14.49
   3   6   2  437.76   17.35
   3   6   2  435.84   17.29
  -3  -6  -2  435.42   16.36
  -3  -6  -2  456.13   17.67
  -3  -6  -2  436.85   18.21
  -3  -6  -2  446.06   19.09
   3   6   3    4.60    2.23
   3   6   3    2.60    1.81
  -3  -6  -3    1.19    1.49
  -3  -6  -3    0.67    1.24
   3   6   3    3.01    1.39
  -3  -6  -3    1.26    1.39
  -3  -6  -3    0.30    1.12
  -3  -6  -3    2.89    2.14
  -3  -6  -4   -0.08    1.05
   3   6   4    2.22    1.97
  -3  -6  -4    2.73    2.01
   3   6   4   -0.08    1.33
   3   6   4    0.41    0.79
  -3  -6  -4    0.89    1.79
  -3  -6  -4    0.39    0.98
  -3  -6  -5    1.09    1.27
   3   6   5    2.32    2.12
   3   6   5    4.43    2.27
  -3  -6  -5    6.51    2.25
  -3  -6  -5    4.20    2.44
  -3  -6  -5    3.60    1.64
   3   6   6  134.96   11.21
  -3  -6  -6  147.32   11.57
  -3  -6  -6  123.68   11.25
  -3  -6  -6  131.54   10.13
  -3  -6  -6  137.49   10.30
   3   6   7   39.11    6.46
  -3  -6  -7   47.50    6.39
  -3  -6  -7   40.03    6.19
  -3  -6  -7   39.71    6.74
  -3  -6  -7   38.52    5.70
   3   6   8  289.39   17.77
  -3  -6  -8  267.52   15.89
  -3  -6  -8  263.94   17.77
  -3  -6  -8  262.15   15.41
   3   6   9   36.86    6.63
  -3  -6  -9   36.12    7.09
  -3  -6  -9   36.45    6.01
   3   6  10   55.80    8.45
  -3  -6 -10   61.80    9.42
  -3  -6 -10   49.87    7.46
  -3  -6 -11   -0.08    2.18
   3   6  11   -0.36    2.27
  -3  -6 -11   -5.50    2.83
  -3  -6 -12   10.69    4.43
   3   6  12   11.65    4.49
  -3  -6 -12   10.36    3.77
   3   7 -16   -1.96    2.31
  -3  -7  16    7.60    3.36
  -3  -7  16    1.53    1.75
   3   7 -16    5.59    3.12
  -3  -7  15   95.07   12.38
  -3  -7  15   98.85   11.26
   3   7 -15  112.09   12.66
   3   7 -15  118.96   11.13
   3   7 -15  101.85   10.22
   3   7 -14   -0.16    2.13
   3   7 -14    1.32    1.68
  -3  -7  14   -1.88    1.44
  -3  -7  14   -0.70    2.48
  -3  -7  14    4.02    2.75
   3   7 -14    0.54    1.88
   3   7 -13   16.74    3.84
   3   7 -13   15.44    4.00
   3   7 -13   15.42    4.60
  -3  -7  13    9.11    4.05
  -3  -7  13   19.63    4.82
  -3  -7  13   17.63    4.51
  -3  -7  12  308.57   19.32
  -3  -7  12  282.79   17.22
   3   7 -12  327.20   16.12
  -3  -7  12  277.77   17.28
   3   7 -12  293.96   18.83
   3   7 -12  301.37   16.16
   3   7 -11   39.46    5.39
   3   7 -11   37.54    5.60
  -3  -7  11   21.28    5.16
  -3  -7  11   26.87    5.30
   3   7 -11   27.67    5.79
  -3  -7  11   42.78    6.74
  -3  -7  10  395.98   19.42
  -3  -7  10  432.52   20.20
  -3  -7  10  429.33   20.80
   3   7 -10  443.86   16.94
   3   7 -10  410.44   20.88
  -3  -7  10  380.51   19.42
   3   7 -10  447.41   18.60
  -3  -7   9   57.77    7.28
  -3  -7   9   55.48    7.06
  -3  -7   9   58.30    7.56
  -3  -7   9   63.09    7.75
   3   7  -9   74.42    6.64
   3   7  -9   53.78    7.49
   3   7  -9   68.10    7.20
   3   7  -8  293.80   14.48
  -3  -7   8  277.81   15.11
  -3  -7   8  270.71   14.81
  -3  -7   8  262.24   15.75
   3   7  -8  255.46   15.73
   3   7  -8  316.22   12.90
  -3  -7   8  289.83   15.90
   3   7  -7   22.09    4.05
   3   7  -7   24.22    3.48
  -3  -7   7   16.62    3.62
  -3  -7   7   16.76    4.19
  -3  -7   7   19.47    4.32
  -3  -7   7   11.68    2.75
   3   7  -7   14.70    3.78
  -3  -7   7   16.60    3.66
   3   7  -6  250.80   12.95
  -3  -7   6  260.39   13.34
   3   7  -6  260.94   10.69
  -3  -7   6  217.54   11.82
   3   7  -6  238.50   14.15
  -3  -7   6  220.06   14.13
  -3  -7   6  231.04   10.77
  -3  -7   6  251.94   14.37
   3   7  -5   17.83    3.47
   3   7  -5   12.74    2.43
  -3  -7   5    4.21    1.77
  -3  -7   5   18.54    4.33
  -3  -7   5    7.25    2.06
  -3  -7   5   22.64    4.45
   3   7  -5   17.53    3.80
   3   7  -4   45.35    5.38
  -3  -7   4   37.60    4.22
  -3  -7   4   45.24    4.84
   3   7  -4   44.36    5.81
  -3  -7   4   40.75    6.17
  -3  -7   4   39.75    5.71
   3   7  -3 1218.34   27.01
  -3  -7   3 1234.34   23.32
  -3  -7   3 1140.80   31.73
  -3  -7   3 1214.46   30.68
  -3  -7   3 1254.42   30.22
   3   7  -3 1176.34   28.90
   3   7  -2   23.39    4.14
   3   7  -2   27.27    3.97
  -3  -7   2   17.43    2.93
  -3  -7   2   21.31    4.63
  -3  -7   2   31.57    5.13
  -3  -7   2   30.14    4.93
  -3  -7   2   24.39    3.99
   3   7  -1  465.51   16.21
   3   7  -1  417.97   15.40
   3   7  -1  465.36   17.23
  -3  -7   1  463.51   20.29
  -3  -7   1  452.18   18.57
  -3  -7   1  478.24   17.37
  -3  -7   1  441.57   18.37
  -3  -7   1  461.82   14.51
   3   7   0    4.61    1.83
   3   7   0    6.03    2.59
  -3  -7   0    4.09    2.28
   3   7   0    4.03    1.72
   3   7   0    0.76    1.25
  -3  -7   0    1.03    1.18
  -3  -7   0    0.85    1.66
  -3  -7   0    3.14    2.43
  -3  -7   0    4.15    1.95
   3   7   1    0.01    0.95
   3   7   1   -0.89    1.23
   3   7   1   -0.81    0.94
  -3  -7  -1    1.29    1.70
  -3  -7  -1   -0.30    1.65
   3   7   1    1.55    1.65
  -3  -7  -1   -0.65    1.41
  -3  -7  -1   -1.35    1.62
  -3  -7  -1    0.01    0.80
   3   7   2   21.62    3.36
   3   7   2   12.70    2.65
  -3  -7  -2    7.65    2.30
   3   7   2   17.06    3.83
  -3  -7  -2   13.54    3.85
   3   7   2   13.96    3.34
  -3  -7  -2   15.17    3.92
  -3  -7  -2   27.55    4.77
  -3  -7  -2   14.72    3.39
   3   7   3   42.46    6.03
   3   7   3   53.87    6.69
  -3  -7  -3   38.57    6.29
  -3  -7  -3   37.80    4.85
  -3  -7  -3   50.03    6.47
  -3  -7  -3   52.86    7.25
  -3  -7  -3   48.90    6.16
   3   7   4  832.97   26.89
  -3  -7  -4  858.76   28.86
   3   7   4  829.98   26.14
  -3  -7  -4  836.53   25.86
  -3  -7  -4  822.31   28.50
  -3  -7  -4  885.91   24.24
   3   7   5    7.04    2.77
  -3  -7  -5   18.01    4.11
  -3  -7  -5   10.89    2.87
  -3  -7  -5   10.08    3.29
  -3  -7  -5   11.76    3.68
   3   7   5   17.31    4.14
   3   7   6   83.07    9.24
  -3  -7  -6   96.89    8.91
  -3  -7  -6   90.04    9.63
  -3  -7  -6   94.28   10.58
  -3  -7  -6   78.17    8.41
  -3  -7  -7   41.73    6.16
   3   7   7   30.94    5.80
  -3  -7  -7   44.13    7.01
  -3  -7  -7   22.77    5.41
  -3  -7  -7   36.20    6.02
  -3  -7  -8    2.21    1.59
   3   7   8    2.02    1.55
  -3  -7  -8    2.11    2.41
  -3  -7  -8    0.26    1.44
   3   7   9    4.33    2.60
  -3  -7  -9    2.57    2.59
  -3  -7  -9    1.32    2.08
   3   7  10   12.12    4.10
  -3  -7 -10   23.48    6.27
  -3  -7 -10   14.17    4.33
  -3  -7 -11    1.87    2.33
   3   8 -15   10.53    3.72
  -3  -8  15    8.48    4.27
  -3  -8  15   14.24    4.58
   3   8 -14    4.51    2.63
   3   8 -14    1.52    2.12
   3   8 -14    7.30    3.25
  -3  -8  14   11.80    4.90
  -3  -8  14    3.53    2.21
  -3  -8  13  230.00   17.96
   3   8 -13  213.63   17.38
  -3  -8  13  237.57   16.78
   3   8 -13  230.58   14.47
  -3  -8  13  254.69   17.97
   3   8 -13  244.11   15.67
   3   8 -12  117.36   10.60
   3   8 -12  126.74   10.21
  -3  -8  12  109.63   11.96
  -3  -8  12  100.14   10.91
  -3  -8  12  117.59   11.99
   3   8 -12  108.55   12.05
  -3  -8  11   56.91    8.05
   3   8 -11   75.92    7.70
   3   8 -11   59.46    8.85
  -3  -8  11   52.62    8.05
  -3  -8  11   59.99    8.43
   3   8 -11   70.89    8.22
  -3  -8  10  111.42   10.91
   3   8 -10  150.48   10.21
  -3  -8  10  110.55   11.11
   3   8 -10  118.31   11.76
  -3  -8  10  125.14   11.69
   3   8 -10  140.76   11.08
   3   8  -9   10.45    3.68
   3   8  -9   12.96    3.65
  -3  -8   9    9.99    3.47
  -3  -8   9    8.99    3.03
  -3  -8   9    6.14    2.91
  -3  -8   9    9.82    3.31
   3   8  -8   -0.68    1.52
  -3  -8   8    0.64    1.69
  -3  -8   8   -1.62    2.21
   3   8  -8    3.98    2.68
  -3  -8   8    2.85    2.35
  -3  -8   8   -4.58    2.11
   3   8  -7  100.88    8.89
  -3  -8   7   91.49    8.79
   3   8  -7   84.56    9.23
  -3  -8   7   77.81    7.62
  -3  -8   7   82.84    9.49
  -3  -8   7   84.11    9.09
   3   8  -6  541.05   20.19
  -3  -8   6  504.77   22.85
   3   8  -6  498.11   21.50
  -3  -8   6  521.03   21.99
   3   8  -5    3.73    2.05
  -3  -8   5    8.63    3.49
  -3  -8   5    3.49    2.53
   3   8  -5    3.27    1.85
   3   8  -4   49.48    5.97
   3   8  -4   42.85    5.96
  -3  -8   4   52.92    7.03
  -3  -8   4   50.43    7.35
   3   8  -3   41.28    5.42
   3   8  -3   38.30    5.54
  -3  -8   3   45.28    6.42
  -3  -8   3   34.31    5.85
  -3  -8   3   33.57    5.55
   3   8  -2    1.44    1.19
  -3  -8   2   -4.12    2.29
  -3  -8   2   -0.39    1.65
  -3  -8   2    1.21    1.52
  -3  -8   2    2.09    1.95
   3   8  -2   -0.14    1.14
   3   8  -1  106.03    8.40
   3   8  -1  102.67    9.60
   3   8  -1  100.77    8.46
  -3  -8   1   94.36    9.80
  -3  -8   1  116.85   10.18
  -3  -8   1  103.80    9.70
  -3  -8   1  114.48    9.27
   3   8   0   10.39    2.67
   3   8   0    5.97    2.09
  -3  -8   0    5.77    3.05
   3   8   0   10.94    2.71
  -3  -8   0   10.59    3.27
  -3  -8   0    9.28    3.33
  -3  -8   0   11.13    3.42
   3   8   0   11.90    3.60
   3   8   1   30.85    4.43
   3   8   1   28.69    4.27
   3   8   1   28.34    5.31
  -3  -8  -1   22.74    5.01
   3   8   1   21.18    4.08
  -3  -8  -1   29.69    5.30
  -3  -8  -1   25.98    5.46
  -3  -8  -1   23.42    4.49
   3   8   2   14.67    3.44
   3   8   2   12.14    3.56
  -3  -8  -2   16.91    4.59
  -3  -8  -2   17.19    4.20
  -3  -8  -2   11.65    3.73
  -3  -8  -2   19.66    4.34
   3   8   3  224.94   13.98
  -3  -8  -3  216.82   15.36
   3   8   3  227.33   14.57
  -3  -8  -3  235.02   16.09
  -3  -8  -3  262.19   15.41
  -3  -8  -3  218.89   13.90
   3   8   4   30.75    5.59
   3   8   4   25.66    4.89
  -3  -8  -4   17.62    4.76
  -3  -8  -4   25.76    5.71
  -3  -8  -4   17.69    4.26
   3   8   5  248.91   15.90
   3   8   5  259.33   15.77
  -3  -8  -5  248.65   16.90
  -3  -8  -5  227.26   16.61
  -3  -8  -5  255.14   15.83
   3   8   6  246.38   16.30
  -3  -8  -6  251.46   17.99
  -3  -8  -6  251.80   16.11
  -3  -8  -6  245.14   17.04
   3   8   7   59.68    8.45
  -3  -8  -7   47.78    8.21
  -3  -8  -7   53.45    7.77
  -3  -8  -8    0.15    1.57
   3   8   8    3.04    1.93
  -3  -8  -8    1.80    1.33
   3   8   9   66.54    9.49
  -3  -8  -9   58.25    9.63
  -3  -8  -9   51.18    8.01
  -3  -9  14   13.21    4.92
   3   9 -13    0.05    2.02
   3   9 -13    3.80    2.55
  -3  -9  13    1.60    2.04
  -3  -9  13    5.96    3.07
   3   9 -12    1.82    2.01
   3   9 -12    2.57    1.88
  -3  -9  12    0.82    1.73
  -3  -9  12    1.46    1.67
  -3  -9  12   -0.64    2.04
   3   9 -11    7.04    3.00
  -3  -9  11    4.45    3.03
  -3  -9  11    4.95    2.62
   3   9 -11   13.48    4.44
   3   9 -10   15.26    4.15
  -3  -9  10   22.94    5.61
   3   9 -10   18.04    5.07
  -3  -9  10   19.44    5.19
   3   9  -9   36.28    5.98
   3   9  -9   29.94    6.22
  -3  -9   9   26.86    6.09
  -3  -9   9   44.28    7.30
   3   9  -8    0.46    1.44
   3   9  -8   -0.65    2.46
  -3  -9   8    1.15    1.82
  -3  -9   8    2.57    1.95
   3   9  -7    8.11    2.99
  -3  -9   7   10.33    3.92
  -3  -9   7    6.86    2.90
   3   9  -7    8.20    3.29
   3   9  -6   76.59    8.16
  -3  -9   6   63.68    8.71
   3   9  -6   54.57    7.55
  -3  -9   6   58.54    8.02
   3   9  -5  333.92   18.05
  -3  -9   5  353.20   20.25
  -3  -9   5  349.55   19.22
   3   9  -5  356.87   17.47
   3   9  -4   69.79    7.60
   3   9  -4   63.13    7.54
  -3  -9   4   69.10    9.08
  -3  -9   4   64.72    8.29
   3   9  -3  267.29   14.72
   3   9  -3  241.79   14.45
  -3  -9   3  254.73   17.15
  -3  -9   3  237.89   15.57
  -3  -9   3  255.20   16.10
  -3  -9   2    4.36    2.80
   3   9  -2    2.77    1.43
  -3  -9   2    9.67    3.56
   3   9  -2    4.98    2.65
   3   9  -2    3.42    1.61
  -3  -9   2    2.56    2.01
  -3  -9   2   -1.60    1.92
   3   9  -1  153.46   10.81
   3   9  -1  152.83   10.79
  -3  -9   1  161.99   13.10
   3   9  -1  133.73   11.84
  -3  -9   1  167.82   13.02
  -3  -9   1  155.42   11.75
  -3  -9   1  144.32   13.03
   3   9   0   29.61    4.86
   3   9   0   28.37    5.60
  -3  -9   0   34.73    6.53
  -3  -9   0   23.64    5.21
  -3  -9   0   26.81    5.78
  -3  -9   0   24.22    4.93
  -3  -9  -1   -0.08    1.55
  -3  -9  -1   -0.63    2.07
  -3  -9  -1    0.83    1.63
  -3  -9  -1   -1.37    1.78
   3   9   2  130.67   11.79
  -3  -9  -2  140.99   13.11
  -3  -9  -2  145.86   12.27
  -3  -9  -2  144.68   11.97
  -3  -9  -2  156.18   13.53
  -3  -9  -3    9.25    3.44
   3   9   3    8.23    2.90
   3   9   3    6.35    2.95
  -3  -9  -3    9.22    3.67
  -3  -9  -3    5.05    2.57
  -3  -9  -3   10.29    3.53
   3   9   4   16.30    4.38
   3   9   4   11.52    3.59
  -3  -9  -4   14.86    4.45
  -3  -9  -4   14.90    4.75
  -3  -9  -4   19.07    4.75
   3   9   5    0.71    1.24
   3   9   5   -3.88    2.47
  -3  -9  -5   -1.18    3.12
  -3  -9  -5   -0.78    1.76
   3   9   6  155.99   13.27
  -3  -9  -6  157.85   15.06
  -3  -9  -6  165.10   14.93
  -3  -9  -6  162.08   13.73
   3   9   7    6.45    2.92
  -3  -9  -7    7.70    3.97
  -3  -9  -7    5.09    3.06
   3   9   8    0.67    2.18
  -3  -9  -8   -2.35    2.63
   3  10 -11   27.83    5.71
   3  10 -11   15.35    5.00
  -3 -10  11   25.93    6.16
  -3 -10  11   30.76    6.75
   3  10 -10   16.47    4.50
   3  10 -10   19.13    5.54
  -3 -10  10   11.77    4.40
   3  10  -9   -0.22    1.88
   3  10  -9   -0.66    1.89
  -3 -10   9    1.71    2.14
  -3 -10   9    2.55    2.20
   3  10  -8  310.95   17.72
   3  10  -8  281.69   18.84
  -3 -10   8  289.40   19.72
  -3 -10   8  321.57   20.17
   3  10  -7  158.97   12.73
   3  10  -7  145.19   13.18
  -3 -10   7  157.38   14.44
  -3 -10   7  150.29   13.76
   3  10  -6   71.42    8.48
   3  10  -6   63.83    8.48
  -3 -10   6   78.34   10.21
  -3 -10   6   83.87   10.10
   3  10  -5   49.35    6.97
   3  10  -5   45.30    7.05
  -3 -10   5   37.50    7.11
  -3 -10   5   55.11    8.15
   3  10  -4   84.31    8.92
   3  10  -4   81.09    9.01
  -3 -10   4  101.31   11.66
  -3 -10   4   87.54   10.20
   3  10  -3   -0.66    2.35
  -3 -10   3   -0.97    2.29
  -3 -10   3    0.23    1.60
   3  10  -3   -0.35    1.08
   3  10  -2   29.79    5.26
   3  10  -2   22.35    5.24
  -3 -10   2   27.21    6.20
  -3 -10   2   19.79    4.85
  -3 -10   2   21.56    4.97
  -3 -10   2   19.61    5.01
   3  10  -1  104.11   11.22
  -3 -10   1  112.41   12.21
  -3 -10   1   92.57   10.39
  -3 -10   1   90.44   10.64
  -3 -10   1   98.62   10.15
   3  10   0    1.87    1.93
  -3 -10   0   -1.46    1.79
  -3 -10   0    1.64    2.19
  -3 -10   0    0.62    2.35
  -3 -10   0    1.95    2.88
   3  10   1    6.39    3.20
  -3 -10  -1    3.82    3.10
  -3 -10  -1    3.85    2.52
  -3 -10  -1    6.12    3.59
  -3 -10  -1    5.82    2.67
   3  10   2   -5.92    3.02
  -3 -10  -2    0.27    1.54
  -3 -10  -2    1.37    2.70
  -3 -10  -2    4.17    2.91
  -3 -10  -2   -1.56    2.05
  -3 -10  -3   25.84    6.27
  -3 -10  -3   24.46    5.74
  -3 -10  -3   27.44    5.77
  -3 -10  -4    3.49    2.75
  -3 -10  -4    0.02    1.48
  -3 -10  -4    0.35    2.48
   3  10   4   -0.12    2.24
   3  10   5    6.06    2.77
  -3 -10  -5    4.80    3.20
  -3 -10  -5    7.99    4.03
  -3 -10  -5    5.52    3.09
  -3 -10  -6   18.50    5.27
  -3 -11  10    1.12    2.26
   3  11  -9    1.03    1.26
  -3 -11   9   -1.31    1.91
   3  11  -9    2.22    2.53
   3  11  -8   13.53    3.88
  -3 -11   8   10.55    4.18
   3  11  -8   14.98    4.74
  -3 -11   8    6.88    3.41
   3  11  -7  103.01   10.71
   3  11  -7   90.25   10.90
  -3 -11   7  129.53   13.86
  -3 -11   7  104.85   12.23
   3  11  -6    5.30    2.70
  -3 -11   6   12.68    4.78
  -3 -11   6   14.08    4.31
   3  11  -5  201.58   14.52
  -3 -11   5  154.24   15.11
   3  11  -5  189.30   14.60
  -3 -11   5  193.58   16.05
   3  11  -4    7.73    3.19
  -3 -11   4    5.44    3.07
  -3 -11   4    2.30    1.91
   3  11  -3   48.70    7.13
   3  11  -3   62.03    9.23
  -3 -11   3   63.92    9.43
  -3 -11   3   59.52    9.55
  -3 -11   2   12.39    4.94
   3  11  -2    8.90    3.92
  -3 -11   2   10.21    4.17
  -3 -11   2   11.18    4.27
  -3 -11   1   33.01    6.71
  -3 -11   1   27.38    6.52
   3  11  -1   29.54    6.39
  -3 -11   1   23.24    5.59
  -3 -11   1   27.53    6.42
   3  11   0    9.13    3.59
  -3 -11   0    3.25    2.80
  -3 -11   0    4.36    2.81
  -3 -11   0    1.47    2.13
  -3 -11   0   -3.78    3.58
  -3 -11  -1   10.95    4.45
   3  11   1   13.89    4.14
  -3 -11  -1   15.09    4.72
  -3 -11  -1   14.78    4.93
  -3 -11  -1   14.81    4.44
  -3 -11  -2   37.37    7.03
  -3 -11  -2   38.48    7.69
  -3 -11  -2   34.20    6.66
   3  11   2   36.87    7.17
  -3 -11  -3    2.77    2.37
   3  12  -5   19.14    4.80
  -4  13  -1   94.41   11.22
  -4  13  -2    2.80    3.52
  -4  13  -3   -0.53    6.99
  -4  12   4   15.41    4.48
  -4  12   4   10.08    3.96
  -4  12   3    2.53    1.75
  -4  12   3    4.16    2.67
   4 -12  -3    2.06    2.27
   4 -12  -2   17.34    5.06
  -4  12   2   17.48    4.72
  -4  12   2   10.04    3.49
   4 -12  -2    7.07    3.88
  -4  12   1   -0.31    1.70
  -4  12   1    1.43    2.09
  -4  12   1    2.10    2.12
   4 -12  -1    2.18    1.69
  -4  12   0    0.28    1.30
  -4  12   0    2.52    1.86
   4 -12   0    3.87    2.76
  -4  12  -1  130.24   14.21
  -4  12  -1  120.12   11.94
   4 -12   1  146.36   13.72
  -4  12  -1  131.32   13.17
  -4  12  -2   45.88    8.39
  -4  12  -2   57.21    8.28
   4 -12   2   67.72    9.48
  -4  12  -2   64.34    9.25
  -4  12  -3   31.44    6.38
  -4  12  -3   29.84    6.97
  -4  12  -3   31.07    6.50
  -4  12  -4  157.36   15.56
   4 -12   4  139.29   12.88
  -4  12  -4  149.75   14.09
  -4  12  -5   30.24    7.06
  -4  12  -5   16.38    4.68
   4 -12   5   19.56    5.05
  -4  12  -6   23.57    6.16
  -4  12  -6   32.68    6.65
   4 -12   6   29.79    6.29
   4 -12   7   19.22    5.29
  -4  12  -7   18.38    4.83
   4 -12   8    1.90    2.21
   4 -12   8    4.20    3.19
   4 -12   9    1.34    5.61
  -4  11   7    2.48    2.15
   4 -11  -7   10.50    4.38
  -4  11   6   47.28    8.11
   4 -11  -6   51.44    8.93
   4 -11  -6   61.37    9.45
  -4  11   5   10.75    4.11
  -4  11   5    9.97    3.74
   4 -11  -5   12.05    4.56
   4 -11  -5   14.80    4.65
  -4  11   4   15.91    4.26
  -4  11   4   19.28    5.02
   4 -11  -4   20.02    5.28
   4 -11  -4   15.48    4.68
  -4  11   3   41.50    7.43
  -4  11   3   23.57    5.18
   4 -11  -3   26.42    6.23
   4 -11  -3   44.33    7.65
  -4  11   2    6.80    2.89
  -4  11   2    9.87    3.92
   4 -11  -2    5.04    3.03
   4 -11  -2    5.24    2.68
  -4  11   1   37.24    6.43
  -4  11   1   37.88    6.98
   4 -11  -1   37.10    6.84
   4 -11  -1   33.52    6.74
   4 -11   0   81.95    9.96
  -4  11   0   83.83   10.22
  -4  11   0   78.56    9.31
  -4  11  -1  175.70   15.79
   4 -11   1  196.44   13.88
  -4  11  -1  193.14   14.30
   4 -11   1  218.00   15.80
  -4  11  -1  194.49   15.42
  -4  11  -2  120.16   13.03
  -4  11  -2  121.93   11.46
   4 -11   2  134.26   11.71
   4 -11   2  134.36   12.46
  -4  11  -2  140.03   13.10
  -4  11  -3   23.62    6.00
  -4  11  -3   24.98    5.60
   4 -11   3   22.42    5.03
   4 -11   3   25.50    5.54
  -4  11  -4   83.55   10.87
   4 -11   4   74.37    9.25
  -4  11  -4   85.21   10.13
  -4  11  -5   -4.95    2.94
  -4  11  -5    1.28    2.18
   4 -11   5   -1.61    2.35
   4 -11   5    0.92    1.91
  -4  11  -6  118.73   12.78
   4 -11   6  116.66   11.94
   4 -11   6  122.84   11.60
  -4  11  -6  117.45   12.01
  -4  11  -7    4.97    3.16
   4 -11   7    1.77    1.75
   4 -11   7    1.61    1.75
  -4  11  -7    8.88    3.69
  -4  11  -8  141.92   13.88
   4 -11   8  135.36   13.53
   4 -11   8  140.49   12.91
  -4  11  -8  156.64   14.09
  -4  11  -9    8.29    3.21
  -4  11  -9   11.89    4.02
   4 -11   9    4.60    2.94
   4 -11   9    3.25    2.47
  -4  11 -10  122.24   12.80
   4 -11  10  139.07   14.39
   4 -11  10  122.95   12.67
  -4  10   9   23.09    5.09
   4 -10  -9   27.82    6.63
   4 -10  -8  204.22   17.17
   4 -10  -8  223.71   17.85
  -4  10   8  176.32   15.21
  -4  10   7   28.94    6.27
   4 -10  -7   39.49    7.53
   4 -10  -7   33.37    6.77
  -4  10   6   -2.16    2.69
   4 -10  -6   -0.61    2.85
   4 -10  -6    0.99    1.58
  -4  10   5   12.96    3.64
  -4  10   5   13.89    4.11
   4 -10  -5   12.86    4.33
   4 -10  -5   10.29    3.79
  -4  10   4   31.56    5.69
  -4  10   4   34.18    6.44
   4 -10  -4   39.35    6.94
   4 -10  -4   41.05    7.19
  -4  10   3   54.29    8.03
  -4  10   3   61.69    7.60
   4 -10  -3   68.61    8.88
   4 -10  -3   49.13    7.58
   4 -10  -2   71.76    8.96
  -4  10   2   59.77    7.47
   4 -10  -2   64.83    8.52
  -4  10   2   78.70    9.49
   4 -10  -1   65.20    7.36
  -4  10   1   46.83    6.76
  -4  10   1   55.48    7.90
   4 -10  -1   60.26    8.12
   4 -10  -1   70.34    8.66
   4 -10   0   38.08    5.78
  -4  10   0   34.03    5.76
  -4  10   0   25.86    5.57
   4 -10   0   28.71    5.56
  -4  10  -1   44.65    6.57
  -4  10  -1   53.80    7.80
   4 -10   1   62.63    7.52
   4 -10   1   56.30    7.59
  -4  10  -2    0.19    1.81
  -4  10  -2   -1.06    1.66
  -4  10  -2   -0.33    1.74
   4 -10   2   -1.38    1.42
   4 -10   2    0.02    1.64
  -4  10  -3  127.98   12.64
   4 -10   3  130.76   11.28
   4 -10   3  148.89   10.99
   4 -10   3  123.45   10.94
  -4  10  -3  135.94   12.11
  -4  10  -4   17.84    4.71
   4 -10   4   14.95    4.16
  -4  10  -4   23.00    5.23
   4 -10   4   19.16    4.11
  -4  10  -5   11.35    4.09
   4 -10   5   11.68    3.37
   4 -10   5    8.42    3.31
  -4  10  -5    8.84    3.19
  -4  10  -6   18.43    5.09
   4 -10   6   16.36    4.48
  -4  10  -6   12.31    3.83
   4 -10   6   19.33    4.63
  -4  10  -7    6.58    3.37
   4 -10   7    2.03    2.17
  -4  10  -7    3.11    1.98
   4 -10   7    6.93    2.77
  -4  10  -8   10.29    3.87
   4 -10   8   10.34    3.60
  -4  10  -8    2.67    1.69
   4 -10   8    6.76    2.91
  -4  10  -9   59.62    8.59
   4 -10   9   56.03    8.59
  -4  10  -9   60.56    8.57
   4 -10   9   53.05    7.77
  -4  10 -10    4.72    2.86
  -4  10 -10    0.34    2.04
   4 -10  10    6.61    3.43
   4 -10  10    2.87    2.35
  -4  10 -11   -0.78    1.91
  -4  10 -11    1.17    2.47
   4 -10  11   -0.84    2.38
   4 -10  11   -2.32    2.25
  -4  10 -12    6.50    3.17
   4 -10  12   -1.89    3.55
   4 -10  12    6.25    3.36
  -4  10 -13    3.40    3.88
  -4   9  11    4.05    2.93
   4  -9 -11   -1.74    3.32
  -4   9  10   20.72    4.93
   4  -9 -10   33.29    6.99
   4  -9 -10   19.51    5.45
  -4   9   9   25.15    5.20
   4  -9  -9   30.70    6.69
   4  -9  -9   29.54    6.41
  -4   9   8  137.09   11.21
   4  -9  -8  114.38   12.22
   4  -9  -8  139.78   13.41
  -4   9   7  217.05   13.57
   4  -9  -7  189.93   15.16
   4  -9  -7  212.47   15.98
  -4   9   6   10.05    2.77
   4  -9  -6    8.10    3.11
   4  -9  -6   12.55    3.88
  -4   9   5   21.85    4.44
  -4   9   5   32.45    4.85
  -4   9   5   35.37    6.35
   4  -9  -5   22.89    5.06
   4  -9  -5   29.87    5.77
  -4   9   4    7.02    2.72
  -4   9   4   10.34    3.51
   4  -9  -4    9.64    3.41
   4  -9  -4   15.93    4.23
  -4   9   3   23.65    4.50
  -4   9   3   25.28    5.29
   4  -9  -3   24.81    4.38
   4  -9  -3   15.66    4.20
   4  -9  -3   33.68    5.99
   4  -9  -2  270.57   14.14
   4  -9  -2  253.62   15.50
  -4   9   2  248.21   13.99
   4  -9  -2  272.49   16.08
  -4   9   2  260.16   16.24
   4  -9  -1  426.30   18.01
  -4   9   1  433.33   18.44
   4  -9  -1  435.64   20.14
   4  -9  -1  431.68   19.91
  -4   9   1  438.07   20.79
  -4   9   0  164.02   11.41
   4  -9   0  150.63   10.94
   4  -9   0  165.83   12.30
   4  -9   0  145.48   11.41
  -4   9   0  153.30   12.29
  -4   9  -1    6.22    2.54
  -4   9  -1   14.25    3.86
   4  -9   1   12.72    3.45
   4  -9   1   14.63    3.13
   4  -9   1   11.04    3.19
   4  -9   2   61.66    7.26
   4  -9   2   55.89    6.98
   4  -9   2   56.86    6.20
  -4   9  -2   61.69    7.80
  -4   9  -3   43.72    7.07
  -4   9  -3   48.20    6.94
   4  -9   3   44.74    6.43
   4  -9   3   45.32    5.83
   4  -9   3   58.08    7.02
  -4   9  -4  121.41   11.49
   4  -9   4  111.06   10.23
   4  -9   4  122.66    9.59
  -4   9  -4  102.58    9.90
  -4   9  -5   84.56    9.66
   4  -9   5   79.74    8.67
   4  -9   5   97.00    8.86
  -4   9  -5   79.65    8.82
  -4   9  -6  286.35   17.57
   4  -9   6  265.79   16.48
   4  -9   6  268.84   14.95
  -4   9  -6  294.82   16.99
  -4   9  -7  272.00   16.93
   4  -9   7  267.79   16.91
  -4   9  -7  292.07   15.30
  -4   9  -7  266.85   16.44
   4  -9   7  266.44   16.14
   4  -9   7  260.00   15.12
  -4   9  -8  131.78   11.82
   4  -9   8  122.46   11.46
   4  -9   8  113.13   11.29
  -4   9  -8  122.41   10.37
   4  -9   8  128.47   10.99
  -4   9  -8  115.94   11.02
  -4   9  -9   37.23    6.43
  -4   9  -9   40.03    6.74
   4  -9   9   40.30    6.96
   4  -9   9   37.79    6.24
   4  -9   9   33.33    6.46
  -4   9 -10   52.95    7.63
   4  -9  10   50.96    8.04
   4  -9  10   57.51    7.92
  -4   9 -10   57.65    8.18
   4  -9  10   54.95    8.57
  -4   9 -11   12.83    4.02
  -4   9 -11   10.50    3.53
   4  -9  11   13.75    4.49
   4  -9  11   19.43    5.45
   4  -9  11   15.72    4.54
  -4   9 -12   17.88    4.63
   4  -9  12   12.96    4.76
  -4   9 -12   15.35    4.63
   4  -9  12   11.17    3.88
   4  -9  12    8.71    3.58
  -4   9 -13  106.01   10.62
   4  -9  13  124.23   13.67
   4  -9  13   92.95   12.44
   4  -9  13  130.70   13.04
  -4   9 -13  127.62   12.79
  -4   8  12   45.50    7.50
   4  -8 -12   46.68    8.37
   4  -8 -12   65.21    9.99
   4  -8 -11   -2.28    3.03
   4  -8 -11    1.00    1.57
  -4   8  10  220.00   14.96
   4  -8 -10  203.15   16.21
   4  -8 -10  243.76   17.83
  -4   8   9   11.08    3.36
   4  -8  -9   16.97    4.71
   4  -8  -9    7.97    3.46
  -4   8   8   15.92    3.94
   4  -8  -8   14.05    4.45
   4  -8  -8   10.72    3.80
  -4   8   7  155.35   10.98
   4  -8  -7  131.31   11.88
   4  -8  -7  129.13   11.71
  -4   8   6   93.14    8.13
   4  -8  -6   86.66    9.36
   4  -8  -6   89.01    9.45
  -4   8   5  272.58   13.25
   4  -8  -5  281.98   13.61
   4  -8  -5  282.50   16.33
   4  -8  -5  312.07   17.13
  -4   8   5  271.82   13.90
  -4   8   4  335.98   13.92
  -4   8   4  308.44   14.49
   4  -8  -4  340.43   17.25
   4  -8  -4  360.77   15.40
   4  -8  -4  360.03   17.84
  -4   8   4  303.62   16.91
  -4   8   3  172.38    9.47
   4  -8  -3  162.98   10.44
  -4   8   3  159.05   10.33
   4  -8  -3  158.47   11.51
   4  -8  -3  146.49   11.18
  -4   8   3  162.09   12.19
  -4   8   2   66.91    6.79
   4  -8  -2   57.45    6.87
   4  -8  -2   73.29    7.06
   4  -8  -2   74.52    7.80
  -4   8   2   66.79    7.87
  -4   8   2   74.33    5.90
  -4   8   1  341.32   15.07
   4  -8  -1  343.36   15.40
   4  -8  -1  362.61   16.82
   4  -8  -1  355.21   16.71
  -4   8   1  341.70   17.45
   4  -8   0  229.62   12.74
  -4   8   0  205.87   11.78
   4  -8   0  222.89   10.42
   4  -8   0  221.23   13.09
   4  -8   0  222.65   13.08
  -4   8   0  222.43   13.99
   4  -8   1   30.01    4.81
  -4   8  -1   37.59    5.98
   4  -8   1   26.30    3.91
   4  -8   1   32.70    5.07
   4  -8   2  268.56   14.33
   4  -8   2  276.99   12.47
   4  -8   2  293.06   14.50
  -4   8  -2  294.74   15.94
   4  -8   3  193.96   10.80
  -4   8  -3  174.66    9.53
   4  -8   3  180.25   11.98
   4  -8   3  166.21   10.88
  -4   8  -3  168.36   12.07
  -4   8  -4   22.82    4.84
  -4   8  -4   18.68    3.40
  -4   8  -4   21.06    4.37
   4  -8   4   27.12    4.91
   4  -8   4   25.10    4.10
   4  -8   5    3.24    1.68
  -4   8  -5    1.89    1.53
  -4   8  -5    3.99    1.82
  -4   8  -5    0.31    1.12
   4  -8   5    1.76    1.13
  -4   8  -6   48.90    6.88
   4  -8   6   54.97    7.24
  -4   8  -6   53.24    6.27
   4  -8   6   46.06    5.77
   4  -8   6   41.52    6.11
  -4   8  -6   49.87    6.74
  -4   8  -7   70.48    8.24
   4  -8   7   68.86    8.17
   4  -8   7   67.99    8.13
  -4   8  -7   79.42    8.00
   4  -8   7   73.54    7.58
  -4   8  -7   67.45    7.96
  -4   8  -8   21.22    4.46
   4  -8   8   15.62    4.09
   4  -8   8   15.08    4.36
   4  -8   8   14.28    3.44
  -4   8  -8   14.93    3.85
  -4   8  -9    0.43    1.76
  -4   8  -9   -0.05    1.58
   4  -8   9    0.88    1.85
   4  -8   9   -1.06    1.63
   4  -8   9   -0.75    1.92
  -4   8 -10   24.32    4.81
   4  -8  10   19.42    5.27
  -4   8 -10   23.53    5.10
   4  -8  10   24.15    5.44
   4  -8  10   24.68    5.04
  -4   8 -11   15.69    3.96
  -4   8 -11    9.00    3.60
   4  -8  11    7.42    3.44
   4  -8  11   16.83    4.37
   4  -8  11   15.51    4.47
  -4   8 -12   -0.51    1.82
  -4   8 -12    3.74    2.55
   4  -8  12    6.71    3.38
   4  -8  12    3.38    2.36
  -4   8 -13    3.10    2.17
   4  -8  13    4.78    3.32
   4  -8  13    2.76    2.05
   4  -8  13   -4.61    3.05
  -4   8 -14   21.90    5.50
   4  -8  14   27.46    6.52
   4  -8  14   22.47    6.51
   4  -8  14   25.04    5.89
   4  -7 -14   -5.97    3.31
  -4   7  13   81.70    9.92
   4  -7 -13   55.85    8.95
   4  -7 -13   71.06   10.23
  -4   7  12   -0.57    1.32
   4  -7 -12   -2.04    2.48
   4  -7 -12   -1.38    2.52
   4  -7 -11    8.59    3.56
   4  -7 -11   -0.40    2.72
  -4   7  10   61.77    7.66
   4  -7 -10   68.46    8.98
   4  -7 -10   73.04    9.25
  -4   7   9   52.22    6.75
   4  -7  -9   40.76    6.76
   4  -7  -9   54.24    7.74
  -4   7   8  505.55   19.81
   4  -7  -8  474.23   21.51
   4  -7  -8  504.19   22.36
  -4   7   7   15.58    3.64
   4  -7  -7   12.63    2.93
   4  -7  -7    8.65    3.07
   4  -7  -7    8.97    3.23
  -4   7   6  107.51    8.30
   4  -7  -6  111.27    8.29
   4  -7  -6   83.44    8.44
   4  -7  -6  102.00    9.45
  -4   7   5   64.81    6.19
   4  -7  -5   62.35    6.17
   4  -7  -5   55.92    6.62
   4  -7  -5   67.39    7.51
  -4   7   4   25.34    3.76
  -4   7   4   27.02    3.92
   4  -7  -4   21.82    3.70
   4  -7  -4   25.38    4.43
   4  -7  -4   27.81    4.76
  -4   7   3   42.35    4.49
  -4   7   3   38.03    5.72
  -4   7   3   41.86    4.90
   4  -7  -3   40.98    5.53
   4  -7  -3   38.18    5.27
   4  -7  -3   46.63    5.41
   4  -7  -2  177.73   10.42
  -4   7   2  184.77   10.08
   4  -7  -2  196.93   11.47
   4  -7  -2  183.06   11.40
  -4   7   2  197.36   12.67
  -4   7   2  188.30    9.02
   4  -7  -1   19.15    3.53
  -4   7   1   27.14    4.74
   4  -7  -1   24.18    3.06
   4  -7  -1   26.53    4.19
   4  -7  -1   26.28    4.35
  -4   7   1   23.27    3.73
  -4   7   1   28.79    3.32
  -4   7   0    3.45    1.96
   4  -7   0    1.48    1.24
   4  -7   0    3.03    1.62
  -4   7   0    7.26    1.65
  -4   7   0    5.29    1.55
  -4   7   0    5.13    2.41
   4  -7   0    0.46    1.00
   4  -7   0    2.83    1.84
   4  -7   1   39.49    5.16
  -4   7  -1   51.27    4.60
   4  -7   1   38.64    4.16
   4  -7   1   44.15    5.37
  -4   7  -1   45.34    6.01
  -4   7  -1   45.38    3.71
  -4   7  -2  383.62   13.44
   4  -7   2  373.78   13.23
   4  -7   2  360.88   15.67
   4  -7   2  359.59   14.79
  -4   7  -2  386.00   17.13
   4  -7   3   91.36    8.15
   4  -7   3   94.86    6.99
   4  -7   3  102.20    7.85
  -4   7  -3  108.74    7.52
  -4   7  -3   94.19    8.51
  -4   7  -4   57.22    7.02
  -4   7  -4   66.48    6.20
   4  -7   4   75.75    7.67
   4  -7   4   69.67    6.17
  -4   7  -4   77.02    7.73
  -4   7  -5   31.94    5.35
  -4   7  -5   40.10    5.63
   4  -7   5   40.86    5.78
  -4   7  -5   41.57    5.14
   4  -7   5   28.72    4.73
   4  -7   5   35.09    4.51
   4  -7   6   21.61    4.38
  -4   7  -6   22.37    4.46
  -4   7  -6   28.48    4.58
   4  -7   6   22.91    3.90
   4  -7   6   21.50    4.36
  -4   7  -6   24.30    4.55
  -4   7  -7   81.53    8.19
   4  -7   7   75.10    8.31
   4  -7   7   86.11    7.66
  -4   7  -7   84.82    8.38
   4  -7   7   64.49    7.69
  -4   7  -8  169.42   11.70
   4  -7   8  150.46   11.92
   4  -7   8  173.06   11.30
  -4   7  -8  175.40   12.25
   4  -7   8  157.70   12.60
  -4   7  -9   14.16    3.58
  -4   7  -9   16.04    3.92
   4  -7   9   11.33    3.45
   4  -7   9   11.70    3.96
   4  -7   9   14.67    3.59
  -4   7 -10  113.69    9.55
   4  -7  10  114.56   10.97
   4  -7  10  108.08   11.52
  -4   7 -10  100.67    9.83
   4  -7  10  115.47   10.03
  -4   7 -11   54.47    6.69
  -4   7 -11   51.74    7.20
   4  -7  11   49.15    8.27
   4  -7  11   49.47    7.56
   4  -7  11   49.61    6.86
  -4   7 -12   18.25    3.95
  -4   7 -12   28.03    5.56
   4  -7  12   28.81    5.81
   4  -7  12   17.04    4.94
   4  -7  12   24.53    5.15
   4  -7  13   71.88    9.84
   4  -7  13   57.30    9.51
   4  -7  13   79.15    9.37
  -4   7 -13   70.94    8.92
  -4   7 -14   17.22    4.50
   4  -7  14   13.96    4.73
   4  -7  14   24.02    6.78
   4  -7  14   19.67    4.93
   4  -7  15   95.33   11.85
   4  -6 -15    1.56    2.39
  -4   6  14   -0.22    2.39
   4  -6 -14    1.98    1.75
   4  -6 -14    1.91    2.16
  -4   6  13   25.17    5.54
   4  -6 -13   23.03    5.70
   4  -6 -13   34.38    6.88
  -4   6  12  261.40   16.42
   4  -6 -12  217.91   16.11
   4  -6 -12  246.40   17.28
  -4   6  11   37.64    6.05
   4  -6 -11   31.63    6.17
   4  -6 -11   43.53    7.04
  -4   6  10   22.54    4.52
   4  -6 -10   10.32    3.68
   4  -6 -10   24.26    5.26
  -4   6   9  121.38    9.85
   4  -6  -9  115.70   10.42
   4  -6  -9  121.68   10.88
  -4   6   8   11.90    3.09
   4  -6  -8   10.54    2.71
  -4   6   8   11.90    2.90
   4  -6  -8    5.59    2.70
   4  -6  -8   11.12    3.34
  -4   6   7  209.90   11.66
   4  -6  -7  216.13   11.35
   4  -6  -7  190.74   12.32
   4  -6  -7  194.54   12.51
  -4   6   7  210.13   10.87
  -4   6   6   50.96    5.46
   4  -6  -6   53.82    5.63
  -4   6   6   49.23    4.97
   4  -6  -6   48.22    6.08
   4  -6  -6   64.13    6.94
  -4   6   5  434.37   15.25
   4  -6  -5  420.13   15.30
   4  -6  -5  423.85   16.88
   4  -6  -5  432.23   17.40
  -4   6   5  462.90   14.05
  -4   6   4    2.91    1.33
  -4   6   4    6.07    1.59
   4  -6  -4    0.50    1.22
  -4   6   4    1.34    0.91
  -4   6   4    7.94    1.80
   4  -6  -4    4.36    1.97
   4  -6  -4    7.03    2.46
  -4   6   3  578.47   15.90
  -4   6   3  600.78   16.47
   4  -6  -3  550.00   17.32
  -4   6   3  616.80   13.98
   4  -6  -3  584.03   19.05
   4  -6  -3  576.39   18.41
  -4   6   3  584.73   13.44
   4  -6  -2   23.48    3.69
   4  -6  -2   24.66    2.64
  -4   6   2   23.17    3.30
  -4   6   2   22.24    2.42
   4  -6  -2   24.37    2.54
  -4   6   2   26.53    3.02
   4  -6  -2   21.13    3.43
   4  -6  -2   23.07    3.73
  -4   6   2   24.07    4.29
  -4   6   2   28.46    3.46
  -4   6   1    1.28    1.00
  -4   6   1    1.59    1.24
   4  -6  -1    0.16    1.09
  -4   6   1    1.60    1.47
   4  -6  -1    1.68    0.90
  -4   6   1   -0.20    0.77
   4  -6  -1    0.68    0.63
  -4   6   1    1.78    0.79
   4  -6  -1    0.77    0.96
   4  -6  -1   -0.01    1.13
   4  -6   0  223.70   11.30
  -4   6   0  227.16    9.35
  -4   6   0  233.16    6.54
   4  -6   0  216.27    9.03
   4  -6   0  228.09    8.53
   4  -6   0  240.32   11.28
   4  -6   0  223.51   10.93
  -4   6   0  248.29   12.97
  -4   6   0  217.10    9.77
  -4   6   0  229.36    8.61
  -4   6  -1   98.81    6.49
   4  -6   1   95.18    7.61
   4  -6   1   88.98    6.12
   4  -6   1   90.58    5.68
   4  -6   1   97.81    7.13
  -4   6  -1   88.97    7.84
  -4   6  -1   90.71    3.91
  -4   6  -1   99.18    5.39
  -4   6  -2 1093.70   22.54
  -4   6  -2 1031.26   13.40
   4  -6   2 1047.40   21.95
   4  -6   2 1086.27   20.63
   4  -6   2 1035.14   22.95
  -4   6  -2 1068.23   26.71
  -4   6  -2 1079.01   16.72
   4  -6   2 1061.74   25.60
   4  -6   3  140.65    9.56
   4  -6   3  123.54    7.24
  -4   6  -3  127.05    5.05
  -4   6  -3  148.02    8.65
   4  -6   3  139.49    8.42
  -4   6  -3  131.00    9.39
   4  -6   3  126.93    7.94
  -4   6  -4  987.82   15.48
  -4   6  -4 1051.07   24.15
   4  -6   4  981.09   23.10
   4  -6   4 1046.83   22.00
  -4   6  -4  999.17   25.94
   4  -6   4 1015.27   26.38
   4  -6   4 1018.95   26.02
  -4   6  -5  510.52   19.00
   4  -6   5  500.47   17.14
   4  -6   5  524.62   19.43
   4  -6   5  492.66   19.10
  -4   6  -5  496.35   12.07
  -4   6  -5  500.99   17.48
   4  -6   5  493.09   15.61
  -4   6  -5  543.07   19.22
  -4   6  -6   81.80    7.67
   4  -6   6   75.84    7.90
   4  -6   6   90.79    7.60
  -4   6  -6   78.36    5.29
   4  -6   6   80.49    7.88
   4  -6   6   83.42    6.79
  -4   6  -6   90.32    7.99
  -4   6  -7  284.80   14.11
   4  -6   7  280.05   15.03
   4  -6   7  262.37   13.29
   4  -6   7  271.56   15.57
   4  -6   7  270.80   12.63
  -4   6  -7  264.03   13.94
  -4   6  -8  218.59   12.25
   4  -6   8  218.41   14.57
   4  -6   8  212.73   13.58
   4  -6   8  229.75   12.97
   4  -6   8  233.86   12.29
  -4   6  -8  212.77   12.76
  -4   6  -9  270.72   13.52
   4  -6   9  267.60   15.55
   4  -6   9  293.96   17.81
  -4   6  -9  266.54   14.60
   4  -6   9  270.09   13.81
  -4   6 -10  192.48   11.48
   4  -6  10  175.71   13.04
   4  -6  10  179.62   14.52
  -4   6 -10  190.23   12.75
   4  -6  10  194.45   12.28
  -4   6 -11  230.32   12.42
   4  -6  11  230.08   15.54
   4  -6  11  197.69   16.10
  -4   6 -11  222.85   14.01
   4  -6  11  224.18   13.70
   4  -6  12  118.42   11.57
   4  -6  12  122.12   13.16
  -4   6 -12  117.68   10.64
   4  -6  12  127.00   10.85
  -4   6 -13    5.80    3.09
   4  -6  13    4.39    3.47
   4  -6  13    2.85    1.80
   4  -6  13    6.81    2.99
  -4   6 -14   -1.67    2.90
   4  -6  14    1.56    2.09
   4  -6  14   -3.00    2.44
   4  -6  14    1.50    2.13
   4  -6  15   94.04   11.44
  -4   6 -15  103.04   11.06
   4  -6  15  118.02   14.53
   4  -6  15   91.39   10.34
  -4   5  15  119.04   11.99
   4  -5 -15  119.32   12.70
   4  -5 -15  120.58   12.77
  -4   5  14   -0.34    2.35
   4  -5 -14    1.19    1.77
  -4   5  13   53.65    7.58
   4  -5 -13   44.26    7.34
   4  -5 -13   45.49    7.46
  -4   5  12    0.66    1.39
   4  -5 -12    2.74    2.26
   4  -5 -12    2.08    2.23
  -4   5  11   19.00    4.14
   4  -5 -11   15.18    4.15
   4  -5 -11   16.88    4.40
  -4   5  10   55.32    6.70
   4  -5 -10   57.20    6.17
   4  -5 -10   44.70    6.41
   4  -5 -10   53.67    7.08
  -4   5   9   85.66    7.93
   4  -5  -9   87.54    8.63
   4  -5  -9   75.85    8.00
   4  -5  -9   86.33    7.43
  -4   5   8  118.05    8.84
   4  -5  -8  110.73    8.21
   4  -5  -8  118.76    9.39
   4  -5  -8  136.66   10.33
  -4   5   8  109.42    7.37
  -4   5   7   18.04    3.38
   4  -5  -7   18.78    3.36
  -4   5   7   19.23    3.04
  -4   5   7   23.77    3.63
   4  -5  -7   11.60    2.98
   4  -5  -7   24.06    4.16
  -4   5   6  251.21   11.67
   4  -5  -6  247.88   11.56
  -4   5   6  267.67   11.38
  -4   5   6  291.21   10.88
   4  -5  -6  251.96   12.41
   4  -5  -6  252.39   12.82
  -4   5   5   -0.41    1.08
  -4   5   5    0.78    0.71
   4  -5  -5   -0.24    0.89
  -4   5   5   -0.85    0.87
   4  -5  -5   -0.57    1.29
   4  -5  -5   -0.01    1.03
  -4   5   4  202.64    9.53
   4  -5  -4  189.00   10.23
   4  -5  -4  210.19    6.04
  -4   5   4  208.01    8.60
   4  -5  -4  189.17    9.71
  -4   5   4  221.16    9.13
   4  -5  -4  196.98   10.07
   4  -5  -3  343.91   13.07
  -4   5   3  354.26   11.06
  -4   5   3  338.71   10.50
   4  -5  -3  312.76    8.35
   4  -5  -3  350.43    6.89
   4  -5  -3  325.99   12.47
   4  -5  -3  339.05   13.24
  -4   5   3  338.64   11.67
  -4   5   2  167.11    6.94
  -4   5   2  187.64    8.08
   4  -5  -2  180.23    6.85
   4  -5  -2  165.90    9.05
   4  -5  -2  166.78    5.37
   4  -5  -2  174.79    9.23
  -4   5   2  175.73    8.08
  -4   5   1  187.43    8.25
  -4   5   1  182.17    6.83
   4  -5  -1  181.29    7.38
   4  -5  -1  183.79    6.21
   4  -5  -1  189.37    9.39
   4  -5  -1  185.43    9.68
  -4   5   1  163.23    9.93
  -4   5   1  181.93    7.78
   4  -5   0   50.35    5.15
  -4   5   0   47.54    4.28
  -4   5   0   49.54    4.09
  -4   5   0   51.82    3.49
   4  -5   0   53.56    4.27
   4  -5   0   50.91    3.55
   4  -5   0   49.44    4.73
  -4   5   0   43.00    5.18
  -4   5   0   56.27    4.16
  -4   5  -1  377.06   12.49
  -4   5  -1  362.88   14.54
   4  -5   1  359.98   13.87
  -4   5  -1  358.93    9.09
   4  -5   1  349.04   11.41
   4  -5   1  352.57   10.02
   4  -5   1  350.77   12.13
  -4   5  -1  365.01   10.15
   4  -5   2    4.96    1.95
  -4   5  -2    7.75    1.99
  -4   5  -2    5.20    2.27
  -4   5  -2   12.85    1.78
  -4   5  -2    7.01    1.50
   4  -5   2    5.72    1.76
   4  -5   2    6.42    1.52
   4  -5   2    5.68    1.67
   4  -5   3   65.67    6.18
  -4   5  -3   85.36    4.83
   4  -5   3   80.07    6.00
   4  -5   3   77.45    5.19
  -4   5  -3   87.18    6.52
  -4   5  -3   68.36    6.24
   4  -5   4    0.48    1.15
  -4   5  -4    1.54    0.86
   4  -5   4    0.11    1.10
  -4   5  -4    0.06    1.17
   4  -5   4   -0.40    1.13
   4  -5   4    0.84    0.81
  -4   5  -4    1.83    1.34
  -4   5  -5  134.51    9.00
  -4   5  -5  139.25    9.10
   4  -5   5  141.93   10.01
   4  -5   5  170.16   10.58
  -4   5  -5  150.00    7.31
   4  -5   5  139.86    8.71
   4  -5   5  153.38    8.13
  -4   5  -5  148.91    9.50
  -4   5  -6   77.61    6.90
   4  -5   6   79.06    7.47
   4  -5   6   65.38    7.18
  -4   5  -6   79.41    5.76
   4  -5   6   81.80    6.94
   4  -5   6   80.68    6.27
  -4   5  -6   80.95    7.17
  -4   5  -7   52.30    5.56
   4  -5   7   48.28    6.59
   4  -5   7   57.02    6.03
  -4   5  -7   58.32    5.32
  -4   5  -7   55.13    6.02
   4  -5   7   54.38    6.44
  -4   5  -8    0.95    1.54
  -4   5  -8    0.33    1.46
   4  -5   8   -1.31    1.67
   4  -5   8    1.87    1.72
  -4   5  -8    0.74    1.09
   4  -5   8   -0.07    1.14
  -4   5  -9    0.16    0.95
  -4   5  -9    0.60    1.25
   4  -5   9   -0.13    1.39
   4  -5   9    1.58    2.33
   4  -5   9    2.56    1.83
  -4   5  -9    0.27    1.20
  -4   5 -10    0.68    1.20
  -4   5 -10   -2.18    1.56
   4  -5  10    1.55    1.95
   4  -5  10   -1.36    2.09
   4  -5  10    0.55    1.18
   4  -5  11  151.64   12.21
   4  -5  11  132.71   13.07
  -4   5 -11  128.87   10.29
   4  -5  12   55.67    7.70
   4  -5  12   48.23    8.27
  -4   5 -12   49.35    6.67
  -4   5 -13   23.61    4.88
   4  -5  13   25.09    5.38
   4  -5  13   20.08    5.76
  -4   5 -14   37.49    6.42
   4  -5  14   46.50    7.61
   4  -5  14   45.18    8.58
   4  -5  14   38.25    6.31
  -4   5 -15    3.43    2.33
   4  -5  15    0.74    2.13
   4  -5  15    4.68    3.87
   4  -5  15    1.74    1.80
  -4   5 -16    8.28    3.79
   4  -5  16    0.02    1.56
   4  -4 -16    4.44    3.04
  -4   4  15   24.51    5.49
   4  -4 -15   19.36    5.07
   4  -4 -15   26.88    5.92
  -4   4  14   18.79    4.70
   4  -4 -14   10.58    3.95
   4  -4 -14   17.64    4.64
  -4   4  13  104.54   10.15
   4  -4 -13  114.73   10.90
   4  -4 -13  107.53   10.67
  -4   4  12    0.47    1.54
   4  -4 -12    3.49    1.97
   4  -4 -12   -0.65    1.22
   4  -4 -12    0.63    1.40
  -4   4  11   12.13    3.39
   4  -4 -11   14.35    3.34
  -4   4  11   10.68    2.99
   4  -4 -11    8.64    3.14
   4  -4 -11   10.36    3.19
  -4   4  10    0.08    1.18
  -4   4  10   -0.24    1.00
   4  -4 -10   -0.62    1.27
   4  -4 -10    0.89    1.53
   4  -4 -10    1.21    1.81
  -4   4   9   20.99    3.91
  -4   4   9   17.16    3.33
   4  -4  -9   24.90    4.01
   4  -4  -9   14.56    3.29
   4  -4  -9   23.31    4.19
  -4   4   8   79.07    7.07
   4  -4  -8   81.99    6.97
   4  -4  -8   78.70    7.21
   4  -4  -8   76.79    7.17
  -4   4   8   81.20    6.63
  -4   4   7   44.85    5.11
  -4   4   7   36.63    4.43
  -4   4   7   41.49    4.49
   4  -4  -7   34.80    4.48
   4  -4  -7   32.92    4.27
   4  -4  -7   45.51    5.35
  -4   4   6   71.30    6.02
   4  -4  -6   62.86    5.66
   4  -4  -6   56.56    5.44
   4  -4  -6   65.00    6.01
  -4   4   6   65.96    5.40
  -4   4   6   60.91    5.47
  -4   4   5   16.26    2.81
   4  -4  -5    9.43    2.42
  -4   4   5   21.28    3.02
  -4   4   5   16.91    2.73
   4  -4  -5   19.06    1.74
   4  -4  -5   20.02    3.32
  -4   4   4    2.24    1.50
  -4   4   4    0.77    0.84
   4  -4  -4   -0.18    0.89
  -4   4   4    1.12    0.85
   4  -4  -4    0.83    1.10
   4  -4  -4   -0.21    0.36
  -4   4   3    5.84    1.60
   4  -4  -3    5.53    1.81
  -4   4   3    3.71    1.26
  -4   4   3    3.51    1.21
   4  -4  -3    4.06    1.42
   4  -4  -3    2.32    0.81
   4  -4  -2  148.05    7.08
   4  -4  -2  166.53    8.63
  -4   4   2  152.85    6.83
  -4   4   2  162.92    7.65
   4  -4  -2  136.49    3.58
   4  -4  -2  166.75    6.40
   4  -4  -2  150.33    7.64
  -4   4   2  159.62    6.31
  -4   4   2  166.93    7.62
  -4   4   1  206.13    8.68
   4  -4  -1  219.65    9.93
  -4   4   1  203.20    7.56
  -4   4   1  196.46    6.86
   4  -4  -1  209.68    7.58
   4  -4  -1  202.00    5.42
   4  -4  -1  190.65    7.90
   4  -4  -1  206.98    8.68
  -4   4   1  202.29   10.21
  -4   4   1  206.55    8.12
   4  -4   0  947.73   20.81
  -4   4   0  925.83   15.78
  -4   4   0  949.99   19.15
   4  -4   0  947.37   17.00
   4  -4   0  944.05   13.06
   4  -4   0  927.07   17.76
  -4   4   0  929.96   21.60
  -4   4   0  922.65   16.62
  -4   4  -1    7.54    1.60
   4  -4   1    4.78    1.84
  -4   4  -1    6.59    1.73
  -4   4  -1    2.45    1.49
  -4   4  -1    6.44    1.43
   4  -4   1    4.78    1.14
   4  -4   1    5.64    1.51
   4  -4   1    7.16    1.64
  -4   4  -2 1188.64   18.45
  -4   4  -2 1166.58   22.65
   4  -4   2 1187.51   20.99
   4  -4   2 1244.76   17.62
   4  -4   2 1195.99   19.23
  -4   4  -2 1192.80   24.20
   4  -4   2 1214.77   24.53
  -4   4  -2 1196.50   18.40
   4  -4   3   93.35    6.98
  -4   4  -3   91.07    5.39
   4  -4   3   86.16    5.93
  -4   4  -3   95.51    6.91
  -4   4  -3   94.91    6.74
  -4   4  -4  129.04    6.77
   4  -4   4  144.07    8.89
   4  -4   4  126.79    8.99
   4  -4   4  133.55    7.78
  -4   4  -4  124.60    8.02
  -4   4  -4  128.38    8.19
  -4   4  -5    0.77    1.04
  -4   4  -5   -0.41    1.03
   4  -4   5    0.59    1.09
   4  -4   5   -0.36    1.38
  -4   4  -5    0.11    0.71
  -4   4  -5   -0.89    1.23
   4  -4   5    1.27    1.12
  -4   4  -6    5.85    2.03
   4  -4   6    8.21    2.96
  -4   4  -6   12.00    2.52
   4  -4   6   12.40    2.95
  -4   4  -6   10.00    2.42
   4  -4   6    9.06    2.41
  -4   4  -7  489.01   14.99
   4  -4   7  532.04   18.73
   4  -4   7  522.22   20.76
   4  -4   7  528.19   17.68
  -4   4  -7  512.60   17.08
  -4   4  -7  517.39   16.44
  -4   4  -8   27.17    3.56
   4  -4   8   30.89    5.40
   4  -4   8   22.74    3.38
  -4   4  -8   30.46    4.33
   4  -4   8   27.41    4.31
  -4   4  -8   34.55    4.69
   4  -4   8   32.35    4.91
  -4   4  -9  959.72   20.70
  -4   4  -9  906.29   24.64
   4  -4   9  938.96   21.71
   4  -4   9  900.37   24.97
   4  -4   9  899.04   30.12
   4  -4   9  951.46   26.78
  -4   4  -9  935.31   24.80
  -4   4 -10    9.09    2.37
  -4   4 -10   18.23    3.74
   4  -4  10   18.37    4.22
   4  -4  10   11.61    3.99
  -4   4 -10   10.39    3.03
   4  -4  10   16.22    3.50
   4  -4  11  146.68   11.52
   4  -4  11  147.93   13.55
   4  -4  11  138.62   10.60
  -4   4 -11  139.73   10.41
  -4   4 -12   -1.62    1.68
   4  -4  12    2.17    1.86
   4  -4  12   -1.72    2.37
   4  -4  13   75.50    8.94
   4  -4  13   56.86    9.29
  -4   4 -13   68.99    7.90
  -4   4 -14    9.68    3.46
   4  -4  14   11.84    3.87
   4  -4  14    8.96    3.87
  -4   4 -15    7.03    3.09
   4  -4  15    2.65    1.96
   4  -4  15   -0.70    2.85
  -4   4 -16   -4.00    2.39
   4  -4  16   -1.76    3.25
  -4   3  16   32.23    6.26
   4  -3 -16   32.78    6.27
   4  -3 -16   34.89    6.77
  -4   3  15   25.56    5.65
   4  -3 -15   44.97    7.35
   4  -3 -15   40.28    6.89
  -4   3  14   87.99    9.46
  -4   3  14   75.91    8.96
   4  -3 -14   77.52    8.93
   4  -3 -14   85.35    9.64
  -4   3  13    1.31    1.59
  -4   3  13    2.90    2.21
   4  -3 -13    2.41    2.20
   4  -3 -13    4.10    2.37
  -4   3  12   28.53    5.13
  -4   3  12   27.68    5.11
   4  -3 -12   19.51    4.14
   4  -3 -12   27.65    4.93
  -4   3  11    9.46    2.71
   4  -3 -11   10.37    3.04
  -4   3  11   15.79    3.52
   4  -3 -11   15.92    3.56
  -4   3  10  284.42   14.11
  -4   3  10  273.55   13.77
   4  -3 -10  283.18   13.74
   4  -3 -10  274.81   13.91
  -4   3   9  346.95   14.80
  -4   3   9  349.20   14.64
   4  -3  -9  325.76   14.01
   4  -3  -9  353.13   14.97
  -4   3   8 1266.00   26.91
  -4   3   8 1209.29   26.01
   4  -3  -8 1278.16   26.00
   4  -3  -8 1256.78   26.79
  -4   3   7  181.50    9.73
   4  -3  -7  171.71    9.52
  -4   3   7  164.17    9.32
  -4   3   7  174.99    9.47
   4  -3  -7  174.37    8.99
   4  -3  -7  170.57    9.41
   4  -3  -7  173.38    5.57
  -4   3   6  423.96   14.12
  -4   3   6  439.10   14.21
   4  -3  -6  427.76   14.58
  -4   3   6  429.66   14.23
  -4   3   6  406.98    5.18
   4  -3  -6  449.43   14.48
   4  -3  -6  449.56    9.05
  -4   3   5  808.25   18.51
   4  -3  -5  783.78   19.13
  -4   3   5  778.93   18.08
  -4   3   5  774.30   18.04
   4  -3  -5  754.62   16.28
   4  -3  -5  761.38   17.77
   4  -3  -5  778.55   12.16
   4  -3  -4  246.24   10.33
  -4   3   4  231.02    9.46
   4  -3  -4  228.68    8.32
  -4   3   4  242.80    9.76
   4  -3  -4  245.51    9.53
   4  -3  -4  262.67    7.34
  -4   3   4  244.72    9.77
   4  -3  -3 1730.11   26.90
  -4   3   3 1742.61   25.44
  -4   3   3 1721.76   24.48
   4  -3  -3 1666.48   19.26
   4  -3  -3 1692.38   23.89
   4  -3  -3 1703.72   21.08
  -4   3   3 1754.77   25.05
   4  -3  -2  459.58   13.67
  -4   3   2  443.73   11.89
  -4   3   2  473.72   13.13
   4  -3  -2  450.59   10.26
   4  -3  -2  464.16   10.51
   4  -3  -2  435.34   11.48
  -4   3   2  448.18   12.20
  -4   3   1 3012.95   20.69
  -4   3   1 3127.04   33.57
  -4   3   1 3056.74   30.32
   4  -3  -1 3084.80   35.37
   4  -3  -1 3179.30   17.28
   4  -3  -1 3043.11   28.13
   4  -3  -1 3037.33   28.57
  -4   3   1 3132.79   31.15
  -4   3   0   90.33    3.56
  -4   3   0   86.96    5.70
  -4   3   0   91.62    5.24
   4  -3   0   87.04    6.06
   4  -3   0   84.41    4.91
   4  -3   0   85.79    4.62
  -4   3   0   85.92    6.03
  -4   3   0   89.77    5.21
   4  -3   1 1185.28   22.29
  -4   3  -1 1108.89   18.39
   4  -3   1 1110.81   18.60
   4  -3   1 1107.82   15.75
  -4   3  -1 1129.88   21.59
  -4   3  -1 1112.43   18.18
  -4   3  -1 1145.11   21.35
  -4   3  -2    4.61    1.23
  -4   3  -2    0.61    1.15
   4  -3   2   -0.24    1.01
  -4   3  -2    3.29    1.45
  -4   3  -2    2.10    1.00
   4  -3   2    1.05    0.78
   4  -3   3   49.81    4.83
  -4   3  -3   46.12    4.62
  -4   3  -3   48.03    4.12
   4  -3   3   43.85    4.14
  -4   3  -3   39.77    4.16
   4  -3   4  512.27   15.79
  -4   3  -4  541.35   16.56
  -4   3  -4  536.61   14.53
   4  -3   4  547.22   18.37
   4  -3   4  526.52   14.81
  -4   3  -4  543.94   15.22
  -4   3  -5    0.67    0.66
  -4   3  -5    2.74    1.66
  -4   3  -5    2.10    1.26
   4  -3   5    1.60    1.43
   4  -3   5    4.64    1.70
  -4   3  -5    4.54    1.64
   4  -3   5    0.42    0.94
  -4   3  -6  246.01    9.38
   4  -3   6  244.31   11.59
   4  -3   6  254.74   13.76
  -4   3  -6  239.74   10.93
   4  -3   6  241.03   10.91
  -4   3  -6  231.28   10.50
  -4   3  -7  134.01    6.75
   4  -3   7  141.76    9.24
   4  -3   7  126.37   10.21
  -4   3  -7  128.58    8.42
   4  -3   7  139.62    8.74
  -4   3  -7  133.39    8.32
  -4   3  -8    2.70    1.23
  -4   3  -8    4.63    1.86
   4  -3   8    5.71    1.91
   4  -3   8   -1.17    1.63
   4  -3   8    1.21    1.45
  -4   3  -8    3.53    1.59
   4  -3   8    7.45    2.35
  -4   3  -9  210.68    8.39
   4  -3   9  180.70   10.32
   4  -3   9  197.26   13.98
   4  -3   9  198.11   11.69
   4  -3   9  209.21   11.69
  -4   3  -9  207.44   12.09
  -4   3  -9  181.38   10.53
  -4   3 -10   23.28    4.03
  -4   3 -10   14.50    3.58
   4  -3  10   22.87    4.23
   4  -3  10   20.00    3.71
   4  -3  10   28.68    5.93
   4  -3  10   23.15    4.32
   4  -3  11   49.02    5.91
  -4   3 -11   49.37    6.68
   4  -3  11   60.34    7.03
   4  -3  11   43.37    7.47
   4  -3  11   46.22    5.99
  -4   3 -11   46.32    5.72
  -4   3 -12    1.33    1.79
   4  -3  12    0.43    1.09
   4  -3  12   -1.71    2.65
   4  -3  12    2.08    1.70
   4  -3  12   -1.62    1.38
   4  -3  13  183.30   13.11
   4  -3  13  188.01   16.23
  -4   3 -13  192.39   12.92
  -4   3 -14   -0.18    1.61
   4  -3  14    0.37    1.36
   4  -3  14    0.36    2.12
   4  -3  15   50.39    9.26
  -4   3 -15   56.53    7.86
  -4   3 -16   -5.74    3.03
   4  -3  16   -0.18    2.71
  -4   2  17   19.15    5.05
  -4   2  17   19.09    5.72
   4  -2 -17   30.56    6.38
  -4   2  16    2.41    2.15
   4  -2 -16    1.11    1.58
   4  -2 -16    3.30    2.14
  -4   2  15  127.52   11.53
  -4   2  15  125.71   12.32
   4  -2 -15  113.36   10.82
   4  -2 -15  141.86   12.35
  -4   2  14   81.57    8.82
  -4   2  14   65.45    8.54
   4  -2 -14   69.62    8.18
   4  -2 -14   57.73    7.52
  -4   2  13  184.86   12.66
  -4   2  13  185.69   13.53
   4  -2 -13  185.20   12.39
   4  -2 -13  190.31   12.75
  -4   2  12   58.58    6.89
  -4   2  12   50.67    6.80
   4  -2 -12   58.60    6.67
   4  -2 -12   76.16    7.70
  -4   2  11   60.58    6.66
  -4   2  11   68.03    7.48
   4  -2 -11   64.10    6.59
   4  -2 -11   71.88    7.08
  -4   2  10   86.57    7.58
  -4   2  10   79.28    7.61
   4  -2 -10   83.75    7.01
   4  -2 -10   96.62    7.73
  -4   2   9   63.80    6.26
   4  -2  -9   59.42    4.20
  -4   2   9   56.16    6.06
   4  -2  -9   60.63    5.65
  -4   2   9   64.85    3.86
   4  -2  -9   58.40    5.74
   4  -2  -8   22.53    2.55
  -4   2   8   26.14    3.86
  -4   2   8   14.23    2.91
  -4   2   8   25.07    3.89
   4  -2  -8   24.86    3.40
  -4   2   8   26.01    2.21
   4  -2  -8   25.62    3.60
  -4   2   7   55.21    5.26
   4  -2  -7   48.53    3.58
  -4   2   7   49.21    5.18
  -4   2   7   47.90    2.58
  -4   2   7   47.56    5.06
   4  -2  -7   47.93    4.67
  -4   2   6   58.98    5.19
   4  -2  -6   53.04    3.70
  -4   2   6   52.57    5.01
   4  -2  -6   58.04    4.32
  -4   2   6   54.79    2.25
  -4   2   6   50.87    4.96
   4  -2  -6   49.46    4.44
   4  -2  -5   19.59    2.28
  -4   2   5   23.22    3.21
  -4   2   5   21.89    3.07
  -4   2   5   25.65    3.39
   4  -2  -5   22.18    2.46
   4  -2  -5   23.24    2.89
  -4   2   4  167.74    8.25
  -4   2   4  167.34    8.05
   4  -2  -4  149.56    7.90
   4  -2  -4  161.23    5.82
   4  -2  -4  158.81    6.84
   4  -2  -4  152.48    6.04
  -4   2   4  172.74    8.05
  -4   2   3   30.00    3.40
   4  -2  -3   22.94    3.12
  -4   2   3   25.21    3.01
   4  -2  -3   30.67    2.26
   4  -2  -3   28.42    2.72
   4  -2  -3   24.59    2.48
  -4   2   3   28.29    3.25
  -4   2   2   47.11    4.23
   4  -2  -2   48.37    4.32
  -4   2   2   46.72    3.97
   4  -2  -2   49.03    2.49
   4  -2  -2   48.91    3.32
   4  -2  -2   46.93    3.39
  -4   2   2   49.93    4.09
   4  -2  -1  349.53   11.36
  -4   2   1  336.89   11.13
   4  -2  -1  337.68    7.86
   4  -2  -1  352.17    9.60
  -4   2   1  332.52   10.37
  -4   2   1  328.28   10.14
   4  -2   0  705.56   16.00
  -4   2   0  719.02   16.38
  -4   2   0  695.95   15.01
   4  -2   0  678.30   10.23
   4  -2   0  701.83   14.03
  -4   2   0  710.57   15.50
  -4   2   0  697.59   14.66
  -4   2  -1  194.08    8.73
   4  -2   1  180.48    8.21
  -4   2  -1  171.77    7.57
   4  -2   1  168.60    7.14
  -4   2  -1  183.36    7.80
  -4   2  -1  180.41    7.51
  -4   2  -2   50.29    4.60
   4  -2   2   50.20    4.43
  -4   2  -2   49.27    4.20
   4  -2   2   46.06    3.95
  -4   2  -2   48.31    4.02
  -4   2  -3  149.23    7.56
  -4   2  -3  132.06    3.38
   4  -2   3  137.44    7.45
  -4   2  -3  131.32    7.70
   4  -2   3  132.48    6.97
  -4   2  -3  143.19    6.92
   4  -2   4  354.79   12.27
  -4   2  -4  336.67    9.71
  -4   2  -4  353.59   12.21
  -4   2  -4  364.94   13.40
   4  -2   4  364.52   12.01
  -4   2  -4  338.90   10.97
   4  -2   4  359.89   14.62
  -4   2  -5   47.30    3.50
  -4   2  -5   45.21    4.99
   4  -2   5   51.35    5.85
  -4   2  -5   37.54    4.22
   4  -2   5   50.88    4.90
   4  -2   5   47.14    4.63
  -4   2  -5   44.98    4.18
  -4   2  -6   97.20    4.80
   4  -2   6   91.32    8.19
   4  -2   6   96.68    6.97
  -4   2  -6   89.92    6.13
  -4   2  -6   94.28    7.06
   4  -2   6   96.71    6.78
  -4   2  -7  455.44   10.18
   4  -2   7  437.87   18.71
   4  -2   7  439.14   15.41
  -4   2  -7  442.76   16.20
   4  -2   7  474.16   15.57
  -4   2  -7  445.64   14.28
   4  -2   8   46.90    5.41
   4  -2   8   51.91    5.54
  -4   2  -8   48.85    5.10
   4  -2   8   48.89    6.61
  -4   2  -8   56.33    6.07
   4  -2   8   54.03    5.53
  -4   2  -8   52.44    3.48
   4  -2   9  625.38   20.36
   4  -2   9  653.59   20.35
   4  -2   9  628.98   24.65
   4  -2   9  618.66   19.62
  -4   2  -9  661.62   21.98
  -4   2  -9  677.54   19.59
  -4   2 -10   -0.33    0.97
   4  -2  10    0.53    1.22
   4  -2  10    1.12    1.50
   4  -2  10   -0.35    1.00
  -4   2 -10    2.30    1.79
   4  -2  10    2.52    1.70
  -4   2 -11    1.26    1.26
   4  -2  11    0.12    1.46
   4  -2  11    2.23    1.75
   4  -2  11   -0.53    2.80
  -4   2 -11    1.61    1.66
   4  -2  11    1.59    1.49
   4  -2  12  314.20   16.20
   4  -2  12  289.76   15.17
   4  -2  12  280.18   18.69
   4  -2  12  257.44   14.34
  -4   2 -12  280.43   16.77
  -4   2 -12  288.35   14.97
  -4   2 -13   26.67    4.94
   4  -2  13   18.25    4.13
   4  -2  13   14.40    4.88
   4  -2  13   28.38    5.03
   4  -2  13   22.63    4.57
   4  -2  14  261.67   15.91
   4  -2  14  254.85   19.73
  -4   2 -14  266.31   15.80
   4  -2  15   72.04   11.14
  -4   2 -15  100.85   10.40
  -4   2 -15   90.21    9.01
   4  -2  16  321.52   23.89
  -4   2 -16  306.26   18.94
  -4   1  18    1.90    2.61
  -4   1  17   20.97    4.79
  -4   1  17   10.82    4.30
   4  -1 -17   24.08    5.57
  -4   1  16   57.42    7.85
  -4   1  16   59.00    9.13
   4  -1 -16   49.64    7.77
   4  -1 -16   43.44    6.96
  -4   1  15    3.34    2.02
  -4   1  15    5.38    2.79
   4  -1 -15    5.11    2.78
   4  -1 -15    7.85    2.98
  -4   1  14   39.24    6.02
  -4   1  14   26.54    5.78
   4  -1 -14   30.13    5.53
   4  -1 -14   28.08    5.11
  -4   1  13    1.27    1.37
  -4   1  13    1.96    1.89
   4  -1 -13    3.61    1.96
   4  -1 -13    4.14    2.45
  -4   1  12   13.26    3.30
  -4   1  12   15.96    3.88
   4  -1 -12    7.86    2.59
   4  -1 -12   12.72    3.19
  -4   1  11  221.30   13.52
  -4   1  11  232.38   12.47
   4  -1 -11  229.37   13.10
   4  -1 -11  258.90   12.70
  -4   1  10   82.20    7.15
  -4   1  10   84.37    7.91
   4  -1 -10   71.91    5.54
   4  -1 -10   85.37    7.63
  -4   1  10   92.19    5.43
   4  -1 -10   90.79    7.22
  -4   1   9  441.95   15.75
   4  -1  -9  437.14   12.99
   4  -1  -9  437.10   16.31
  -4   1   9  443.22   10.90
  -4   1   9  422.25   16.73
   4  -1  -9  424.85   14.52
  -4   1   8   77.21    6.27
   4  -1  -8   60.67    5.78
  -4   1   8   68.23    6.37
  -4   1   8   68.55    6.49
  -4   1   8   63.70    3.82
   4  -1  -8   63.34    5.23
   4  -1  -8   55.31    4.53
   4  -1  -7   23.16    2.85
  -4   1   7   22.87    3.66
  -4   1   7   18.57    3.15
  -4   1   7   22.69    3.59
  -4   1   7   22.94    2.11
   4  -1  -7   22.74    3.04
  -4   1   6   11.57    2.54
  -4   1   6   12.32    2.44
  -4   1   6   10.91    2.38
   4  -1  -6   12.07    2.05
  -4   1   6   13.30    1.47
   4  -1  -6   13.67    2.25
   4  -1  -5  527.99   12.74
  -4   1   5  548.59   15.33
   4  -1  -5  575.79   10.46
  -4   1   5  532.03    8.01
  -4   1   5  553.87   15.80
   4  -1  -5  575.56   12.68
  -4   1   5  550.16   14.64
   4  -1  -4   13.15    1.96
  -4   1   4   16.51    2.51
  -4   1   4   12.55    2.38
  -4   1   4   15.66    1.21
  -4   1   4   14.12    2.48
   4  -1  -4   15.29    1.41
   4  -1  -4   14.18    1.84
   4  -1  -3  438.96   11.10
  -4   1   3  452.93   13.29
   4  -1  -3  443.86   12.80
  -4   1   3  425.28    5.84
  -4   1   3  422.52   12.58
   4  -1  -3  449.87    9.13
  -4   1   3  443.86   12.25
  -4   1   2 1146.19   20.67
  -4   1   2 1129.03   20.02
   4  -1  -2 1153.32   20.18
   4  -1  -2 1165.43   12.92
  -4   1   2 1168.94   19.53
   4  -1  -2 1116.73   17.69
   4  -1  -1  519.60   13.22
  -4   1   1  505.82   13.20
   4  -1  -1  494.90    7.04
  -4   1   1  514.13   12.81
   4  -1  -1  508.50   11.92
   4  -1   0  622.37   14.29
  -4   1   0  615.69   14.66
  -4   1   0  612.41   12.55
   4  -1   0  589.14   13.14
  -4   1   0  635.28   14.36
  -4   1  -1  115.54    2.75
  -4   1  -1  113.33    6.44
  -4   1  -1  117.24    5.39
   4  -1   1  107.17    5.77
  -4   1  -1  113.22    6.22
   4  -1   1  116.85    6.20
  -4   1  -2 1856.34   26.69
   4  -1   2 1835.70   24.82
  -4   1  -2 1836.59   18.58
  -4   1  -2 1808.88   21.22
   4  -1   2 1895.08   24.89
   4  -1   3    5.61    1.53
   4  -1   3    5.85    1.57
  -4   1  -3    5.84    1.34
  -4   1  -3    8.09    1.97
  -4   1  -3    4.96    1.79
  -4   1  -3    7.99    1.22
  -4   1  -4  392.65    7.82
   4  -1   4  371.13   11.83
  -4   1  -4  385.06   13.23
  -4   1  -4  374.75    7.76
  -4   1  -4  399.79   10.84
   4  -1   4  391.50   12.23
  -4   1  -4  390.29   13.69
  -4   1  -5    0.80    0.44
  -4   1  -5    0.19    0.71
  -4   1  -5    1.73    1.26
   4  -1   5   -0.33    1.61
   4  -1   5    1.52    0.95
  -4   1  -5    2.67    1.56
  -4   1  -5    1.33    0.50
   4  -1   5    0.69    1.01
   4  -1   6  180.75    8.92
   4  -1   6  200.18   11.96
  -4   1  -6  171.64    9.75
  -4   1  -6  167.98    9.87
  -4   1  -6  194.46    8.52
   4  -1   6  192.44    9.31
  -4   1  -6  191.04    4.71
  -4   1  -7    5.32    1.74
   4  -1   7    5.52    2.34
   4  -1   7    4.29    1.60
  -4   1  -7    5.74    2.15
   4  -1   7    4.20    1.73
   4  -1   8   31.83    4.22
   4  -1   8   43.47    6.27
  -4   1  -8   39.11    4.42
  -4   1  -8   33.13    4.79
   4  -1   8   33.10    4.17
   4  -1   8   32.50    4.81
   4  -1   9  312.47   15.20
   4  -1   9  333.20   13.60
   4  -1   9  350.97   18.25
   4  -1   9  335.48   14.05
  -4   1  -9  337.33   13.45
  -4   1  -9  342.87   16.22
  -4   1 -10    1.49    1.45
   4  -1  10    2.01    0.89
   4  -1  10    3.01    1.98
   4  -1  10    1.97    1.83
  -4   1 -10    5.44    2.42
   4  -1  10    5.90    2.07
   4  -1  11  144.13   11.20
   4  -1  11  141.04    9.51
   4  -1  11  128.58   12.16
  -4   1 -11  132.60   11.20
   4  -1  11  148.32   10.24
  -4   1 -11  144.49    9.89
  -4   1 -12    8.42    2.89
   4  -1  12   11.56    3.43
   4  -1  12   10.51    4.22
   4  -1  12   12.48    3.24
  -4   1 -12   10.48    3.55
  -4   1 -12    9.18    2.70
   4  -1  13  112.63   10.74
   4  -1  13  124.55   12.92
   4  -1  13  120.71   10.03
  -4   1 -13  112.53    9.90
  -4   1 -13  119.52    9.29
  -4   1 -14   35.99    6.03
   4  -1  14   39.59    7.89
   4  -1  14   40.22    6.66
   4  -1  14   30.68    5.26
  -4   1 -14   35.89    5.54
   4  -1  15   23.87    5.22
   4  -1  15   18.21    5.86
  -4   1 -15   24.73    5.23
   4  -1  16    1.95    2.08
  -4   1 -16   -0.10    2.08
  -4   0  18    8.42    3.27
  -4   0  18   17.79    5.80
  -4   0  17    3.05    2.54
  -4   0  17   -0.08    2.13
   4   0 -17    0.32    1.92
   4   0 -17    1.27    1.51
  -4   0  16   94.08    9.70
  -4   0  16   92.81   11.33
   4   0 -16   85.61   10.12
   4   0 -16  102.32   10.37
  -4   0  15   13.18    4.49
  -4   0  15    9.11    3.31
   4   0 -15   11.97    3.75
   4   0 -15   10.70    3.40
  -4   0  14  173.75   12.04
   4   0 -14  186.28   13.47
   4   0 -14  180.27   12.24
  -4   0  14  162.86   13.57
  -4   0  13    4.45    2.07
  -4   0  13    4.54    2.66
   4   0 -13    7.50    2.83
   4   0 -13    6.24    2.37
  -4   0  12  410.48   16.94
  -4   0  12  441.56   20.20
   4   0 -12  392.11   17.42
   4   0 -12  391.78   14.99
  -4   0  12  445.19   14.38
  -4   0  11   86.28    7.49
  -4   0  11   81.33    8.33
   4   0 -11   79.41    6.58
   4   0 -11   74.28    7.28
  -4   0  11   88.81    6.09
  -4   0  10   58.45    6.69
  -4   0  10   63.25    6.75
   4   0 -10   69.89    6.70
   4   0 -10   68.88    5.93
  -4   0  10   73.78    5.24
  -4   0  10   73.10    6.64
   4   0  -9   50.26    5.38
  -4   0   9   45.62    5.42
   4   0  -9   39.53    4.41
  -4   0   9   43.47    3.76
  -4   0   9   43.94    5.68
  -4   0   9   46.26    4.96
  -4   0   8   14.74    2.69
  -4   0   8   23.10    3.94
   4   0  -8   14.21    2.76
  -4   0   8   23.72    3.79
  -4   0   8   24.18    2.68
   4   0  -8   17.27    2.99
   4   0  -7  127.78    7.21
  -4   0   7  131.03    8.57
   4   0  -7  117.69    7.24
  -4   0   7  126.37    8.17
  -4   0   7  123.08    5.57
  -4   0   7  138.16    7.85
  -4   0   6  200.25   10.18
  -4   0   6  198.39    9.75
  -4   0   6  182.32    6.39
   4   0  -6  185.67    8.43
   4   0  -6  181.85    8.46
  -4   0   6  192.11    8.82
  -4   0   5  918.06   20.74
   4   0  -5  892.40   17.95
  -4   0   5  894.35   19.88
  -4   0   5  854.83   13.08
  -4   0   5  846.95   17.94
  -4   0   4   16.63    2.59
   4   0  -4   13.04    2.24
  -4   0   4   14.18    2.55
  -4   0   4   14.19    1.64
   4   0  -3  230.23    8.68
  -4   0   3  226.71    9.45
  -4   0   3  215.19    6.18
  -4   0   3  225.36    8.82
   4   0  -2  230.12    8.60
  -4   0   2  242.80    9.56
  -4   0   2  222.35    6.33
   4   0  -2  233.25    4.76
  -4   0   2  219.46    8.65
   4   0  -1  735.60   15.21
   4   0  -1  726.53   15.00
  -4   0   1  754.28   16.66
  -4   0   1  706.84   15.60
   4   0   0  212.82    4.11
   4   0   0  215.04    8.01
  -4   0   0  197.33    8.73
  -4   0   0  209.65    4.91
  -4   0   0  203.27    5.91
  -4   0   0  205.66    8.53
   4   0   0  216.79    8.26
   4   0   1  291.41    9.24
  -4   0  -1  301.91    9.03
  -4   0  -1  298.50    6.95
  -4   0  -1  307.70   11.04
   4   0   1  311.65   10.06
   4   0   2 2090.72   24.82
  -4   0  -2 2146.40   30.16
  -4   0  -2 2049.00   23.71
  -4   0  -2 2080.71   19.16
  -4   0  -2 2079.64   11.85
   4   0   2 2119.29   26.73
  -4   0  -3   76.33    2.37
   4   0   3   87.35    5.13
  -4   0  -3   97.08    6.57
  -4   0  -3   90.12    6.45
  -4   0  -3   85.89    4.83
  -4   0  -3   90.18    4.29
   4   0   3   99.15    5.97
  -4   0  -3   86.76    3.23
  -4   0  -3   94.49    2.04
  -4   0  -4 1156.26   23.42
  -4   0  -4 1222.41   24.59
  -4   0  -4 1164.36   17.72
   4   0   4 1170.67   19.31
  -4   0  -4 1189.17   14.33
  -4   0  -4 1195.12   17.06
   4   0   4 1220.53   21.49
   4   0   5   86.50    5.50
  -4   0  -5   86.51    6.85
  -4   0  -5   73.18    4.44
  -4   0  -5   80.37    6.49
  -4   0  -5   82.56    4.83
   4   0   5   84.72    5.91
  -4   0  -5   84.21    4.43
   4   0   6  297.17   10.57
  -4   0  -6  271.69   12.71
  -4   0  -6  271.70   12.40
   4   0   6  282.52   13.97
  -4   0  -6  279.56    8.86
  -4   0  -6  282.99    9.67
   4   0   6  280.79   11.07
  -4   0  -6  281.75    9.05
   4   0   7  485.49   14.05
  -4   0  -7  473.36   17.18
   4   0   7  502.11   19.55
  -4   0  -7  497.58   18.04
  -4   0  -7  497.29   13.82
   4   0   7  515.91   15.68
  -4   0  -7  520.60   13.46
   4   0   8  203.52   12.33
   4   0   8  202.80    9.50
   4   0   8  190.48   12.61
  -4   0  -8  220.02   12.58
  -4   0  -8  213.44    9.81
   4   0   8  220.21   10.67
  -4   0  -8  221.15    9.51
  -4   0  -8  227.08   12.42
  -4   0  -9    8.44    2.23
   4   0   9    7.19    2.03
  -4   0  -9    8.34    2.94
   4   0   9   10.04    3.09
   4   0   9   10.69    3.03
   4   0   9    8.62    2.31
  -4   0  -9    2.31    1.27
  -4   0 -10    1.79    1.43
   4   0  10    0.41    1.48
   4   0  10    3.45    1.95
  -4   0 -10    2.38    1.89
   4   0  10    3.51    1.69
  -4   0 -10    1.65    1.19
  -4   0 -11    4.69    1.96
   4   0  11    4.43    2.27
   4   0  11    3.86    2.42
  -4   0 -11    3.15    2.38
   4   0  11    5.62    2.25
  -4   0 -11    4.36    1.86
  -4   0 -12    9.55    2.94
   4   0  12   14.78    4.21
   4   0  12   10.80    3.93
  -4   0 -12   17.07    4.78
   4   0  12   16.66    3.54
  -4   0 -12   10.48    2.86
   4   0  13   94.22   10.18
   4   0  13  113.15   12.38
  -4   0 -13  101.92    9.37
  -4   0 -13  114.55    9.61
   4   0  14  111.29   11.46
   4   0  14  107.49   12.52
  -4   0 -14  121.00   10.69
  -4   0 -14  116.50   10.15
   4   0  15  221.53   16.50
   4   0  15  197.51   17.62
  -4   0 -16   13.55    4.52
   4   0  16   21.20    6.32
   4   0  16   23.04    5.76
  -4  -1  18    3.00    2.42
  -4  -1  18    2.65    2.16
  -4  -1  17   -0.02    1.71
  -4  -1  17   -0.49    1.84
  -4  -1  17    2.85    2.96
   4   1 -17    1.69    1.95
   4   1 -17    1.28    1.29
  -4  -1  16   -0.71    1.92
  -4  -1  16   -1.09    2.03
  -4  -1  16    2.19    1.84
   4   1 -16    0.11    1.36
   4   1 -16   -1.07    2.24
  -4  -1  15   19.25    4.27
  -4  -1  15   22.91    5.34
  -4  -1  15   25.17    5.92
   4   1 -15   12.22    3.68
  -4  -1  14   28.39    4.80
  -4  -1  14   28.25    5.59
  -4  -1  14   35.55    6.77
   4   1 -14   31.91    5.55
   4   1 -13   24.27    4.28
  -4  -1  13   31.97    6.09
  -4  -1  13   20.53    3.99
  -4  -1  13   31.25    5.67
  -4  -1  13   22.90    3.74
   4   1 -13   29.05    5.00
   4   1 -12   88.92    8.24
  -4  -1  12   95.24    9.71
   4   1 -12  105.17    8.42
  -4  -1  12   89.37    8.90
  -4  -1  12  104.55    7.47
  -4  -1  12   99.70    8.21
   4   1 -11  146.30    9.93
  -4  -1  11  151.57   11.54
   4   1 -11  148.64    9.83
  -4  -1  11  146.40   10.77
  -4  -1  11  158.83    8.71
  -4  -1  11  151.65    9.63
  -4  -1  10  113.36    9.43
   4   1 -10   90.02    7.27
   4   1 -10  107.95    8.04
  -4  -1  10  125.88    9.49
  -4  -1  10  104.08    6.79
   4   1 -10  117.87    7.99
  -4  -1  10  102.48    7.56
   4   1  -9    1.40    1.07
  -4  -1   9    0.95    1.39
  -4  -1   9    2.03    1.19
  -4  -1   9    2.95    1.75
  -4  -1   9    0.46    0.80
   4   1  -9    0.84    1.23
   4   1  -9   -1.01    1.36
  -4  -1   8  123.47    6.61
  -4  -1   8  109.56    8.49
   4   1  -8  109.16    7.53
   4   1  -8  119.71    7.49
  -4  -1   8  123.62    8.57
   4   1  -8  127.74    7.53
  -4  -1   8  112.89    7.27
  -4  -1   7  380.09   14.97
   4   1  -7  396.26   13.83
   4   1  -7  397.98   12.79
  -4  -1   7  402.36   14.66
  -4  -1   7  392.86   11.19
   4   1  -7  413.24   12.87
  -4  -1   7  369.30   12.57
   4   1  -6   18.83    2.67
   4   1  -6   12.57    2.62
  -4  -1   6   12.65    2.26
  -4  -1   6   17.20    3.10
  -4  -1   6   12.14    2.74
  -4  -1   6   15.11    2.20
   4   1  -6   18.90    2.63
   4   1  -5  373.08   12.60
  -4  -1   5  391.53   13.78
   4   1  -5  375.12   10.61
  -4  -1   5  368.27   13.03
  -4  -1   5  379.27   10.32
  -4  -1   5  364.31   11.75
   4   1  -5  373.66   11.01
  -4  -1   4  612.68   12.80
   4   1  -4  637.88   12.60
  -4  -1   4  644.79   16.56
  -4  -1   4  630.17   15.12
   4   1  -4  647.38   16.16
   4   1  -4  647.19   13.62
   4   1  -3  399.44   12.34
  -4  -1   3  389.96   12.69
  -4  -1   3  386.20   10.09
  -4  -1   3  404.37   12.03
   4   1  -3  406.92   10.11
   4   1  -2  508.58   13.66
  -4  -1   2  507.08   14.21
  -4  -1   2  521.94   11.76
  -4  -1   2  534.36   13.82
   4   1  -2  524.53   10.69
   4   1  -1   31.79    3.42
  -4  -1   1   36.32    3.85
  -4  -1   1   32.04    2.98
  -4  -1   1   39.09    2.33
  -4  -1   1   31.49    3.46
  -4  -1   1   35.07    2.00
   4   1  -1   34.73    2.54
   4   1   0  439.68   12.42
   4   1   0  445.74    9.05
  -4  -1   0  458.20   13.77
  -4  -1   0  438.93   12.55
   4   1   0  458.59   11.23
  -4  -1   0  465.80   11.53
  -4  -1   0  456.52    9.33
  -4  -1   0  432.65    5.47
   4   1   0  435.75    4.81
   4   1   1 1113.75   17.01
  -4  -1  -1 1110.00   19.98
  -4  -1  -1 1118.24   21.96
  -4  -1  -1 1141.63    9.00
  -4  -1  -1 1118.08   16.22
  -4  -1  -1 1117.22    9.30
   4   1   1 1129.95   14.76
   4   1   1 1126.40   19.91
   4   1   2  224.94    7.56
  -4  -1  -2  230.70    9.17
  -4  -1  -2  223.40    4.80
  -4  -1  -2  227.34   10.19
  -4  -1  -2  231.83    8.17
  -4  -1  -2  231.36    5.39
   4   1   2  226.23    9.03
   4   1   3 1654.37   20.57
  -4  -1  -3 1695.12   28.71
  -4  -1  -3 1665.44   15.65
  -4  -1  -3 1670.39   17.09
   4   1   3 1668.40   24.88
  -4  -1  -4 2722.68   37.99
  -4  -1  -4 2638.06   35.47
   4   1   4 2647.07   32.04
  -4  -1  -4 2644.56   22.84
   4   1   4 2630.03   26.39
   4   1   5  280.20    8.91
  -4  -1  -5  271.01   12.48
  -4  -1  -5  300.11    8.69
  -4  -1  -5  293.82   12.27
   4   1   5  293.55   10.94
  -4  -1  -5  285.76    8.92
   4   1   6  267.80    8.95
  -4  -1  -6  259.08   12.82
  -4  -1  -6  247.16   11.73
  -4  -1  -6  257.18    8.92
   4   1   6  243.98   10.33
  -4  -1  -6  236.47    8.92
   4   1   7   30.11    3.20
  -4  -1  -7   21.27    3.75
  -4  -1  -7   26.82    4.44
   4   1   7   23.05    4.25
   4   1   7   23.08    4.19
  -4  -1  -7   24.21    3.07
   4   1   7   27.88    3.64
  -4  -1  -7   17.92    2.77
  -4  -1  -8   10.30    2.37
  -4  -1  -8    7.92    2.52
   4   1   8   11.24    3.38
   4   1   8   13.12    3.48
  -4  -1  -8   15.40    3.78
   4   1   8    9.73    2.32
  -4  -1  -8    7.46    2.12
   4   1   9   64.89    7.67
   4   1   9   60.85    7.51
  -4  -1  -9   56.59    7.06
  -4  -1  -9   73.74    6.20
   4   1   9   69.35    6.16
  -4  -1  -9   50.81    6.28
  -4  -1  -9   64.19    5.91
   4   1  10  105.00   10.09
   4   1  10   90.19    9.51
  -4  -1 -10  116.81   10.46
  -4  -1 -10  113.47    8.27
   4   1  10  104.89    7.96
  -4  -1 -10  103.36    9.19
  -4  -1 -10  103.91    8.03
   4   1  11  511.54   22.84
   4   1  11  494.25   23.28
  -4  -1 -11  486.38   22.59
  -4  -1 -11  507.89   18.36
   4   1  11  534.34   18.47
  -4  -1 -11  526.40   21.84
  -4  -1 -11  558.68   19.68
   4   1  12    1.11    1.75
   4   1  12   -0.42    1.92
  -4  -1 -12    1.32    2.02
  -4  -1 -12   -0.02    1.44
  -4  -1 -12    3.65    2.21
  -4  -1 -12    1.04    1.31
  -4  -1 -13   -0.02    1.71
   4   1  13    0.80    2.15
  -4  -1 -13    0.28    1.67
  -4  -1 -14   58.23    8.42
   4   1  14   62.85    9.57
   4   1  14   57.05    8.56
  -4  -1 -15   28.41    6.16
   4   1  15   42.34    8.27
   4   1  15   39.19    7.29
  -4  -2  17   18.27    5.84
  -4  -2  17   10.90    4.04
   4   2 -17   14.34    4.28
  -4  -2  16   87.59   11.39
   4   2 -16   75.83    9.33
  -4  -2  16   73.68    9.70
  -4  -2  16   72.42    8.00
  -4  -2  15  121.23   12.76
   4   2 -15  128.91   11.52
  -4  -2  15  112.35   11.46
  -4  -2  15  113.86    9.66
  -4  -2  14   56.23    8.39
   4   2 -14   57.62    7.13
   4   2 -14   56.74    7.24
  -4  -2  14   52.39    7.72
  -4  -2  14   69.88    7.10
  -4  -2  14   60.35    6.80
   4   2 -13    0.98    1.46
  -4  -2  13    2.11    1.90
  -4  -2  13    1.71    1.96
  -4  -2  13    3.38    1.78
  -4  -2  13    1.28    1.14
   4   2 -13    2.14    1.60
   4   2 -13    3.61    1.63
   4   2 -12    7.38    2.40
  -4  -2  12    8.79    2.52
  -4  -2  12    9.44    3.43
   4   2 -12    7.47    2.42
  -4  -2  12   10.67    3.22
  -4  -2  12    9.78    2.63
   4   2 -12   11.40    3.04
   4   2 -11    8.88    2.51
  -4  -2  11    9.86    2.48
   4   2 -11    9.33    2.70
  -4  -2  11   11.87    3.65
  -4  -2  11    9.60    2.91
  -4  -2  11   12.67    2.89
   4   2 -11   10.80    2.86
  -4  -2  10   11.71    3.22
   4   2 -10    5.25    2.01
   4   2 -10    4.84    2.23
  -4  -2  10    5.81    2.02
  -4  -2  10    6.75    2.60
  -4  -2  10    4.37    1.66
   4   2 -10    8.09    2.31
  -4  -2   9  673.47   22.21
   4   2  -9  662.59   20.36
  -4  -2   9  671.80   21.10
   4   2  -9  671.69   18.43
  -4  -2   9  665.68   17.57
  -4  -2   9  677.87   18.15
   4   2  -9  726.56   18.86
  -4  -2   8  174.38   10.94
   4   2  -8  165.79    9.80
  -4  -2   8  175.06   10.33
   4   2  -8  154.85    8.33
  -4  -2   8  163.63    8.34
  -4  -2   8  165.05    8.64
   4   2  -8  173.40    8.92
   4   2  -7  992.60   19.63
  -4  -2   7 1010.71   24.93
  -4  -2   7 1017.52   23.65
   4   2  -7  987.11   23.36
  -4  -2   7  958.98   19.60
  -4  -2   7  990.33   20.35
   4   2  -7 1024.34   20.47
  -4  -2   6  226.82   11.29
   4   2  -6  232.60   10.99
  -4  -2   6  224.28   10.67
   4   2  -6  216.42    8.46
  -4  -2   6  210.06    8.93
  -4  -2   6  218.47    9.32
   4   2  -6  221.00    9.08
   4   2  -5  111.07    7.47
  -4  -2   5  121.99    7.61
   4   2  -5  130.51    6.00
  -4  -2   5  118.56    6.56
  -4  -2   5  139.07    8.46
  -4  -2   5  119.70    6.76
   4   2  -5  130.13    6.59
  -4  -2   4  133.73    7.98
   4   2  -4  132.98    5.44
  -4  -2   4  135.26    7.78
  -4  -2   4  132.45    6.85
   4   2  -4  133.29    7.92
  -4  -2   4  126.20    6.91
   4   2  -4  142.82    6.51
   4   2  -3   62.28    3.18
  -4  -2   3   68.31    5.48
   4   2  -3   61.69    5.25
  -4  -2   3   67.14    4.88
  -4  -2   3   63.54    4.94
   4   2  -3   72.59    4.37
   4   2  -2  647.42   16.55
  -4  -2   2  624.19   16.41
  -4  -2   2  633.35   14.87
  -4  -2   2  663.14   11.72
  -4  -2   2  647.49   15.87
   4   2  -2  649.00   12.13
   4   2  -1  126.99    7.17
  -4  -2   1  118.65    7.18
  -4  -2   1  129.59    6.77
  -4  -2   1  132.55    5.60
   4   2  -1  125.80    4.93
   4   2   0 2305.38   29.90
   4   2   0 2189.20   23.65
   4   2   0 2202.46   24.96
  -4  -2   0 2275.23   31.82
  -4  -2   0 2268.82   28.68
  -4  -2   0 2196.09   24.99
  -4  -2   0 2297.71   18.71
   4   2   0 2272.21   18.88
   4   2   1  130.92    7.11
   4   2   1  131.09    5.52
  -4  -2  -1  120.01    7.52
  -4  -2  -1  143.78    7.48
  -4  -2  -1  132.93    6.58
   4   2   1  128.04    6.11
  -4  -2  -1  129.69    4.76
   4   2   1  134.76    4.02
   4   2   2  756.35   12.72
   4   2   2  770.41   15.36
  -4  -2  -2  774.21   16.82
  -4  -2  -2  776.50   12.65
  -4  -2  -2  809.68   19.92
   4   2   2  777.43   17.30
   4   2   3   44.57    3.04
  -4  -2  -3   52.87    2.58
  -4  -2  -3   51.45    5.27
  -4  -2  -3   47.89    4.52
  -4  -2  -3   41.75    3.27
   4   2   3   48.62    4.38
  -4  -2  -3   48.03    4.63
   4   2   4    3.71    1.47
   4   2   4    3.70    0.88
  -4  -2  -4    1.54    1.23
  -4  -2  -4    4.97    1.79
  -4  -2  -4    5.67    1.83
  -4  -2  -4    3.03    1.12
  -4  -2  -4    4.44    0.97
   4   2   5  438.58    9.38
  -4  -2  -5  405.50   13.97
  -4  -2  -5  461.96   16.90
  -4  -2  -5  435.44   10.38
  -4  -2  -5  447.93   15.69
   4   2   5  426.85   13.41
  -4  -2  -5  442.85   12.33
  -4  -2  -5  416.90   14.59
  -4  -2  -6   64.08    5.98
  -4  -2  -6   73.83    7.11
  -4  -2  -6   66.10    4.58
  -4  -2  -6   67.14    6.49
   4   2   6   69.97    5.60
  -4  -2  -6   67.67    5.19
  -4  -2  -6   71.24    5.96
   4   2   7  254.54   14.53
  -4  -2  -7  261.17   12.63
  -4  -2  -7  269.42   14.17
  -4  -2  -7  251.19    9.78
   4   2   7  261.25   11.05
  -4  -2  -7  261.85   11.01
  -4  -2  -7  258.84   11.62
  -4  -2  -8    1.44    1.52
  -4  -2  -8    1.63    1.70
   4   2   8    0.12    1.88
  -4  -2  -8   -0.42    1.06
   4   2   8    0.48    1.21
  -4  -2  -8   -0.79    1.00
   4   2   9   44.45    6.58
  -4  -2  -9   43.16    5.75
  -4  -2  -9   42.38    4.72
  -4  -2  -9   41.28    6.15
   4   2   9   39.31    4.65
  -4  -2  -9   43.61    5.22
  -4  -2 -10   27.57    4.90
   4   2  10   29.22    5.44
  -4  -2 -10   31.49    5.73
   4   2  10   26.61    5.17
   4   2  10   31.12    4.23
  -4  -2 -10   29.25    4.53
  -4  -2 -11   20.02    4.47
   4   2  11   20.93    4.82
   4   2  11   19.42    4.68
  -4  -2 -11   21.42    5.14
  -4  -2 -11   20.15    3.95
   4   2  12   -1.17    2.04
   4   2  12    0.58    1.49
  -4  -2 -12    1.19    2.22
  -4  -2 -12   -1.90    1.74
  -4  -2 -12    4.75    2.48
   4   2  13    0.85    1.97
   4   2  13    2.72    2.60
  -4  -2 -13    1.29    2.16
  -4  -2 -13    2.77    2.70
   4   2  14  135.42   13.63
  -4  -2 -14  145.21   14.45
   4   2  15    2.48    1.97
  -4  -3  17   50.05    9.17
   4   3 -17   61.42    8.74
  -4  -3  17   62.00    9.25
   4   3 -16   10.86    3.62
  -4  -3  16   17.27    5.20
  -4  -3  16   14.82    4.60
   4   3 -16   21.01    4.98
  -4  -3  15   87.34   11.00
   4   3 -15   80.41    9.14
   4   3 -15   68.19    8.33
  -4  -3  15   91.34   10.37
  -4  -3  15   79.07    8.30
   4   3 -15   73.05    7.94
   4   3 -14   13.27    3.42
  -4  -3  14   11.72    4.13
  -4  -3  14   12.38    3.15
  -4  -3  14   15.43    3.95
   4   3 -14   15.93    4.17
  -4  -3  14   11.65    3.12
   4   3 -14   11.98    3.32
   4   3 -13   18.63    3.85
  -4  -3  13    8.93    2.71
  -4  -3  13    4.57    3.09
  -4  -3  13   13.02    3.69
  -4  -3  13   12.36    3.14
   4   3 -13   15.31    3.86
   4   3 -13   13.14    3.33
  -4  -3  12  191.35   12.91
   4   3 -12  189.42   11.70
   4   3 -12  201.84   13.05
  -4  -3  12  205.42   14.59
  -4  -3  12  196.08   11.55
  -4  -3  12  187.19   10.70
   4   3 -12  188.40   11.34
  -4  -3  11  269.65   15.92
   4   3 -11  261.99   14.52
  -4  -3  11  269.44   14.69
   4   3 -11  257.41   12.93
  -4  -3  11  261.31   12.90
  -4  -3  11  261.74   12.12
   4   3 -11  277.88   13.06
  -4  -3  10  398.62   18.38
   4   3 -10  390.54   16.98
  -4  -3  10  393.47   16.92
   4   3 -10  405.26   15.22
  -4  -3  10  396.37   15.23
  -4  -3  10  380.88   14.04
   4   3 -10  402.47   15.02
  -4  -3   9  178.84   11.74
   4   3  -9  176.51   11.13
  -4  -3   9  175.44   10.78
   4   3  -9  197.33   10.06
  -4  -3   9  174.71    9.75
  -4  -3   9  185.24    9.39
   4   3  -9  186.10    9.84
   4   3  -8  277.48   13.51
  -4  -3   8  294.09   13.40
  -4  -3   8  298.16   14.52
   4   3  -8  309.67   11.65
  -4  -3   8  284.27   12.00
  -4  -3   8  288.18   11.33
   4   3  -8  311.40   12.17
   4   3  -7  287.26   13.36
  -4  -3   7  282.43   13.48
   4   3  -7  293.28   10.50
  -4  -3   7  248.03   11.76
  -4  -3   7  262.85   11.32
  -4  -3   7  269.26   10.67
   4   3  -7  306.14   11.52
  -4  -3   6  115.68    8.19
   4   3  -6  107.87    7.91
  -4  -3   6  104.55    7.52
   4   3  -6  125.39    6.30
  -4  -3   6  103.51    7.00
  -4  -3   6  112.89    6.81
   4   3  -6  124.47    7.07
  -4  -3   5   37.04    4.50
   4   3  -5   27.86    4.13
  -4  -3   5   27.19    3.73
   4   3  -5   31.78    2.88
  -4  -3   5   33.07    3.89
  -4  -3   5   28.00    3.42
   4   3  -5   33.54    3.57
  -4  -3   4  355.42   13.29
   4   3  -4  373.66   14.05
   4   3  -4  376.73    8.66
  -4  -3   4  375.11   12.83
  -4  -3   4  372.45   12.29
  -4  -3   4  357.53   13.03
   4   3  -4  369.19   11.05
  -4  -3   3  366.24   12.93
  -4  -3   3  350.93   13.85
  -4  -3   3  360.45   12.82
   4   3  -3  342.92    6.95
  -4  -3   3  340.86   12.14
   4   3  -3  356.51   13.40
  -4  -3   3  342.16   11.87
   4   3  -3  352.95   10.18
  -4  -3   2  122.09    7.46
   4   3  -2  129.89    7.91
  -4  -3   2  138.73    8.63
  -4  -3   2  125.70    7.44
  -4  -3   2  136.91    6.52
   4   3  -2  129.43    5.83
   4   3  -1    9.21    1.51
  -4  -3   1    4.48    1.79
   4   3  -1    8.74    2.16
  -4  -3   1    6.88    1.96
  -4  -3   1    8.49    2.07
  -4  -3   1    8.96    1.79
   4   3   0  359.59   12.54
  -4  -3   0  339.24   13.53
  -4  -3   0  348.30   12.83
  -4  -3   0  345.83   12.42
  -4  -3   0  351.77   11.55
  -4  -3   0  358.57    9.36
   4   3   0  341.87   11.40
   4   3   0  354.70    8.30
   4   3   1   11.80    2.20
  -4  -3  -1   11.08    2.26
  -4  -3  -1    9.83    2.44
   4   3   1   14.63    1.80
  -4  -3  -1   11.60    2.49
  -4  -3  -1   11.49    2.55
  -4  -3  -1   10.15    1.68
   4   3   1    7.41    1.94
   4   3   1   13.16    1.49
   4   3   2   84.17    5.79
  -4  -3  -2   80.61    6.54
  -4  -3  -2   66.96    6.19
   4   3   2   71.92    3.56
  -4  -3  -2   81.55    6.13
  -4  -3  -2   69.01    4.59
   4   3   2   80.23    3.10
   4   3   2   75.90    5.67
   4   3   3  114.36    6.96
   4   3   3  112.78    3.99
  -4  -3  -3  101.04    7.55
  -4  -3  -3  111.39    8.03
  -4  -3  -3   99.12    7.18
  -4  -3  -3   96.54    5.71
  -4  -3  -3  101.32    6.73
   4   3   3  104.35    6.62
   4   3   3  111.51    2.80
  -4  -3  -4  797.45   19.34
  -4  -3  -4  776.33   21.72
  -4  -3  -4  743.79   20.68
  -4  -3  -4  767.46   20.85
  -4  -3  -4  766.56   17.08
   4   3   4  772.12   18.07
  -4  -3  -5   53.56    5.25
  -4  -3  -5   52.37    5.94
  -4  -3  -5   39.31    4.96
  -4  -3  -5   40.27    5.12
   4   3   5   48.41    4.70
  -4  -3  -5   50.82    4.74
   4   3   6   12.39    2.44
  -4  -3  -6    6.40    2.08
   4   3   6   11.01    3.37
  -4  -3  -6   13.43    3.24
  -4  -3  -6    8.55    2.35
  -4  -3  -6   15.18    3.46
  -4  -3  -6    6.52    1.96
   4   3   7  225.06   14.30
  -4  -3  -7  219.28   11.41
  -4  -3  -7  241.88   13.72
  -4  -3  -7  219.16   11.72
  -4  -3  -7  220.19   13.29
   4   3   7  230.14   10.40
  -4  -3  -7  220.56   10.95
   4   3   8   56.96    7.40
  -4  -3  -8   55.95    6.14
  -4  -3  -8   55.47    7.11
  -4  -3  -8   55.75    7.18
   4   3   8   61.53    5.53
  -4  -3  -8   55.13    5.93
   4   3   9  367.80   19.48
  -4  -3  -9  373.81   18.88
  -4  -3  -9  402.95   19.96
  -4  -3  -9  390.25   16.40
  -4  -3  -9  362.17   16.04
  -4  -3 -10   44.68    5.98
   4   3  10   54.90    7.91
  -4  -3 -10   57.57    7.89
  -4  -3 -10   62.49    8.35
  -4  -3 -10   58.88    6.75
   4   3  11   33.26    6.51
  -4  -3 -11   28.12    5.89
  -4  -3 -11   38.96    6.94
  -4  -3 -11   35.25    5.65
   4   3  12    0.83    2.15
  -4  -3 -12    2.97    2.67
  -4  -3 -12   -0.49    2.31
   4   3  13   37.92    7.38
  -4  -3 -13   33.16    7.34
   4   3  14    8.05    3.71
  -4  -3 -14    3.53    2.36
   4   4 -17    4.75    2.69
   4   4 -17    6.25    3.11
  -4  -4  17   -0.77    2.29
  -4  -4  17    8.85    3.56
   4   4 -17    3.52    2.23
   4   4 -16   39.50    6.25
  -4  -4  16   35.88    7.75
  -4  -4  16   49.52    8.00
   4   4 -16   36.23    6.85
  -4  -4  16   41.52    6.56
   4   4 -16   40.39    6.80
  -4  -4  15   49.87    8.80
   4   4 -15   49.28    7.19
  -4  -4  15   41.42    7.07
  -4  -4  15   49.85    6.93
   4   4 -15   45.86    7.35
   4   4 -15   47.58    6.64
   4   4 -14   85.72    9.63
   4   4 -14   86.00    8.92
  -4  -4  14   80.64   10.28
  -4  -4  14   89.82    9.72
  -4  -4  14   90.86    9.07
   4   4 -14   88.78    8.61
   4   4 -13    1.72    1.68
  -4  -4  13    0.95    1.92
  -4  -4  13    0.14    1.22
   4   4 -13   -1.04    1.89
  -4  -4  13    3.15    2.30
   4   4 -13    0.68    1.28
   4   4 -12   11.42    3.13
   4   4 -12   13.36    3.37
  -4  -4  12    2.27    2.41
  -4  -4  12   11.04    2.64
  -4  -4  12   10.24    3.19
  -4  -4  12   14.20    3.50
   4   4 -12   13.00    3.58
   4   4 -11  173.25   10.67
  -4  -4  11  171.44   12.96
   4   4 -11  168.22   12.22
  -4  -4  11  167.42   11.65
  -4  -4  11  166.85   11.01
  -4  -4  11  180.71    9.94
   4   4 -11  165.06   10.37
   4   4 -10    2.21    1.58
   4   4 -10    5.26    2.10
  -4  -4  10    0.71    0.88
  -4  -4  10    7.56    2.94
   4   4 -10    3.59    2.09
  -4  -4  10    6.72    2.38
  -4  -4  10    3.39    2.00
  -4  -4   9  306.69   14.43
   4   4  -9  299.16   15.21
  -4  -4   9  290.68   15.30
   4   4  -9  320.15   12.63
  -4  -4   9  306.38   13.98
  -4  -4   9  316.21   12.30
   4   4  -9  308.50   13.18
  -4  -4   8   42.59    5.70
   4   4  -8   49.80    6.15
  -4  -4   8   55.63    5.96
  -4  -4   8   51.11    5.56
   4   4  -8   47.93    4.62
  -4  -4   8   49.30    4.73
   4   4  -8   52.47    5.23
  -4  -4   7 1177.73   28.33
   4   4  -7 1143.49   28.12
  -4  -4   7 1157.59   25.77
   4   4  -7 1216.74   21.28
  -4  -4   7 1138.64   25.59
  -4  -4   7 1157.38   22.66
   4   4  -7 1189.16   23.91
   4   4  -6   89.99    7.75
  -4  -4   6   85.45    6.89
  -4  -4   6   87.03    7.35
   4   4  -6   87.50    5.23
  -4  -4   6   83.76    6.87
  -4  -4   6   89.63    6.27
   4   4  -6   93.67    6.52
   4   4  -5   15.19    2.02
   4   4  -5   12.87    2.49
  -4  -4   5   14.74    2.65
  -4  -4   5   10.53    2.57
  -4  -4   5    7.60    2.12
   4   4  -5   10.54    2.78
  -4  -4   5    8.37    2.24
  -4  -4   5   13.43    3.28
   4   4  -4   68.07    6.40
  -4  -4   4   66.51    5.80
  -4  -4   4   68.33    6.82
   4   4  -4   64.10    3.55
  -4  -4   4   60.00    5.68
  -4  -4   4   63.49    5.83
   4   4  -4   67.35    5.10
   4   4  -3  198.55   10.55
  -4  -4   3  220.18   10.30
  -4  -4   3  199.04   11.29
  -4  -4   3  201.84    9.92
   4   4  -3  207.13    5.38
  -4  -4   3  202.55   10.33
  -4  -4   3  200.79    9.04
   4   4  -3  199.88    8.33
  -4  -4   2  172.07    8.76
  -4  -4   2  183.79   10.85
  -4  -4   2  185.31    9.51
   4   4  -2  187.51    3.72
   4   4  -2  192.48   10.13
  -4  -4   2  177.23    9.63
  -4  -4   2  188.66    8.91
   4   4  -2  184.73    7.70
   4   4  -1   48.75    3.75
   4   4  -1   45.50    4.87
  -4  -4   1   54.30    5.97
  -4  -4   1   39.73    4.55
  -4  -4   1   54.23    5.38
  -4  -4   1   53.70    4.92
  -4  -4   1   46.95    4.00
   4   4   0  964.68   15.88
   4   4   0  945.46   21.46
   4   4   0  910.47   20.92
  -4  -4   0  914.83   24.22
  -4  -4   0  970.17   22.33
  -4  -4   0 1013.39   23.30
  -4  -4   0  990.73   18.45
  -4  -4   0  996.74   21.87
   4   4   1  194.07    6.62
   4   4   1  168.95    8.99
   4   4   1  182.74    5.88
   4   4   1  189.02    9.63
  -4  -4  -1  189.55   10.04
  -4  -4  -1  177.77   10.69
  -4  -4  -1  199.38   10.43
  -4  -4  -1  175.19    9.55
  -4  -4  -1  173.88    7.99
   4   4   2   12.05    1.58
   4   4   2   10.68    2.42
  -4  -4  -2    9.22    2.46
  -4  -4  -2    9.87    2.76
  -4  -4  -2   11.55    2.65
  -4  -4  -2   10.84    2.63
   4   4   2   13.14    2.65
  -4  -4  -2    9.03    2.05
   4   4   3  186.66    9.77
  -4  -4  -3  199.07    9.27
  -4  -4  -3  201.36   11.02
  -4  -4  -3  184.39   11.26
  -4  -4  -3  174.83   10.41
  -4  -4  -3  202.54    9.29
   4   4   3  199.28    9.56
   4   4   4  610.66   18.15
  -4  -4  -4  607.55   16.71
  -4  -4  -4  597.86   19.80
  -4  -4  -4  585.22   20.19
  -4  -4  -4  583.82   19.79
  -4  -4  -4  632.87   17.30
   4   4   4  589.15   16.40
   4   4   5  207.65   13.20
  -4  -4  -5  233.16   10.73
  -4  -4  -5  226.80   12.70
  -4  -4  -5  225.34   12.56
  -4  -4  -5  207.05   12.35
  -4  -4  -5  224.73   10.82
   4   4   5  237.57   10.40
   4   4   6   18.61    2.96
  -4  -4  -6   10.64    2.50
  -4  -4  -6   17.85    3.86
  -4  -4  -6   15.54    3.56
  -4  -4  -6   15.09    3.60
  -4  -4  -6   10.60    2.59
  -4  -4  -7   19.10    3.46
   4   4   7   36.91    6.03
  -4  -4  -7   34.64    5.44
  -4  -4  -7   32.25    4.97
   4   4   7   37.16    4.23
  -4  -4  -7   23.86    4.77
  -4  -4  -7   28.75    4.38
   4   4   8   14.41    4.40
  -4  -4  -8   15.13    3.88
  -4  -4  -8    3.63    1.95
  -4  -4  -8   13.25    3.06
   4   4   9  165.95   13.72
  -4  -4  -9  158.98   12.69
  -4  -4  -9  152.68   13.02
  -4  -4  -9  166.18   11.38
   4   4  10    0.14    2.13
  -4  -4 -10    1.91    1.56
  -4  -4 -10    0.69    1.94
  -4  -4 -10   -0.94    1.31
   4   4  11   10.96    4.08
  -4  -4 -11    7.56    3.34
  -4  -4 -11   10.23    4.29
   4   4  12   36.15    7.18
  -4  -4 -12   34.32    6.92
  -4  -4 -12   37.67    7.62
   4   4  13   16.78    5.39
  -4  -4 -13   21.58    6.03
   4   5 -17   76.36   10.25
   4   5 -17   75.78    9.74
  -4  -5  17   59.26    8.90
  -4  -5  17   68.84    9.07
   4   5 -16   -0.63    1.76
  -4  -5  16    5.07    3.15
   4   5 -16   -1.28    1.67
  -4  -5  16    2.20    2.12
  -4  -5  16    1.89    1.82
   4   5 -16   -1.43    1.67
   4   5 -15    6.69    2.67
  -4  -5  15    8.97    4.20
  -4  -5  15    7.25    3.00
  -4  -5  15    6.13    2.77
   4   5 -15    1.72    2.31
   4   5 -15    1.33    1.68
  -4  -5  14  101.44   11.78
   4   5 -14  112.10   11.52
  -4  -5  14  100.61   10.36
   4   5 -14  102.42    9.81
  -4  -5  14  105.18   10.28
   4   5 -14   99.32    9.33
   4   5 -13    8.92    2.99
   4   5 -13    5.05    2.26
  -4  -5  13    7.41    3.61
  -4  -5  13    8.69    3.15
  -4  -5  13    7.13    2.83
   4   5 -13    6.47    3.24
   4   5 -12  220.26   15.04
  -4  -5  12  211.21   13.72
   4   5 -12  219.17   12.74
  -4  -5  12  219.84   15.76
  -4  -5  12  201.49   13.29
   4   5 -12  214.30   12.70
   4   5 -11  216.92   12.01
   4   5 -11  188.46   13.48
  -4  -5  11  213.21   13.20
  -4  -5  11  222.11   13.46
  -4  -5  11  225.14   15.35
   4   5 -11  215.43   12.24
   4   5 -10  239.92   14.86
  -4  -5  10  239.99   13.54
  -4  -5  10  256.55   15.53
   4   5 -10  276.27   12.69
  -4  -5  10  221.23   13.14
   4   5 -10  283.57   13.55
   4   5  -9   26.00    3.78
   4   5  -9   30.51    4.47
  -4  -5   9   11.91    2.62
  -4  -5   9   20.29    4.03
   4   5  -9   22.93    4.52
  -4  -5   9   16.68    3.91
  -4  -5   9   21.78    3.93
   4   5  -8   12.15    2.42
   4   5  -8   15.36    3.07
   4   5  -8   12.72    3.41
  -4  -5   8    6.05    1.86
  -4  -5   8   14.10    3.67
  -4  -5   8   13.94    3.17
  -4  -5   8   18.47    3.70
  -4  -5   8    6.88    2.63
   4   5  -7    1.60    1.04
   4   5  -7    0.82    1.02
  -4  -5   7   -0.08    1.05
  -4  -5   7    2.91    1.82
  -4  -5   7    0.52    1.07
  -4  -5   7    3.26    1.82
  -4  -5   7   -0.09    0.87
   4   5  -7    3.82    2.19
   4   5  -6  571.40   20.34
  -4  -5   6  544.08   20.64
  -4  -5   6  532.70   17.45
  -4  -5   6  536.14   18.60
   4   5  -6  575.46   13.68
  -4  -5   6  566.00   19.19
   4   5  -6  548.97   16.67
   4   5  -5  197.00   11.74
  -4  -5   5  180.09    9.91
   4   5  -5  194.57    7.22
  -4  -5   5  185.08   10.53
  -4  -5   5  196.36   11.26
  -4  -5   5  197.46   12.46
   4   5  -5  199.87    9.81
  -4  -5   4  152.13    9.21
   4   5  -4  145.16    9.76
  -4  -5   4  164.30   11.26
  -4  -5   4  152.02    8.98
   4   5  -4  151.81    5.70
  -4  -5   4  164.74   10.14
   4   5  -4  151.60    8.20
   4   5  -3   15.80    2.61
  -4  -5   3   16.35    2.98
  -4  -5   3   15.90    3.81
  -4  -5   3   12.18    2.65
  -4  -5   3   13.01    2.95
  -4  -5   3   15.33    2.96
   4   5  -3   14.20    3.17
   4   5  -2  110.93    6.57
  -4  -5   2  103.02    8.83
  -4  -5   2  109.83    7.58
   4   5  -2  116.21    8.34
  -4  -5   2  100.74    7.95
  -4  -5   2  111.81    7.70
  -4  -5   2  118.30    7.42
   4   5  -1  125.81    6.78
   4   5  -1  117.83    8.18
  -4  -5   1  127.00    9.84
  -4  -5   1  118.96    7.25
  -4  -5   1  121.83    8.79
  -4  -5   1  121.83    8.25
  -4  -5   1  113.82    7.77
  -4  -5   1  131.90    7.57
   4   5   0  118.80    6.29
   4   5   0  113.57    7.89
   4   5   0  114.76    8.17
  -4  -5   0  101.69    7.43
  -4  -5   0  105.82    8.92
  -4  -5   0  105.38    6.81
  -4  -5   0  128.36    8.97
  -4  -5   0  115.73    8.27
   4   5   1   25.38    2.86
   4   5   1   29.36    4.01
   4   5   1   26.98    4.13
  -4  -5  -1   22.06    3.55
  -4  -5  -1   21.65    4.22
  -4  -5  -1   30.55    4.53
  -4  -5  -1   22.96    3.89
  -4  -5  -1   20.43    3.22
   4   5   2   17.70    3.44
  -4  -5  -2   22.60    3.81
  -4  -5  -2   19.72    4.11
  -4  -5  -2   21.14    3.94
  -4  -5  -2   20.68    3.90
   4   5   2   22.44    3.48
  -4  -5  -2   20.74    3.35
   4   5   3  588.07   18.99
  -4  -5  -3  558.26   19.04
  -4  -5  -3  535.36   20.56
  -4  -5  -3  558.21   20.29
  -4  -5  -3  568.37   17.40
   4   5   3  563.26   16.75
   4   5   4   -0.03    1.56
   4   5   4    2.65    1.63
   4   5   4    1.61    1.11
  -4  -5  -4    4.95    1.98
  -4  -5  -4    3.05    1.87
  -4  -5  -4    4.22    2.06
  -4  -5  -4    1.64    1.27
  -4  -5  -5   26.73    4.67
  -4  -5  -5   17.89    4.04
   4   5   5   30.39    5.37
  -4  -5  -5   27.40    4.95
  -4  -5  -5   33.80    4.58
   4   5   5   35.90    4.21
  -4  -5  -6    2.37    2.13
  -4  -5  -6   -1.17    1.54
   4   5   6   -0.88    2.40
  -4  -5  -6    1.32    1.65
  -4  -5  -6    2.44    1.02
  -4  -5  -7   11.71    3.22
  -4  -5  -7    4.47    2.28
  -4  -5  -7    5.41    2.73
   4   5   7    6.88    3.00
  -4  -5  -7   10.01    2.98
   4   5   8  288.15   18.10
  -4  -5  -8  295.64   16.99
  -4  -5  -8  304.26   18.42
  -4  -5  -8  305.86   15.54
   4   5   9    0.91    2.24
  -4  -5  -9    3.97    2.33
  -4  -5  -9    3.16    2.52
  -4  -5  -9    4.12    2.16
   4   5  10   87.81   10.78
  -4  -5 -10   70.72    9.34
  -4  -5 -10   83.56   10.62
   4   5  11   23.03    5.89
  -4  -5 -11   24.38    6.42
  -4  -5 -11   22.21    5.34
   4   5  12   -1.83    1.91
  -4  -5 -12   12.30    5.03
  -4  -6  17   -1.36    2.77
   4   6 -16    4.39    2.52
  -4  -6  16    4.68    3.47
  -4  -6  16    5.12    2.87
   4   6 -16    6.11    3.36
  -4  -6  16    5.31    2.69
   4   6 -16    5.78    2.74
   4   6 -15   28.09    5.48
   4   6 -15   36.99    6.14
  -4  -6  15   20.11    5.80
   4   6 -15   30.50    6.57
  -4  -6  15   25.03    5.45
  -4  -6  15   29.25    5.98
   4   6 -14   47.77    6.73
  -4  -6  14   54.96    8.92
   4   6 -14   48.42    6.79
  -4  -6  14   53.06    7.64
   4   6 -14   39.44    7.26
  -4  -6  14   39.86    6.74
   4   6 -13    4.00    2.37
   4   6 -13    3.27    2.43
  -4  -6  13    1.97    1.99
  -4  -6  13    0.91    1.70
  -4  -6  13    0.33    1.47
  -4  -6  13    2.69    1.96
   4   6 -13    1.69    1.91
   4   6 -12   -1.03    1.30
   4   6 -12    1.19    1.61
  -4  -6  12   -0.12    2.44
  -4  -6  12    4.31    2.74
  -4  -6  12    3.62    2.22
   4   6 -12   -1.98    2.64
  -4  -6  12   -1.38    1.98
  -4  -6  11   83.76    9.60
   4   6 -11   90.70    9.91
  -4  -6  11   81.16    9.22
  -4  -6  11   93.69    8.89
  -4  -6  11   76.43    8.56
   4   6 -11   98.51    8.18
   4   6 -11   96.09    8.67
   4   6 -10    2.81    1.61
   4   6 -10    1.97    1.67
  -4  -6  10    1.34    1.58
  -4  -6  10    1.82    1.94
   4   6 -10    3.67    2.10
  -4  -6  10    1.02    1.34
  -4  -6  10    6.44    2.80
  -4  -6   9  250.89   13.32
  -4  -6   9  225.09   14.33
   4   6  -9  235.03   14.89
   4   6  -9  231.56   11.09
  -4  -6   9  227.07   13.88
  -4  -6   9  230.08   14.79
   4   6  -9  250.03   13.04
   4   6  -8    2.50    2.09
   4   6  -8   -1.17    1.00
   4   6  -8   -0.64    1.18
  -4  -6   8   -1.02    1.85
  -4  -6   8   -0.49    1.57
  -4  -6   8   -0.96    1.53
  -4  -6   8    1.96    1.55
  -4  -6   7  293.63   14.79
  -4  -6   7  284.68   13.42
   4   6  -7  260.72   14.85
  -4  -6   7  311.41   16.87
   4   6  -7  295.52   10.96
  -4  -6   7  300.93   15.36
   4   6  -7  289.16   13.31
   4   6  -6    5.54    1.90
  -4  -6   6    0.05    0.98
  -4  -6   6    3.61    2.07
  -4  -6   6    3.95    1.77
   4   6  -6    2.14    2.11
  -4  -6   6    4.34    2.07
   4   6  -5  421.10   15.23
  -4  -6   5  432.11   19.49
  -4  -6   5  429.95   15.72
  -4  -6   5  428.47   16.42
  -4  -6   5  425.44   17.85
   4   6  -5  425.46   18.06
   4   6  -4  269.19   11.92
  -4  -6   4  244.32   11.74
   4   6  -4  274.38   14.22
  -4  -6   4  291.83   16.03
  -4  -6   4  280.58   12.55
  -4  -6   4  275.05   14.20
   4   6  -3   57.92    5.38
  -4  -6   3   57.81    5.55
  -4  -6   3   57.34    7.04
  -4  -6   3   44.63    5.12
   4   6  -3   64.86    6.77
  -4  -6   3   50.31    6.09
  -4  -6   3   53.75    5.85
   4   6  -2  758.74   18.87
  -4  -6   2  811.74   19.70
   4   6  -2  743.45   22.37
  -4  -6   2  755.44   23.37
  -4  -6   2  796.82   22.65
  -4  -6   2  723.48   20.09
  -4  -6   2  748.81   25.36
   4   6  -1   21.12    3.13
   4   6  -1   19.19    3.94
  -4  -6   1   20.93    3.07
   4   6  -1   22.71    4.00
  -4  -6   1   15.76    3.26
  -4  -6   1   16.75    4.04
  -4  -6   1   22.83    4.26
  -4  -6   1   20.39    3.77
  -4  -6   1   16.83    3.13
   4   6   0  315.14   11.38
   4   6   0  323.70   13.97
   4   6   0  307.29   14.66
  -4  -6   0  283.11   12.72
  -4  -6   0  272.63   15.42
  -4  -6   0  309.93   15.01
  -4  -6   0  298.36   14.57
  -4  -6   0  292.25   12.55
   4   6   1   29.63    3.45
   4   6   1   30.17    4.23
   4   6   1   41.96    5.44
  -4  -6  -1   37.49    4.85
  -4  -6  -1   33.97    5.60
  -4  -6  -1   24.53    4.43
  -4  -6  -1   36.65    5.45
  -4  -6  -1   29.89    4.24
   4   6   2   11.84    3.21
  -4  -6  -2    7.24    2.26
  -4  -6  -2    3.30    2.14
  -4  -6  -2   15.22    3.51
  -4  -6  -2    9.75    2.92
  -4  -6  -2    8.95    2.60
   4   6   2    8.25    2.32
   4   6   3  191.20   12.75
   4   6   3  192.67   11.89
  -4  -6  -3  184.27   13.02
  -4  -6  -3  204.64   13.31
  -4  -6  -3  212.52   11.69
  -4  -6  -3  196.60   11.66
   4   6   3  207.51   10.61
   4   6   4    4.68    2.26
  -4  -6  -4    1.96    1.60
   4   6   4    0.15    0.89
   4   6   4    3.37    2.04
  -4  -6  -4    0.69    1.62
  -4  -6  -4    3.63    2.19
  -4  -6  -4    1.98    1.73
   4   6   5  163.56   12.54
  -4  -6  -5  164.45   11.47
   4   6   5  168.25   11.52
  -4  -6  -5  188.58   13.42
  -4  -6  -5  172.06   13.06
  -4  -6  -5  204.35   12.18
   4   6   6   17.78    4.51
  -4  -6  -6   19.70    4.33
  -4  -6  -6   14.29    4.04
  -4  -6  -6   14.54    4.07
  -4  -6  -6   20.84    4.13
   4   6   7   52.47    7.71
  -4  -6  -7   60.90    7.76
  -4  -6  -7   58.91    7.97
  -4  -6  -7   59.65    8.47
  -4  -6  -7   62.02    7.20
   4   6   8    6.22    3.33
  -4  -6  -8    1.19    1.64
  -4  -6  -8    1.58    2.11
   4   6   9   84.22   10.47
  -4  -6  -9   83.61    9.77
  -4  -6  -9   98.06   11.71
   4   6  10   20.86    5.59
  -4  -6 -10   17.22    4.65
  -4  -6 -10   17.81    5.62
   4   6  11   11.73    4.46
  -4  -6 -11   -1.65    2.66
  -4  -7  16    1.31    1.89
   4   7 -16    3.86    2.28
   4   7 -15    0.82    1.30
   4   7 -15    3.71    2.66
  -4  -7  15    1.15    2.77
   4   7 -15   10.35    3.97
  -4  -7  15    3.07    2.95
  -4  -7  15    2.63    2.13
  -4  -7  14  113.12   13.01
   4   7 -14  100.21   11.92
  -4  -7  14   97.66   11.20
  -4  -7  14  111.81   11.77
   4   7 -14  114.41   10.49
   4   7 -14  110.18   10.48
   4   7 -13   15.28    3.78
   4   7 -13   17.33    4.15
  -4  -7  13   12.81    4.74
   4   7 -13   14.99    4.86
  -4  -7  13    6.93    2.82
  -4  -7  13   19.37    5.08
  -4  -7  12  178.83   15.01
  -4  -7  12  179.00   14.54
   4   7 -12  204.19   12.58
  -4  -7  12  199.66   14.82
   4   7 -12  165.75   14.41
   4   7 -12  202.88   13.55
   4   7 -11   -2.02    2.24
   4   7 -11    0.57    2.03
  -4  -7  11    0.91    1.42
  -4  -7  11    4.64    2.89
  -4  -7  11    1.73    1.97
  -4  -7  10   98.11   10.07
   4   7 -10  107.21   10.94
  -4  -7  10   99.08   10.07
  -4  -7  10  104.70   10.85
   4   7 -10  104.72    9.26
   4   7  -9   34.70    6.27
  -4  -7   9   22.09    4.72
  -4  -7   9   38.80    5.35
  -4  -7   9   42.03    6.94
  -4  -7   9   37.32    6.14
   4   7  -9   42.63    5.77
   4   7  -8   20.29    4.03
  -4  -7   8    7.64    2.76
  -4  -7   8   18.02    3.63
  -4  -7   8   20.21    4.50
   4   7  -8   20.93    4.76
  -4  -7   8   17.65    4.64
  -4  -7   7  806.58   28.88
  -4  -7   7  824.86   25.44
   4   7  -7  805.95   27.50
  -4  -7   7  842.64   23.39
  -4  -7   7  780.76   26.41
   4   7  -7  845.89   24.06
   4   7  -6  227.90   12.31
  -4  -7   6  223.91   15.24
  -4  -7   6  224.39   12.64
   4   7  -6  219.20   14.11
  -4  -7   6  225.59   14.08
  -4  -7   6  243.03   12.29
   4   7  -5  380.34   15.50
   4   7  -5  379.66   17.98
  -4  -7   5  362.62   19.17
  -4  -7   5  390.69   15.27
  -4  -7   5  382.97   15.69
  -4  -7   5  394.98   18.38
   4   7  -4    1.04    1.20
   4   7  -4    1.21    1.38
  -4  -7   4   -3.50    1.60
  -4  -7   4    0.46    0.92
  -4  -7   4    0.52    1.80
  -4  -7   4    3.77    1.93
   4   7  -3   53.77    5.69
   4   7  -3   49.05    6.15
  -4  -7   3   36.61    4.67
  -4  -7   3   47.14    6.96
  -4  -7   3   50.31    6.59
  -4  -7   3   49.42    6.16
   4   7  -2    3.53    1.54
  -4  -7   2    0.53    0.98
  -4  -7   2   -0.02    1.60
   4   7  -2    4.08    2.17
  -4  -7   2    4.92    2.65
  -4  -7   2    0.87    1.43
   4   7  -1    0.01    0.86
   4   7  -1   -1.21    1.63
   4   7  -1   -1.00    1.54
  -4  -7   1   -0.85    1.86
  -4  -7   1   -1.45    1.32
  -4  -7   1    0.16    0.88
  -4  -7   1   -0.13    1.30
  -4  -7   1   -2.83    1.59
   4   7   0  116.30    7.60
   4   7   0  104.98    8.43
   4   7   0  107.64    9.49
  -4  -7   0  113.77    8.37
  -4  -7   0   92.52    9.83
  -4  -7   0  114.27    9.89
  -4  -7   0   99.60    9.23
  -4  -7   0  114.58    8.70
   4   7   1   72.68    6.89
   4   7   1   60.70    7.06
  -4  -7  -1   66.37    6.55
   4   7   1   66.11    7.45
  -4  -7  -1   63.68    8.19
  -4  -7  -1   70.28    7.82
  -4  -7  -1   56.56    7.23
  -4  -7  -1   67.88    6.93
   4   7   2  111.16    8.30
   4   7   2   97.84    9.14
   4   7   2   95.20    8.85
  -4  -7  -2   98.52   10.18
  -4  -7  -2  116.45    8.87
  -4  -7  -2  122.95   10.34
  -4  -7  -2  108.38   10.19
  -4  -7  -2  102.35    8.63
   4   7   3   -0.37    1.24
   4   7   3    1.03    1.21
  -4  -7  -3    4.65    2.07
  -4  -7  -3    0.73    2.11
  -4  -7  -3    1.72    1.60
  -4  -7  -3    3.41    1.98
   4   7   4  224.60   14.84
  -4  -7  -4  230.34   13.35
  -4  -7  -4  225.78   15.40
   4   7   4  239.71   14.35
  -4  -7  -4  222.09   15.30
  -4  -7  -4  229.40   13.51
   4   7   5    3.62    2.39
   4   7   5    1.58    1.88
  -4  -7  -5    1.57    1.28
  -4  -7  -5   -1.57    1.77
  -4  -7  -5    2.99    2.36
  -4  -7  -5    3.08    1.97
   4   7   6    4.65    2.87
  -4  -7  -6   -0.40    1.95
  -4  -7  -6   -1.21    2.47
  -4  -7  -6   -0.06    1.90
  -4  -7  -6    1.20    1.94
   4   7   7    1.61    1.71
  -4  -7  -7   -0.13    1.28
  -4  -7  -7   -4.55    2.64
  -4  -7  -7    0.67    1.86
   4   7   8    5.14    2.28
  -4  -7  -8    4.32    2.57
  -4  -7  -8    4.67    2.99
   4   7   9   -0.23    1.76
  -4  -7  -9    1.47    1.35
   4   7  10    9.08    4.06
  -4  -7 -10   11.35    4.65
  -4  -8  15   13.13    5.22
   4   8 -14    3.44    2.49
  -4  -8  14    6.27    3.51
   4   8 -14   -1.03    2.48
  -4  -8  14   -0.66    2.31
  -4  -8  14    1.13    1.83
   4   8 -13    4.01    2.33
  -4  -8  13    5.87    3.10
   4   8 -13    6.45    3.68
  -4  -8  13    1.92    2.74
  -4  -8  13    0.54    2.01
   4   8 -12   36.83    7.23
  -4  -8  12   49.56    8.13
  -4  -8  12   30.08    6.50
  -4  -8  12   41.77    7.28
   4   8 -12   47.92    7.18
   4   8 -11   27.35    5.10
   4   8 -11   33.70    6.81
  -4  -8  11   22.93    5.56
  -4  -8  11   26.18    5.72
  -4  -8  11   22.40    5.38
   4   8 -10   35.15    5.75
  -4  -8  10   32.13    6.08
  -4  -8  10   33.33    6.53
  -4  -8  10   30.88    6.04
   4   8 -10   35.16    6.75
  -4  -8   9   56.12    7.51
   4   8  -9   58.67    8.33
  -4  -8   9   59.33    8.62
  -4  -8   9   62.07    8.36
   4   8  -9   63.91    7.48
   4   8  -8   35.31    5.54
  -4  -8   8   27.55    6.19
   4   8  -8   28.10    5.87
  -4  -8   8   26.09    5.17
  -4  -8   8   32.47    5.60
   4   8  -7   34.45    5.23
   4   8  -7   31.77    5.78
  -4  -8   7   26.95    5.87
  -4  -8   7   23.95    5.02
   4   8  -6   48.96    6.04
   4   8  -6   44.76    6.77
  -4  -8   6   45.97    7.46
  -4  -8   6   47.26    6.95
   4   8  -5   -0.36    1.13
   4   8  -5   -0.24    1.71
  -4  -8   5   -0.77    1.49
  -4  -8   5   -2.70    1.97
   4   8  -4   13.79    3.56
   4   8  -4    5.80    2.22
  -4  -8   4    9.46    3.63
  -4  -8   4    6.22    2.82
   4   8  -3   51.76    5.94
   4   8  -3   49.25    6.66
  -4  -8   3   48.71    7.60
  -4  -8   3   48.91    6.89
  -4  -8   3   45.19    6.44
   4   8  -2   38.82    5.08
   4   8  -2   34.05    5.83
  -4  -8   2   23.52    5.26
   4   8  -2   33.82    5.33
  -4  -8   2   35.34    5.93
  -4  -8   2   35.27    5.70
   4   8  -1   16.13    3.26
   4   8  -1   20.07    4.56
   4   8  -1   23.11    4.40
   4   8  -1   17.41    3.54
  -4  -8   1   10.81    4.06
  -4  -8   1   20.56    4.43
  -4  -8   1   20.77    4.58
  -4  -8   1   16.57    3.84
   4   8   0    1.99    2.12
   4   8   0   -0.92    1.76
   4   8   0    0.13    1.10
  -4  -8   0   -1.77    2.62
  -4  -8   0    3.01    2.06
  -4  -8   0    0.39    1.65
  -4  -8   0   -0.68    1.47
   4   8   1   18.04    4.37
   4   8   1   19.40    3.78
  -4  -8  -1   21.97    5.18
  -4  -8  -1   27.87    5.33
  -4  -8  -1   26.66    5.46
   4   8   1   20.19    4.23
  -4  -8  -1   25.56    4.62
   4   8   2   16.08    4.06
   4   8   2   10.45    3.10
  -4  -8  -2    9.32    3.24
  -4  -8  -2   21.42    4.70
  -4  -8  -2   16.10    4.52
  -4  -8  -2   18.68    4.07
   4   8   3  115.18   10.70
   4   8   3  112.21   10.44
  -4  -8  -3  113.98   11.73
  -4  -8  -3  128.24   12.15
  -4  -8  -3  127.51   10.65
   4   8   4   14.15    3.90
   4   8   4    9.51    3.28
  -4  -8  -4    7.39    3.32
  -4  -8  -4    7.96    3.54
  -4  -8  -4    7.70    2.81
   4   8   5   90.15   10.04
   4   8   5  100.45   10.19
  -4  -8  -5  115.14   12.07
  -4  -8  -5   96.42   11.12
   4   8   6   21.97    5.28
  -4  -8  -6   27.03    5.86
  -4  -8  -6   24.16    5.67
   4   8   7    3.30    2.69
  -4  -8  -7    4.25    2.62
  -4  -8  -7    2.23    2.75
   4   8   8  108.94   12.18
  -4  -8  -8   94.05   12.20
  -4  -9  13   18.69    5.20
  -4  -9  13   18.28    5.13
   4   9 -12   24.20    5.14
  -4  -9  12   20.49    5.46
  -4  -9  12   20.48    5.36
   4   9 -12   19.10    5.38
   4   9 -11   68.98    9.89
  -4  -9  11   66.78    9.80
  -4  -9  11   84.02   10.73
   4   9 -11   74.88    8.87
   4   9 -10   17.07    4.13
  -4  -9  10   14.52    4.83
  -4  -9  10   13.29    4.37
   4   9 -10   17.01    5.09
   4   9  -9   30.71    5.69
  -4  -9   9   31.28    6.72
   4   9  -9   23.06    5.60
  -4  -9   9   33.95    6.64
   4   9  -8   77.75    9.85
  -4  -9   8   97.44   11.54
  -4  -9   8  110.63   11.51
   4   9  -8  105.52    9.88
   4   9  -7   43.79    6.27
   4   9  -7   51.32    7.67
  -4  -9   7   49.64    8.31
  -4  -9   7   61.28    8.52
   4   9  -6   31.61    5.26
  -4  -9   6   21.99    5.76
  -4  -9   6   28.28    5.67
   4   9  -6   26.76    5.58
   4   9  -5   96.30    8.94
   4   9  -5   92.16    9.74
  -4  -9   5   83.61   10.45
  -4  -9   5   80.29    9.49
   4   9  -4    5.87    2.54
  -4  -9   4   -0.19    2.07
  -4  -9   4    3.02    2.15
   4   9  -4   -0.95    1.87
   4   9  -3   -0.36    1.30
  -4  -9   3   -0.40    1.62
   4   9  -3   -1.08    1.49
  -4  -9   3    0.75    1.99
  -4  -9   3   -3.10    2.67
   4   9  -2  266.05   14.00
   4   9  -2  281.92   15.82
   4   9  -2  255.82   16.50
  -4  -9   2  279.11   18.89
  -4  -9   2  259.73   16.76
  -4  -9   2  261.11   16.72
   4   9  -1   -1.07    2.05
  -4  -9   1    0.44    1.75
   4   9  -1    4.00    2.43
  -4  -9   1   -0.14    1.74
  -4  -9   1    1.92    1.57
  -4  -9   1   -0.54    1.82
   4   9   0  252.94   16.59
  -4  -9   0  281.13   18.97
  -4  -9   0  275.35   17.21
  -4  -9   0  265.38   17.27
  -4  -9   0  278.96   15.81
   4   9   1    8.48    3.53
  -4  -9  -1    8.80    3.62
  -4  -9  -1   12.10    3.87
  -4  -9  -1    9.45    3.39
  -4  -9  -1   14.86    3.91
  -4  -9  -2  119.99   12.46
   4   9   2  130.57   11.95
  -4  -9  -2  134.01   12.35
  -4  -9  -2  119.22   12.34
  -4  -9  -2  127.93   11.00
   4   9   3    1.46    1.58
   4   9   3   -0.72    1.56
  -4  -9  -3    1.00    2.20
  -4  -9  -3   -2.69    2.46
  -4  -9  -3    2.40    2.09
   4   9   4   18.16    4.73
   4   9   4   17.55    4.60
  -4  -9  -4   22.18    5.61
  -4  -9  -4   20.00    5.57
   4   9   5    4.60    2.54
   4   9   5   10.72    3.75
  -4  -9  -5   12.04    4.38
  -4  -9  -5    1.57    2.08
   4   9   6   16.59    4.77
  -4  -9  -6   23.50    5.91
  -4  -9  -6   22.71    5.92
   4   9   7    0.97    1.99
  -4 -10  12   39.31    7.79
  -4 -10  11   37.19    7.73
   4  10 -10    0.84    2.12
   4  10 -10    2.06    2.05
  -4 -10  10    2.72    3.02
  -4 -10  10    6.43    3.59
   4  10  -9   25.75    5.47
   4  10  -9   24.01    5.93
  -4 -10   9   20.25    5.76
  -4 -10   9   34.16    6.99
   4  10  -8   40.86    6.66
   4  10  -8   21.14    5.49
  -4 -10   8   30.23    6.97
  -4 -10   8   19.15    5.17
   4  10  -7   80.28    8.92
   4  10  -7   73.98    9.56
  -4 -10   7   62.12    9.77
  -4 -10   7   75.43    9.96
   4  10  -6   75.80    8.61
   4  10  -6   63.60    8.81
  -4 -10   6   66.07   10.03
  -4 -10   6   70.85    9.61
   4  10  -5    0.12    1.30
  -4 -10   5    0.14    2.28
   4  10  -5   -0.19    1.90
   4  10  -4    1.43    1.53
  -4 -10   4    4.54    3.33
   4  10  -4    0.92    2.15
   4  10  -3   -0.67    1.41
  -4 -10   3    0.71    2.67
   4  10  -3    1.30    1.42
  -4 -10   3    0.64    1.67
   4  10  -2    0.06    1.90
  -4 -10   2    0.45    1.77
  -4 -10   2   -0.39    1.72
  -4 -10   2   -0.24    1.96
   4  10  -1    6.94    3.07
  -4 -10   1   17.13    5.14
  -4 -10   1   16.76    4.76
  -4 -10   1   17.06    4.40
  -4 -10   1   12.32    4.13
   4  10   0   17.99    4.74
  -4 -10   0   24.30    6.23
  -4 -10   0   27.13    5.95
  -4 -10   0   30.60    6.46
  -4 -10   0   27.34    5.48
   4  10   1    3.95    2.49
  -4 -10  -1    8.41    3.61
  -4 -10  -1    7.25    3.24
  -4 -10  -1    5.10    3.10
  -4 -10  -1    2.80    2.09
   4  10   2    4.98    2.69
  -4 -10  -2    4.28    2.50
  -4 -10  -2    4.82    2.54
  -4 -10  -2    6.59    3.73
   4  10   3    5.50    2.78
  -4 -10  -3    9.27    3.91
  -4 -10  -3    5.85    3.15
   4  10   4    9.84    3.63
  -4 -10  -4    1.46    2.19
  -4 -11   9   19.19    5.59
   4  11  -8   46.03    8.11
  -4 -11   8   44.59    8.58
   4  11  -8   58.70    8.18
   4  11  -7  115.73   11.18
   4  11  -7  112.93   12.17
  -4 -11   7   88.88   11.97
   4  11  -6    9.96    3.30
  -4 -11   6   14.22    5.11
   4  11  -6    5.68    3.14
   4  11  -5   21.44    4.76
  -4 -11   5   22.73    6.34
  -4 -11   5   22.49    5.83
   4  11  -5   21.89    5.14
   4  11  -4  106.49   12.03
  -4 -11   4   91.85   11.35
  -4 -11   4   98.63   12.45
   4  11  -3   26.56    6.01
  -4 -11   3   41.04    8.29
  -4 -11   3   31.32    6.64
  -4 -11   2   58.93    9.67
  -4 -11   2   45.83    7.96
  -4 -11   2   61.05    9.50
   4  11  -2   52.07    8.43
   4  11  -1  135.11   13.63
  -4 -11   1  164.55   15.34
   4  11   0  145.41   14.14
  -4 -11   0  144.30   14.46
  -4 -11  -1   17.51    5.31
   5 -12  -3   -0.70    1.50
  -5  12   2   13.43    4.69
   5 -12  -2   25.42    6.14
  -5  12   1   -1.18    2.83
   5 -12  -1   -0.09    1.36
  -5  12   0   12.13    4.53
  -5  12   0   15.78    4.84
   5 -12   0   22.77    5.58
  -5  12  -1   31.93    7.04
  -5  12  -1   34.20    7.05
   5 -12   1   28.74    6.05
  -5  12  -2    2.56    2.70
  -5  12  -2    0.60    1.72
   5 -12   2    6.86    3.47
  -5  12  -3    0.75    2.68
  -5  12  -3    5.71    3.36
   5 -12   3    5.06    3.02
  -5  12  -4   22.58    5.97
  -5  12  -4   31.14    6.73
   5 -12   4   25.82    5.99
  -5  12  -5   58.83    9.64
   5 -12   5   51.46    8.41
  -5  12  -5   71.83   10.03
   5 -12   6   15.36    4.93
   5 -11  -7   32.46    7.35
  -5  11   6    2.38    1.99
   5 -11  -6   -1.35    2.49
  -5  11   5    5.89    3.09
   5 -11  -5   -1.46    2.55
   5 -11  -5    1.89    1.71
  -5  11   4   66.00    8.14
   5 -11  -4   70.30    9.78
   5 -11  -4   72.60    9.99
  -5  11   4   72.21   10.01
  -5  11   3    7.94    3.05
   5 -11  -3    6.79    3.24
   5 -11  -3    6.77    3.03
  -5  11   2  171.26   12.94
   5 -11  -2  175.02   14.95
   5 -11  -2  184.64   15.12
  -5  11   2  161.60   14.63
  -5  11   1    8.22    3.28
   5 -11  -1    2.27    2.20
  -5  11   0   22.20    4.99
  -5  11   0   24.69    5.90
   5 -11   0   28.01    5.62
   5 -11   0   18.36    5.01
  -5  11  -1   33.12    6.59
   5 -11   1   30.21    5.90
  -5  11  -1   40.49    6.57
   5 -11   1   44.75    7.28
  -5  11  -2    4.17    2.71
  -5  11  -2    5.31    2.99
  -5  11  -2    5.05    2.82
   5 -11   2    7.92    3.23
   5 -11   2    6.35    2.93
  -5  11  -3  122.10   13.52
   5 -11   3  117.51   11.83
  -5  11  -3  131.68   12.99
  -5  11  -4    1.60    2.14
   5 -11   4    7.15    3.45
  -5  11  -5  207.03   17.29
   5 -11   5  176.80   14.89
  -5  11  -5  224.40   16.92
  -5  11  -6   35.69    7.41
   5 -11   6   30.59    6.44
  -5  11  -6   36.07    6.93
  -5  11  -7   29.22    6.62
  -5  11  -7   29.62    6.41
   5 -11   7   15.92    5.16
  -5  11  -8   12.68    4.37
  -5  11  -8    6.65    3.41
   5 -11   8    5.77    2.83
  -5  11  -9   85.21   10.86
   5 -11   9   93.72   11.82
   5 -11   9   75.76    9.64
  -5  11 -10    5.04    3.47
   5 -11  10    6.31    3.09
   5 -10  -9   26.46    6.38
  -5  10   8   12.59    4.51
   5 -10  -8   10.02    4.13
   5 -10  -8   13.69    4.67
   5 -10  -7  244.82   17.97
   5 -10  -7  240.49   18.25
  -5  10   7  211.47   16.97
  -5  10   6   36.24    6.85
   5 -10  -6   41.57    7.38
   5 -10  -6   44.61    7.87
   5 -10  -5  219.33   16.27
   5 -10  -5  225.06   16.87
  -5  10   5  176.14   15.16
  -5  10   4   -1.92    2.28
  -5  10   4   -0.15    1.68
   5 -10  -4   -1.33    2.38
   5 -10  -4   -0.08    1.85
  -5  10   3   71.38    7.83
  -5  10   3   55.30    8.27
   5 -10  -3   67.97    8.97
   5 -10  -3   59.90    8.24
  -5  10   2   10.66    3.11
   5 -10  -2   11.35    3.27
  -5  10   2   11.37    3.87
   5 -10  -2   12.71    4.05
   5 -10  -2   17.60    4.70
  -5  10   1    0.94    1.18
   5 -10  -1    4.35    2.57
  -5  10   1    4.52    2.57
   5 -10  -1    2.00    1.39
  -5  10   0    7.83    2.92
   5 -10   0    9.35    3.26
   5 -10   0    9.37    3.36
  -5  10   0    5.66    2.81
  -5  10  -1    8.89    3.19
   5 -10   1   19.83    4.58
   5 -10   1   15.31    4.09
  -5  10  -2    0.36    1.15
  -5  10  -2    0.73    1.72
   5 -10   2    2.00    1.81
   5 -10   2    0.31    1.68
  -5  10  -3    5.29    3.02
  -5  10  -3    1.15    1.73
   5 -10   3    1.99    2.43
   5 -10   3    9.09    3.41
  -5  10  -4    7.01    3.29
  -5  10  -4    6.60    3.20
   5 -10   4    4.62    2.74
  -5  10  -5   64.03    9.23
   5 -10   5   77.19    9.52
  -5  10  -5   74.81    9.33
  -5  10  -6   33.17    6.60
   5 -10   6   25.23    5.74
  -5  10  -6   30.01    5.94
   5 -10   6   27.14    5.02
  -5  10  -7    9.32    3.82
   5 -10   7   14.96    4.47
  -5  10  -7   13.18    4.38
   5 -10   7   13.52    3.84
  -5  10  -8   24.35    5.56
  -5  10  -8   24.08    5.54
   5 -10   8   26.00    5.83
   5 -10   8   28.78    5.58
  -5  10  -9    5.90    2.69
  -5  10  -9    0.04    1.82
   5 -10   9    3.34    2.48
   5 -10   9    3.09    1.86
  -5  10 -10    1.25    2.04
  -5  10 -10    0.04    2.32
   5 -10  10   -1.76    2.68
   5 -10  10   -2.01    2.58
  -5  10 -11    0.32    1.92
   5 -10  11    2.36    2.12
  -5   9  10   16.54    4.34
   5  -9 -10   13.54    4.61
   5  -9 -10   27.37    6.53
  -5   9   9   15.56    4.05
   5  -9  -9   10.26    3.52
   5  -9  -9   23.75    6.08
  -5   9   8   16.46    3.94
   5  -9  -8    9.07    3.46
   5  -9  -8   12.93    4.30
  -5   9   7    0.71    1.44
   5  -9  -7    1.24    2.24
   5  -9  -7    2.06    1.96
   5  -9  -6  220.39   15.54
   5  -9  -6  218.49   15.90
  -5   9   6  209.05   15.87
  -5   9   6  229.90   13.44
  -5   9   5   14.44    3.28
  -5   9   5   11.01    3.75
   5  -9  -5    9.04    3.27
   5  -9  -5   11.16    3.69
   5  -9  -4  240.96   14.14
  -5   9   4  257.21   13.75
   5  -9  -4  230.97   15.17
   5  -9  -4  222.42   15.26
  -5   9   4  228.54   16.12
   5  -9  -3    0.70    1.50
  -5   9   3    0.99    1.99
  -5   9   3    1.73    1.53
   5  -9  -3    0.48    1.34
   5  -9  -3    0.44    1.36
  -5   9   2   -0.90    1.32
   5  -9  -2    2.77    1.57
  -5   9   2    3.27    2.46
   5  -9  -2    1.78    2.13
   5  -9  -2    3.41    2.35
  -5   9   1    9.13    2.99
  -5   9   1    9.88    2.97
   5  -9  -1   11.81    3.39
   5  -9  -1   10.06    3.40
  -5   9   0   10.55    2.92
   5  -9   0   10.96    3.44
  -5   9   0   19.33    4.63
   5  -9   0   14.86    3.72
  -5   9  -1  174.45   11.40
   5  -9   1  178.08   12.60
   5  -9   1  173.35   12.29
  -5   9  -1  168.99   13.27
  -5   9  -2   12.07    3.80
   5  -9   2    5.86    2.53
   5  -9   2   11.28    3.45
   5  -9   3  425.22   20.19
   5  -9   3  406.67   18.44
  -5   9  -3  393.44   20.06
  -5   9  -4   40.41    6.98
  -5   9  -4   46.97    7.02
   5  -9   4   39.64    6.45
   5  -9   4   41.67    5.63
  -5   9  -5  155.17   13.28
   5  -9   5  144.73   12.43
   5  -9   5  157.44   11.03
  -5   9  -5  151.77   12.65
  -5   9  -6   97.96   10.56
   5  -9   6  100.33   10.50
   5  -9   6  112.05    9.57
  -5   9  -6  111.39   10.95
  -5   9  -7   12.41    4.00
   5  -9   7   10.19    3.64
  -5   9  -7    7.46    2.68
   5  -9   7   11.93    3.36
  -5   9  -7   11.54    3.35
  -5   9  -8  166.81   13.52
   5  -9   8  165.94   14.19
  -5   9  -8  147.46   12.08
   5  -9   8  157.33   12.17
  -5   9  -8  172.25   13.85
  -5   9  -9    3.05    2.43
  -5   9  -9    1.81    2.45
   5  -9   9    0.78    1.66
  -5   9  -9    1.35    2.16
   5  -9   9    0.43    1.60
   5  -9   9    0.95    1.73
  -5   9 -10  133.33   12.10
   5  -9  10  149.12   14.10
   5  -9  10  140.24   14.05
  -5   9 -10  138.98   12.59
   5  -9  10  155.67   13.02
  -5   9 -10  134.96   12.66
  -5   9 -11   94.67   10.00
   5  -9  11  110.78   12.53
   5  -9  11   90.51   11.76
  -5   9 -11   89.71   10.69
  -5   9 -11  105.90   11.50
   5  -9  11  102.79   10.87
  -5   9 -12   46.00    7.89
  -5   9 -12   52.88    8.54
   5  -9  12   55.28    8.98
   5  -9  12   51.39    9.23
   5  -9  12   47.94    7.74
  -5   9 -13   21.23    5.85
   5  -9  13   24.98    6.66
  -5   8  12    5.53    2.60
  -5   8  11   -0.62    1.44
   5  -8 -11    2.78    2.05
   5  -8 -11    3.87    3.29
  -5   8  10    4.66    2.32
   5  -8 -10    5.28    3.15
   5  -8 -10    7.54    3.24
  -5   8   9   36.80    6.06
   5  -8  -9   34.52    6.40
   5  -8  -9   37.54    6.95
  -5   8   8   30.53    5.25
   5  -8  -8   23.38    4.97
   5  -8  -8   23.90    5.49
  -5   8   7   97.23    8.88
   5  -8  -7  110.96   10.55
   5  -8  -7   90.10    9.96
  -5   8   6    7.52    2.59
   5  -8  -6    4.44    2.08
   5  -8  -6    9.75    3.27
   5  -8  -6    9.23    3.52
   5  -8  -5  185.39   12.00
   5  -8  -5  181.34   12.78
   5  -8  -5  197.94   13.79
  -5   8   5  185.02   11.13
  -5   8   4    6.17    2.33
  -5   8   4    6.85    2.21
   5  -8  -4    3.77    1.89
  -5   8   4    1.39    1.64
   5  -8  -4    4.21    2.34
   5  -8  -4   10.41    3.11
  -5   8   3   -0.35    0.92
  -5   8   3   -0.23    1.13
   5  -8  -3    0.61    1.11
  -5   8   3   -0.81    1.40
   5  -8  -3   -1.79    1.88
   5  -8  -3    1.49    1.84
  -5   8   2  316.22   13.82
   5  -8  -2  288.59   14.84
   5  -8  -2  310.32   15.49
   5  -8  -2  294.45   15.73
  -5   8   2  301.22   17.07
  -5   8   2  299.13   12.36
  -5   8   1   26.72    4.23
   5  -8  -1   32.58    5.20
  -5   8   1   38.56    6.14
   5  -8  -1   40.54    5.69
   5  -8  -1   36.22    5.49
  -5   8   0  457.74   16.84
   5  -8   0  470.40   19.32
   5  -8   0  450.22   18.55
  -5   8   0  454.08   20.76
  -5   8  -1   33.00    4.70
   5  -8   1   35.51    5.33
  -5   8  -1   44.44    6.55
   5  -8   1   42.08    5.65
   5  -8   2  100.10    9.29
   5  -8   2  108.84    7.63
   5  -8   2  102.11    8.57
  -5   8  -2  107.32   10.04
  -5   8  -3    7.36    2.80
  -5   8  -3    8.18    2.48
   5  -8   3    5.70    2.40
   5  -8   3    9.10    2.40
   5  -8   3   14.14    3.31
  -5   8  -4   25.53    5.04
  -5   8  -4   29.07    5.35
  -5   8  -4   19.60    3.79
   5  -8   4   32.67    5.54
   5  -8   4   26.53    4.15
  -5   8  -5    5.32    2.67
   5  -8   5    6.93    2.93
  -5   8  -5    0.24    1.06
  -5   8  -5    8.81    3.31
   5  -8   5    3.91    1.70
  -5   8  -6   10.39    3.49
  -5   8  -6    4.16    2.57
  -5   8  -6    9.51    2.92
   5  -8   6    6.64    2.99
   5  -8   6    5.90    2.24
  -5   8  -7   90.94    9.56
  -5   8  -7   83.25    8.66
   5  -8   7   81.40    9.39
   5  -8   7   77.34    7.82
  -5   8  -7   86.08    9.25
  -5   8  -8   -0.37    1.79
  -5   8  -8    0.96    2.17
  -5   8  -8    2.14    2.28
   5  -8   8    1.94    2.01
   5  -8   8   -1.23    2.06
   5  -8   8    0.68    1.66
  -5   8  -9   68.48    8.19
  -5   8  -9   59.17    8.09
   5  -8   9   52.63    7.91
   5  -8   9   59.15    8.70
   5  -8   9   55.28    7.11
  -5   8  -9   70.16    8.71
  -5   8 -10   14.61    3.75
  -5   8 -10   21.63    4.74
   5  -8  10   13.15    4.37
   5  -8  10   17.58    4.89
   5  -8  10   19.13    4.49
  -5   8 -10   13.77    4.04
  -5   8 -11   -0.25    1.51
  -5   8 -11   -0.36    2.23
  -5   8 -11    1.59    1.63
   5  -8  11    1.51    2.15
   5  -8  11    2.15    2.55
   5  -8  11    0.36    1.77
   5  -8  12   68.68    9.73
   5  -8  12   67.48   10.60
  -5   8 -12   59.71    8.82
  -5   8 -12   56.04    8.26
   5  -8  12   70.99    8.99
  -5   8 -13    9.70    3.72
  -5   8 -13    7.82    3.59
   5  -8  13   -0.03    2.72
   5  -8  13    7.63    2.81
   5  -8  13    7.64    3.19
  -5   7  13    3.09    2.35
   5  -7 -13    5.64    3.12
  -5   7  12   48.94    7.37
   5  -7 -12   45.31    7.93
  -5   7  11   11.60    3.64
   5  -7 -11   14.17    4.30
   5  -7 -11    9.01    3.70
  -5   7  10   89.69    9.31
   5  -7 -10   92.93   10.20
   5  -7 -10  101.86   11.01
  -5   7   9   38.87    6.01
   5  -7  -9   29.65    5.67
   5  -7  -9   32.38    6.09
  -5   7   8    1.57    1.36
   5  -7  -8    3.26    1.87
   5  -7  -8   -0.49    1.84
   5  -7  -8    4.95    2.68
  -5   7   7   15.89    3.49
   5  -7  -7   19.04    3.85
   5  -7  -7   12.21    3.59
   5  -7  -7   22.99    4.80
  -5   7   6  141.96    9.78
   5  -7  -6  129.44    9.75
   5  -7  -6  119.67    9.89
   5  -7  -6  124.01   10.50
  -5   7   5   26.31    4.12
   5  -7  -5   18.52    3.66
   5  -7  -5   17.84    3.96
   5  -7  -5   22.02    4.51
  -5   7   4    0.79    0.96
   5  -7  -4    0.15    1.14
  -5   7   4    0.07    0.90
   5  -7  -4    1.17    1.12
   5  -7  -4    2.94    1.90
  -5   7   3   14.87    3.00
  -5   7   3   23.71    4.84
   5  -7  -3   25.87    4.31
  -5   7   3   22.47    3.43
   5  -7  -3   14.75    3.25
   5  -7  -3   22.54    4.27
  -5   7   2   83.48    6.58
   5  -7  -2   93.41    8.12
   5  -7  -2   95.03    7.89
   5  -7  -2   94.59    8.22
  -5   7   2   97.64    9.28
  -5   7   2   90.55    6.64
  -5   7   1   58.27    5.36
   5  -7  -1   53.88    4.76
   5  -7  -1   61.17    6.65
   5  -7  -1   54.84    5.92
   5  -7  -1   69.90    6.88
  -5   7   1   52.83    6.84
  -5   7   1   56.63    5.14
  -5   7   1   69.99    5.55
   5  -7   0   34.93    5.14
  -5   7   0   31.03    4.03
  -5   7   0   33.94    4.17
  -5   7   0   32.21    5.36
   5  -7   0   33.63    4.06
   5  -7   0   30.69    4.43
  -5   7   0   37.95    3.99
   5  -7   1   55.29    6.48
   5  -7   1   50.16    5.15
  -5   7  -1   71.11    6.17
   5  -7   1   53.84    4.68
   5  -7   1   53.59    5.82
  -5   7  -1   47.34    6.42
  -5   7  -1   58.41    4.68
  -5   7  -2   22.41    3.64
  -5   7  -2   18.01    3.95
   5  -7   2   23.36    4.34
   5  -7   2   20.01    3.43
   5  -7   2   15.07    2.79
   5  -7   2   21.57    3.62
  -5   7  -3   27.68    5.08
  -5   7  -3   19.20    3.57
   5  -7   3   28.86    4.91
   5  -7   3   25.16    4.09
   5  -7   3   20.67    3.37
  -5   7  -4    1.86    2.29
   5  -7   4   -1.29    2.18
   5  -7   4    0.96    1.16
  -5   7  -4    0.96    1.41
   5  -7   4   -2.81    1.41
  -5   7  -5   50.60    6.71
  -5   7  -5   56.38    6.49
   5  -7   5   50.35    6.02
   5  -7   5   65.93    6.19
  -5   7  -5   54.62    6.78
   5  -7   5   57.02    7.07
  -5   7  -6   15.55    3.86
  -5   7  -6   20.90    4.33
   5  -7   6   17.07    4.01
  -5   7  -6   13.16    3.51
   5  -7   6   12.62    3.20
   5  -7   6   15.13    3.11
  -5   7  -7    7.52    3.04
  -5   7  -7    1.86    1.41
  -5   7  -7    4.51    2.35
   5  -7   7    1.73    1.57
   5  -7   7   -0.59    1.96
   5  -7   7    4.81    2.33
   5  -7   7    4.16    1.78
  -5   7  -8   30.39    5.17
  -5   7  -8   32.31    5.63
  -5   7  -8   31.97    5.54
   5  -7   8   39.96    6.51
   5  -7   8   27.73    5.76
   5  -7   8   37.51    5.81
   5  -7   8   30.55    4.82
  -5   7  -9  105.42    9.34
   5  -7   9   91.66   10.49
   5  -7   9   94.92   10.03
  -5   7  -9   92.24    9.60
   5  -7   9   95.45    8.81
  -5   7  -9  106.67   10.06
  -5   7 -10  105.58    9.18
  -5   7 -10  110.81   10.98
   5  -7  10  104.54   11.93
   5  -7  10   90.03   10.19
  -5   7 -10  113.66   10.57
   5  -7  10   99.65    9.32
  -5   7 -11    1.52    1.51
   5  -7  11    0.67    2.44
   5  -7  11    2.73    1.99
   5  -7  11    2.60    2.33
   5  -7  12  139.01   13.33
   5  -7  12  125.58   13.90
  -5   7 -12  144.36   12.58
   5  -7  12  133.41   11.79
   5  -7  13    4.98    3.13
  -5   7 -13    4.11    2.01
   5  -7  13    3.97    2.38
   5  -7  13    7.98    3.19
  -5   7 -14    2.47    2.85
   5  -7  14    4.62    3.47
   5  -7  14    0.33    1.43
   5  -7  14   -0.22    1.60
  -5   6  14   29.09    6.11
  -5   6  14   23.37    5.30
   5  -6 -14   25.35    5.87
  -5   6  13    1.70    1.68
  -5   6  13    5.46    2.76
   5  -6 -13    9.73    4.06
  -5   6  12    9.24    3.43
  -5   6  12    8.21    3.12
   5  -6 -12    6.26    3.33
   5  -6 -12    9.50    3.84
  -5   6  11  172.55   12.91
  -5   6  11  168.21   12.38
   5  -6 -11  163.83   13.08
   5  -6 -11  178.53   14.28
  -5   6  10    0.78    1.64
  -5   6  10    1.41    1.53
   5  -6 -10   -0.10    1.35
   5  -6 -10   -0.92    1.79
  -5   6   9  182.14   12.22
  -5   6   9  190.02   11.93
   5  -6  -9  172.50   12.30
   5  -6  -9  199.59   12.32
   5  -6  -9  180.41   13.22
  -5   6   8   34.75    5.16
   5  -6  -8   28.70    4.65
  -5   6   8   29.15    4.61
   5  -6  -8   28.32    5.00
   5  -6  -8   32.07    5.46
  -5   6   7  190.15   11.35
  -5   6   7  187.90   10.63
   5  -6  -7  183.01   11.60
   5  -6  -7  187.34   12.46
   5  -6  -7  167.38   10.83
  -5   6   6   77.49    7.00
  -5   6   6   73.92    6.35
   5  -6  -6   79.13    7.33
   5  -6  -6   70.90    7.42
   5  -6  -6   76.02    7.18
  -5   6   5  161.15    8.53
  -5   6   5  154.67    8.69
   5  -6  -5  161.25   10.31
   5  -6  -5  152.65    9.95
   5  -6  -5  163.93   10.85
  -5   6   5  154.62    9.47
   5  -6  -4   79.83    7.26
  -5   6   4   90.28    6.24
   5  -6  -4   77.88    6.92
   5  -6  -4   93.07    7.95
  -5   6   4   98.15    6.61
  -5   6   4   90.96    6.96
  -5   6   3  262.87   10.87
   5  -6  -3  237.36   12.26
  -5   6   3  253.03    9.86
   5  -6  -3  269.74    9.06
  -5   6   3  276.72   10.59
   5  -6  -3  225.87   11.20
   5  -6  -3  264.95   12.88
  -5   6   3  249.52   11.09
  -5   6   2  388.46   12.43
  -5   6   2  415.48   11.96
   5  -6  -2  405.82   12.07
   5  -6  -2  377.94   15.48
  -5   6   2  401.24   13.43
   5  -6  -2  393.42   14.53
   5  -6  -2  404.53   15.51
  -5   6   2  380.34   17.16
  -5   6   2  409.28   13.72
  -5   6   1   97.03    6.76
  -5   6   1   97.74    5.56
   5  -6  -1   96.31    6.22
   5  -6  -1   95.07    7.40
   5  -6  -1  101.71    8.07
  -5   6   1   87.28    8.21
  -5   6   1  100.09    6.58
   5  -6   0  604.48   19.82
   5  -6   0  613.76   16.46
  -5   6   0  602.29   17.24
  -5   6   0  593.97   13.20
   5  -6   0  604.35   13.32
   5  -6   0  571.16   17.50
  -5   6   0  597.80   21.10
  -5   6   0  625.90   15.75
  -5   6  -1   53.06    5.41
  -5   6  -1   56.68    4.02
   5  -6   1   54.98    5.18
   5  -6   1   51.99    6.03
   5  -6   1   54.01    4.29
   5  -6   1   57.99    5.45
  -5   6  -1   55.50    6.45
  -5   6  -1   52.42    4.43
   5  -6   2  228.91   12.71
  -5   6  -2  251.00    8.57
   5  -6   2  235.79   11.10
  -5   6  -2  252.02   11.98
   5  -6   2  240.08    9.58
   5  -6   2  233.21   10.78
  -5   6  -2  241.77   13.26
  -5   6  -2  239.31    9.19
  -5   6  -3    2.06    1.81
  -5   6  -3   -0.46    1.47
   5  -6   3    0.54    1.39
  -5   6  -3    0.08    0.62
   5  -6   3    0.86    1.31
   5  -6   3   -0.75    0.97
   5  -6   4  108.19    9.07
  -5   6  -4   93.28    7.90
   5  -6   4   90.33    7.38
   5  -6   4   92.78    6.53
  -5   6  -4  109.49    8.97
  -5   6  -4   96.64    5.86
  -5   6  -5  561.47   20.50
   5  -6   5  599.75   21.79
  -5   6  -5  583.14   20.38
  -5   6  -5  585.49   15.16
   5  -6   5  610.71   19.78
   5  -6   5  613.09   17.49
  -5   6  -5  573.00   20.49
  -5   6  -6   19.05    3.84
  -5   6  -6   18.96    3.97
  -5   6  -6   20.28    3.11
   5  -6   6   17.06    3.63
   5  -6   6   14.97    4.10
   5  -6   6   24.62    3.81
   5  -6   6   17.76    3.93
  -5   6  -6   17.42    3.85
  -5   6  -7  353.44   15.98
   5  -6   7  347.66   17.40
  -5   6  -7  337.37   16.62
   5  -6   7  323.44   18.03
   5  -6   7  343.23   15.95
   5  -6   7  353.44   14.57
  -5   6  -7  350.78   16.56
  -5   6  -8   19.19    3.79
  -5   6  -8   21.81    4.42
  -5   6  -8   19.20    4.39
   5  -6   8   16.98    4.88
   5  -6   8   18.26    4.21
   5  -6   8   22.92    4.31
   5  -6   8   22.83    4.12
  -5   6  -9    0.43    1.00
  -5   6  -9   -0.89    1.51
   5  -6   9    1.82    1.41
   5  -6   9   -1.20    1.52
   5  -6   9   -2.98    3.17
  -5   6  -9    3.22    2.50
   5  -6   9   -0.30    1.13
  -5   6 -10    0.87    1.63
   5  -6  10    2.55    2.14
   5  -6  10    1.32    1.99
   5  -6  10   -0.96    1.94
   5  -6  10    0.75    1.54
   5  -6  11   89.47    9.97
   5  -6  11   95.47   11.67
  -5   6 -11  101.50    9.84
   5  -6  11   90.15    8.85
   5  -6  12   87.96   10.29
   5  -6  12   87.75   11.57
  -5   6 -12   78.23    9.02
   5  -6  12   94.84    9.52
  -5   6 -13   20.66    4.78
   5  -6  13   22.88    5.51
   5  -6  13   24.38    6.65
   5  -6  13   19.82    4.62
  -5   6 -14    4.55    2.46
   5  -6  14    5.86    3.58
   5  -6  14    3.36    2.21
   5  -6  14    4.42    2.93
   5  -6  15    6.16    3.14
  -5   5  15    2.79    2.30
   5  -5 -15   -1.37    2.67
  -5   5  14   54.58    8.01
  -5   5  14   40.15    6.91
   5  -5 -14   48.48    8.00
  -5   5  13   44.36    6.97
  -5   5  13   45.21    7.03
   5  -5 -13   43.02    7.28
  -5   5  12   93.81    9.77
  -5   5  12   73.71    8.65
   5  -5 -12   73.18    8.63
   5  -5 -12  101.66   10.66
  -5   5  11  188.11   13.06
   5  -5 -11  191.60   12.52
  -5   5  11  184.26   12.84
   5  -5 -11  186.91   13.13
   5  -5 -11  185.97   13.78
  -5   5  10  213.72   13.29
   5  -5 -10  207.93   12.75
  -5   5  10  219.11   13.35
   5  -5 -10  194.95   12.79
   5  -5 -10  211.63   14.07
  -5   5   9   53.86    6.48
  -5   5   9   58.65    6.61
   5  -5  -9   60.40    6.78
   5  -5  -9   52.84    6.45
   5  -5  -9   56.39    7.12
  -5   5   8   10.37    2.61
  -5   5   8   12.41    2.99
   5  -5  -8   14.96    3.41
  -5   5   8    9.07    2.50
   5  -5  -8   11.96    3.07
   5  -5  -8   15.74    3.69
  -5   5   7  134.03    9.24
  -5   5   7  144.83    8.88
   5  -5  -7  138.77    9.64
  -5   5   7  150.40    9.48
   5  -5  -7  131.80    9.10
   5  -5  -7  151.26   10.50
  -5   5   6   12.05    2.58
   5  -5  -6    9.62    2.62
  -5   5   6    8.57    2.31
  -5   5   6    7.92    2.13
   5  -5  -6   10.81    2.60
   5  -5  -6   10.68    2.69
  -5   5   5    3.24    1.54
  -5   5   5    5.85    1.77
   5  -5  -5    1.50    1.08
  -5   5   5    3.84    1.58
   5  -5  -5    2.87    1.39
   5  -5  -5    4.59    1.91
   5  -5  -4  127.69    8.74
  -5   5   4  139.93    7.93
   5  -5  -4  143.31    6.17
  -5   5   4  152.85    8.41
   5  -5  -4  133.56    8.07
   5  -5  -4  135.37    8.74
  -5   5   4  130.92    8.11
  -5   5   3    9.85    2.31
  -5   5   3    9.15    2.22
   5  -5  -3   10.65    2.64
  -5   5   3    7.44    1.85
   5  -5  -3    9.48    1.84
   5  -5  -3    8.63    2.00
   5  -5  -3    6.27    2.05
  -5   5   2  294.73    9.34
  -5   5   2  293.60   11.68
  -5   5   2  306.47   10.66
   5  -5  -2  299.07    9.98
   5  -5  -2  314.56   12.43
   5  -5  -2  291.48   12.98
  -5   5   2  307.89   14.48
  -5   5   2  305.64   11.55
  -5   5   1   10.47    1.79
  -5   5   1    7.20    1.77
  -5   5   1   13.05    2.55
   5  -5  -1   10.51    2.72
  -5   5   1   16.41    3.40
  -5   5   1   11.43    2.13
   5  -5  -1    9.76    1.37
   5  -5  -1   11.82    2.15
   5  -5  -1    9.49    2.22
  -5   5   0   54.58    3.97
   5  -5   0   51.18    5.56
  -5   5   0   51.83    4.23
  -5   5   0   55.53    5.26
   5  -5   0   46.66    4.33
   5  -5   0   62.75    3.83
   5  -5   0   48.73    4.68
  -5   5   0   46.80    5.61
  -5   5   0   48.54    4.34
   5  -5   1  415.01   15.97
  -5   5  -1  389.68   14.20
  -5   5  -1  415.08   11.94
   5  -5   1  415.07   13.54
   5  -5   1  428.71   10.91
   5  -5   1  415.13   12.96
  -5   5  -1  413.84   16.26
  -5   5  -1  392.25   12.21
  -5   5  -2    1.09    0.94
  -5   5  -2    0.51    1.04
  -5   5  -2   -0.30    1.30
   5  -5   2    0.27    1.32
  -5   5  -2   -0.78    0.84
   5  -5   2    0.87    0.99
   5  -5   2    0.16    0.50
   5  -5   2   -0.06    0.89
  -5   5  -3  131.83    8.82
   5  -5   3  128.19    9.23
  -5   5  -3  120.36    6.73
   5  -5   3  124.06    7.94
   5  -5   3  131.46    6.78
  -5   5  -3  127.54    8.99
  -5   5  -4    1.27    1.07
   5  -5   4    3.93    1.85
  -5   5  -4    2.24    1.33
  -5   5  -4    5.46    2.20
   5  -5   4    0.86    1.17
   5  -5   4    1.35    1.16
  -5   5  -5   70.44    6.71
  -5   5  -5   76.91    7.35
  -5   5  -5   75.06    5.88
   5  -5   5   78.64    6.85
  -5   5  -5   81.61    7.32
   5  -5   5   79.93    7.61
  -5   5  -6  152.43    9.73
  -5   5  -6  159.18   10.85
   5  -5   6  163.75   11.21
   5  -5   6  155.71   11.76
  -5   5  -6  158.13    8.94
   5  -5   6  152.07    9.92
  -5   5  -6  171.97   10.73
  -5   5  -7  137.82    9.03
   5  -5   7  137.64   10.52
   5  -5   7  136.91   11.48
  -5   5  -7  143.36   10.71
  -5   5  -7  152.79    9.26
   5  -5   7  157.18   10.43
  -5   5  -7  153.48   10.30
  -5   5  -8  175.07   10.05
   5  -5   8  168.00   11.95
  -5   5  -8  156.53   11.60
   5  -5   8  176.72   13.59
   5  -5   8  163.04   11.11
  -5   5  -8  163.42   10.14
  -5   5  -8  182.49   11.55
  -5   5  -9    5.27    1.89
  -5   5  -9    3.71    1.57
   5  -5   9    4.22    1.97
   5  -5   9    0.13    1.67
  -5   5  -9    3.04    1.61
   5  -5   9    0.93    1.50
   5  -5  10  101.24    9.92
   5  -5  10  111.92   11.92
  -5   5 -10   98.94    8.87
   5  -5  10  117.34   10.22
  -5   5 -10  105.31    9.35
  -5   5 -11    0.22    1.74
   5  -5  11    2.89    2.40
   5  -5  11   -0.27    2.46
   5  -5  11    0.82    1.27
  -5   5 -12   18.30    4.31
   5  -5  12   15.30    4.80
   5  -5  12   16.62    4.30
   5  -5  12   13.02    4.15
   5  -5  13  110.11   11.40
  -5   5 -13  132.30   11.48
   5  -5  13  101.50   12.84
  -5   5 -14   31.56    5.87
   5  -5  14   39.47    7.15
   5  -5  14   36.97    8.05
   5  -5  15  177.54   15.25
  -5   5 -15  191.91   15.00
  -5   4  16    1.97    2.15
  -5   4  15    3.98    2.94
  -5   4  15    4.02    2.52
   5  -4 -15    6.77    3.12
  -5   4  14    9.93    3.36
  -5   4  14    9.79    3.67
   5  -4 -14    7.59    2.91
  -5   4  13   50.52    7.36
   5  -4 -13   35.34    5.73
  -5   4  13   33.46    6.20
   5  -4 -13   38.20    6.49
  -5   4  12    6.36    2.67
  -5   4  12    5.84    2.60
   5  -4 -12    5.11    2.35
  -5   4  12    4.31    2.38
   5  -4 -12    4.14    2.43
   5  -4 -12   10.73    3.61
  -5   4  11   44.30    6.17
   5  -4 -11   40.76    5.84
  -5   4  11   43.30    6.31
  -5   4  11   40.40    5.86
   5  -4 -11   27.27    4.82
   5  -4 -11   35.99    5.82
  -5   4  10   14.93    3.67
  -5   4  10   21.91    4.23
   5  -4 -10   12.45    3.21
  -5   4  10   14.36    3.55
   5  -4 -10   11.32    3.21
   5  -4 -10   18.20    4.06
  -5   4   9  167.14   10.95
   5  -4  -9  176.66   11.25
  -5   4   9  169.25   10.69
  -5   4   9  168.52   11.09
   5  -4  -9  170.01   10.59
   5  -4  -9  172.72   11.43
  -5   4   8   42.50    5.43
  -5   4   8   37.92    4.93
   5  -4  -8   41.44    5.36
  -5   4   8   48.72    5.71
   5  -4  -8   50.11    5.95
  -5   4   7    5.38    1.98
  -5   4   7    5.38    1.81
   5  -4  -7    8.47    2.59
   5  -4  -7   12.76    2.69
  -5   4   7    6.77    2.22
   5  -4  -7    7.00    2.34
   5  -4  -6    8.55    1.46
  -5   4   6   11.14    2.84
  -5   4   6    9.63    2.47
   5  -4  -6   11.05    2.79
  -5   4   6    6.27    2.06
   5  -4  -6   11.04    2.31
   5  -4  -6   11.99    2.70
   5  -4  -5   11.26    1.77
  -5   4   5   15.01    2.88
  -5   4   5   13.68    2.80
   5  -4  -5   15.17    3.04
  -5   4   5   12.40    2.58
   5  -4  -5   13.02    2.77
  -5   4   4   17.39    2.98
   5  -4  -4   14.45    2.95
  -5   4   4   16.39    2.81
  -5   4   4   11.76    2.41
   5  -4  -4   14.37    2.12
   5  -4  -4   14.68    2.38
   5  -4  -4   15.19    2.94
   5  -4  -3    8.88    1.72
  -5   4   3    9.84    2.19
  -5   4   3    6.12    1.79
   5  -4  -3    6.04    1.95
  -5   4   3    7.87    1.97
   5  -4  -3    7.96    1.63
   5  -4  -3    6.75    1.86
  -5   4   2 1164.74   21.54
   5  -4  -2 1226.07   25.51
   5  -4  -2 1194.71   19.46
   5  -4  -2 1241.61   19.67
   5  -4  -2 1220.33   21.83
  -5   4   2 1251.06   24.10
  -5   4   2 1225.46   22.84
   5  -4  -1    7.69    1.85
  -5   4   1    8.77    2.20
  -5   4   1   11.49    1.45
   5  -4  -1    7.57    2.42
  -5   4   1    6.34    2.24
  -5   4   1   12.45    2.25
   5  -4  -1    8.98    1.10
  -5   4   1   13.36    2.46
   5  -4  -1   12.74    2.22
  -5   4   0  140.33    7.25
  -5   4   0  130.87    8.02
   5  -4   0  117.16    8.05
   5  -4   0  135.29    7.12
   5  -4   0  141.42    5.03
   5  -4   0  134.85    6.71
  -5   4   0  135.54    8.70
  -5   4   0  133.52    7.17
  -5   4   0  134.60    4.99
  -5   4  -1  103.45    7.27
  -5   4  -1   98.37    6.15
   5  -4   1   97.87    7.36
   5  -4   1  102.70    6.49
   5  -4   1  110.44    5.05
   5  -4   1  105.51    5.71
  -5   4  -1   94.49    7.21
  -5   4  -1  102.13    6.24
  -5   4  -2   15.25    2.50
  -5   4  -2   14.83    2.97
  -5   4  -2   15.47    2.98
   5  -4   2   10.34    2.48
  -5   4  -2   16.34    2.68
   5  -4   2   11.02    2.33
   5  -4   3  408.66   15.47
  -5   4  -3  395.83   12.89
   5  -4   3  401.14   13.74
  -5   4  -3  368.44   14.17
  -5   4  -3  394.02   15.07
   5  -4   4  241.65   12.24
  -5   4  -4  242.85   10.47
  -5   4  -4  237.43   12.19
   5  -4   4  237.10   11.05
  -5   4  -4  251.10   11.78
  -5   4  -5 1237.40   25.33
  -5   4  -5 1199.29   24.37
   5  -4   5 1218.72   28.03
   5  -4   5 1242.67   26.30
  -5   4  -5 1285.89   29.08
  -5   4  -5 1235.52   26.51
  -5   4  -6    9.32    2.34
  -5   4  -6   15.85    3.22
   5  -4   6   13.20    3.11
  -5   4  -6   14.96    3.47
  -5   4  -6   12.96    2.71
   5  -4   6   10.36    3.33
   5  -4   6   14.33    3.03
  -5   4  -7  589.47   16.59
   5  -4   7  590.20   20.65
  -5   4  -7  549.48   20.59
   5  -4   7  579.64   23.31
  -5   4  -7  597.91   19.04
   5  -4   7  618.26   20.08
  -5   4  -7  567.96   18.89
  -5   4  -8   85.37    6.15
   5  -4   8   80.24    7.99
  -5   4  -8   76.96    8.13
   5  -4   8   89.01    9.51
   5  -4   8   86.81    7.90
  -5   4  -8   92.32    7.95
  -5   4  -8   92.04    7.79
  -5   4  -9   17.52    3.53
   5  -4   9   15.35    3.54
   5  -4   9   12.54    3.96
   5  -4   9   14.06    3.02
  -5   4  -9   22.06    4.15
   5  -4   9   21.40    4.03
   5  -4  10  139.98   13.09
  -5   4 -10  122.15   10.15
   5  -4  10  136.82   10.57
  -5   4 -10  134.81   10.10
   5  -4  10  131.16   10.74
  -5   4 -11    0.54    1.35
   5  -4  11    0.74    1.48
   5  -4  11    0.70    1.94
  -5   4 -11   -0.19    1.69
   5  -4  11   -0.45    1.72
  -5   4 -12   28.60    5.09
   5  -4  12   42.11    7.99
   5  -4  12   39.45    6.54
   5  -4  12   29.96    5.55
  -5   4 -13   23.45    4.81
   5  -4  13   19.16    4.73
   5  -4  13   23.12    6.23
   5  -4  13   19.97    4.56
   5  -4  14   87.15   10.12
   5  -4  14   88.19   12.24
  -5   4 -14   82.05    9.31
  -5   4 -15   41.60    6.91
   5  -4  15   43.99    9.17
  -5   3  16   -0.26    1.69
  -5   3  16    2.09    2.12
   5  -3 -16   -0.59    1.39
  -5   3  15   39.89    6.72
  -5   3  15   23.97    5.54
   5  -3 -15   23.14    5.30
  -5   3  14    4.91    2.47
  -5   3  14    1.61    2.18
  -5   3  14    4.98    2.40
   5  -3 -14    6.76    2.94
  -5   3  13  276.25   16.18
  -5   3  13  269.92   16.38
  -5   3  13  257.09   16.28
   5  -3 -13  268.90   16.11
  -5   3  12   35.81    5.65
  -5   3  12   34.18    5.69
  -5   3  12   35.01    5.85
   5  -3 -12   25.72    4.59
   5  -3 -12   38.78    5.96
  -5   3  11  114.92    9.64
  -5   3  11  123.29   10.19
   5  -3 -11  100.98    8.55
   5  -3 -11  131.64   10.26
  -5   3  11  125.04   10.31
  -5   3  10    1.68    1.61
  -5   3  10    1.35    1.22
  -5   3  10    2.09    1.67
   5  -3 -10    2.06    1.49
   5  -3 -10   -1.29    1.49
  -5   3   9   12.41    3.07
  -5   3   9   11.47    2.96
  -5   3   9   15.96    3.45
   5  -3  -9   12.83    2.78
   5  -3  -9    9.17    2.64
  -5   3   8   55.34    6.02
   5  -3  -8   48.50    5.71
  -5   3   8   50.45    5.72
   5  -3  -8   53.41    5.14
   5  -3  -8   53.69    5.72
  -5   3   8   50.27    5.67
  -5   3   7   28.32    4.19
  -5   3   7   34.66    4.53
   5  -3  -7   39.04    4.99
  -5   3   7   40.41    4.89
   5  -3  -7   36.50    4.43
   5  -3  -7   30.37    2.89
  -5   3   6 1362.03   27.36
   5  -3  -6 1336.58   27.92
  -5   3   6 1329.05   26.82
   5  -3  -6 1383.60   25.76
   5  -3  -6 1357.22   19.16
  -5   3   6 1383.85   27.00
   5  -3  -5  946.86   22.82
  -5   3   5  976.74   22.46
  -5   3   5  944.47   21.58
   5  -3  -5  964.67   17.25
   5  -3  -5  961.04   20.46
   5  -3  -5  972.45   16.43
  -5   3   5  978.26   21.98
  -5   3   4  546.94   16.35
   5  -3  -4  508.12   16.39
  -5   3   4  495.30   15.24
   5  -3  -4  480.78   11.14
   5  -3  -4  509.74   13.96
   5  -3  -4  485.45   11.90
  -5   3   4  513.40   15.32
  -5   3   3   52.89    5.07
  -5   3   3   57.28    5.00
   5  -3  -3   53.43    5.30
   5  -3  -3   53.85    3.43
   5  -3  -3   58.83    4.50
   5  -3  -3   49.14    3.85
  -5   3   3   54.03    4.92
  -5   3   2   -0.60    1.06
  -5   3   2   -0.51    0.91
   5  -3  -2   -0.80    1.27
  -5   3   2    0.48    0.96
   5  -3  -2    0.87    0.83
   5  -3  -2    0.70    0.72
  -5   3   1    1.18    0.99
  -5   3   1    2.34    1.15
   5  -3  -1    0.11    0.95
  -5   3   1   -0.17    0.86
  -5   3   1    4.19    1.51
   5  -3  -1    1.99    1.09
   5  -3  -1    2.43    0.94
  -5   3   0  902.14    7.67
  -5   3   0  938.95   21.35
   5  -3   0  954.63   21.73
  -5   3   0  903.98   19.10
   5  -3   0  953.13   18.50
   5  -3   0  940.70   14.75
  -5   3   0  948.40   21.04
  -5   3   0  913.39   18.94
   5  -3   1  342.76   13.19
  -5   3  -1  350.37   11.95
  -5   3  -1  353.72   13.37
   5  -3   1  343.53   11.52
   5  -3   1  352.62    8.63
  -5   3  -1  318.20   12.14
  -5   3  -1  346.40   11.64
  -5   3  -2 1374.07   24.26
   5  -3   2 1389.90   26.67
   5  -3   2 1352.90   23.78
  -5   3  -2 1304.41   24.51
  -5   3  -2 1403.55   23.63
  -5   3  -2 1375.36   27.14
  -5   3  -3    1.17    0.94
   5  -3   3    1.77    1.38
  -5   3  -3    1.21    0.35
  -5   3  -3   -0.35    1.18
  -5   3  -3    2.21    1.40
   5  -3   3   -0.64    1.23
  -5   3  -4    1.85    1.22
   5  -3   4    1.05    0.98
  -5   3  -4    2.64    1.38
  -5   3  -4   -0.11    1.40
   5  -3   4    1.67    1.33
  -5   3  -5   38.38    3.92
   5  -3   5   41.41    4.98
  -5   3  -5   43.06    5.42
  -5   3  -5   34.98    4.32
   5  -3   5   38.08    4.53
  -5   3  -5   39.65    4.47
  -5   3  -6   59.27    4.65
   5  -3   6   56.18    5.99
   5  -3   6   50.17    6.58
  -5   3  -6   65.67    6.25
  -5   3  -6   55.73    6.34
   5  -3   6   65.51    6.10
  -5   3  -6   54.34    5.30
  -5   3  -7  118.17    6.34
   5  -3   7  121.68    9.07
   5  -3   7  127.10   10.82
  -5   3  -7  135.45    9.29
   5  -3   7  135.35    9.17
  -5   3  -7  126.81    8.37
  -5   3  -7  115.68    9.37
  -5   3  -8   18.67    3.52
  -5   3  -8   24.09    4.52
   5  -3   8   14.91    3.42
   5  -3   8   21.17    4.70
  -5   3  -8   23.79    4.22
   5  -3   8   24.40    4.21
  -5   3  -9   30.91    5.38
   5  -3   9   25.43    4.37
   5  -3   9   39.20    6.83
   5  -3   9   29.90    4.69
  -5   3  -9   32.88    5.21
  -5   3  -9   34.53    4.91
   5  -3   9   35.52    5.14
   5  -3  10  125.77    9.67
   5  -3  10  118.74    9.92
   5  -3  10  135.99   12.74
  -5   3 -10  121.28   10.42
   5  -3  10  124.46    9.96
  -5   3 -10  128.12    9.51
  -5   3 -11   13.54    3.35
   5  -3  11   16.19    3.93
   5  -3  11   12.35    3.22
   5  -3  11    8.32    3.64
  -5   3 -11   12.14    3.68
   5  -3  11   11.97    3.38
  -5   3 -12    4.69    2.27
   5  -3  12    8.52    3.69
  -5   3 -12    6.43    2.82
   5  -3  12    4.66    2.22
   5  -3  12    4.27    2.19
   5  -3  13   90.47    9.49
   5  -3  13  123.37   14.00
   5  -3  13  101.62   10.07
  -5   3 -13   98.56    9.61
  -5   3 -14    2.21    1.75
   5  -3  14    0.08    2.71
   5  -3  14    1.68    2.18
  -5   3 -15   17.61    4.59
   5  -3  15    8.82    3.69
  -5   3 -16   78.63    9.75
  -5   2  17   15.87    5.23
  -5   2  16   26.29    5.57
  -5   2  16   16.92    4.80
  -5   2  16   31.54    6.51
   5  -2 -16   20.91    5.14
  -5   2  15    7.73    3.71
  -5   2  15   10.47    3.65
  -5   2  15    6.87    3.01
   5  -2 -15   10.78    3.61
  -5   2  14    8.97    3.26
  -5   2  14    9.14    3.37
  -5   2  14    5.07    2.86
   5  -2 -14   11.32    3.45
  -5   2  13   -1.12    1.67
  -5   2  13    4.29    2.48
  -5   2  13    0.95    1.28
   5  -2 -13    1.33    1.61
  -5   2  12    0.80    1.68
  -5   2  12    1.29    1.77
   5  -2 -12    3.50    1.91
   5  -2 -12   -0.09    1.18
  -5   2  11   18.97    3.91
  -5   2  11   27.09    4.94
  -5   2  11   26.06    4.83
   5  -2 -11   17.42    3.50
   5  -2 -11   22.81    4.14
  -5   2  10  107.12    9.27
  -5   2  10  100.62    8.82
   5  -2 -10   79.70    6.56
   5  -2 -10  104.89    8.25
  -5   2  10   97.12    8.29
   5  -2  -9    2.77    1.16
  -5   2   9   11.77    2.96
  -5   2   9    7.33    2.56
  -5   2   9   10.40    2.73
   5  -2  -9    8.43    2.26
   5  -2  -9    8.04    2.30
   5  -2  -8  665.00   15.29
  -5   2   8  625.51   20.26
  -5   2   8  661.04   20.52
   5  -2  -8  679.80   18.78
  -5   2   8  631.16   19.44
   5  -2  -7   35.90    3.66
  -5   2   7   41.63    5.10
  -5   2   7   51.92    5.55
   5  -2  -7   44.03    3.90
   5  -2  -7   38.61    4.25
  -5   2   7   42.41    4.91
   5  -2  -6  141.60    6.88
  -5   2   6  142.34    8.84
   5  -2  -6  140.13    6.22
   5  -2  -6  137.06    7.43
  -5   2   6  142.98    9.03
  -5   2   6  132.17    8.21
  -5   2   5  152.55    9.02
   5  -2  -5  142.03    8.78
  -5   2   5  135.60    8.37
   5  -2  -5  144.92    5.55
   5  -2  -5  144.29    7.20
  -5   2   5  138.26    8.18
   5  -2  -5  137.80    6.76
  -5   2   4 1172.79   24.36
   5  -2  -4 1200.62   24.59
  -5   2   4 1185.93   23.65
   5  -2  -4 1103.02   12.84
   5  -2  -4 1178.15   18.90
   5  -2  -4 1150.46   19.29
  -5   2   4 1208.40   23.22
   5  -2  -3   30.33    3.90
  -5   2   3   26.46    3.55
   5  -2  -3   25.46    2.61
  -5   2   3   28.55    3.80
   5  -2  -3   23.30    2.83
  -5   2   3   28.34    3.58
  -5   2   2   17.90    2.84
  -5   2   2   17.83    2.99
   5  -2  -2   18.54    3.00
   5  -2  -2   15.79    2.40
  -5   2   2   15.77    2.66
   5  -2  -2   20.47    2.15
   5  -2  -1  388.86   13.25
  -5   2   1  384.19   12.82
   5  -2  -1  363.71    7.92
   5  -2  -1  369.90   11.29
  -5   2   1  356.39   11.96
  -5   2   1  369.83   12.17
  -5   2   1  371.36   13.23
   5  -2   0   42.06    4.42
  -5   2   0   41.03    4.53
  -5   2   0   42.74    4.34
   5  -2   0   40.58    2.30
   5  -2   0   35.45    3.69
  -5   2   0   35.47    3.77
  -5   2   0   37.77    4.01
  -5   2  -1  807.01   19.98
   5  -2   1  795.19   18.97
  -5   2  -1  764.79   18.36
   5  -2   1  779.03   17.20
  -5   2  -1  772.79   17.04
  -5   2  -1  814.53   18.27
   5  -2   2  162.57    8.65
  -5   2  -2  162.15    9.19
  -5   2  -2  153.44    8.50
   5  -2   2  144.54    7.66
  -5   2  -2  146.75    7.43
   5  -2   3 1171.49   23.52
  -5   2  -3 1188.45   25.68
  -5   2  -3 1200.02   24.14
  -5   2  -3 1158.54   13.73
   5  -2   3 1166.26   22.41
  -5   2  -3 1172.89   21.05
   5  -2   4  251.71   11.16
  -5   2  -4  258.40   12.39
  -5   2  -4  254.75   11.51
  -5   2  -4  236.28    4.99
   5  -2   4  262.50   11.04
  -5   2  -4  245.21    9.87
   5  -2   5  591.11   17.62
  -5   2  -5  569.38   19.04
  -5   2  -5  591.50   18.25
   5  -2   5  608.22   17.52
  -5   2  -5  596.01   15.86
  -5   2  -6  703.53   12.59
   5  -2   6  683.67   19.54
  -5   2  -6  692.77   20.69
  -5   2  -6  719.18   22.14
   5  -2   6  671.90   19.24
  -5   2  -6  713.66   17.97
  -5   2  -7    0.58    0.95
  -5   2  -7    1.90    1.70
   5  -2   7    0.48    1.06
   5  -2   7    0.20    1.56
  -5   2  -7    0.59    1.25
   5  -2   7    0.06    1.47
  -5   2  -8    6.36    1.97
  -5   2  -8    5.88    2.50
   5  -2   8   10.21    2.82
   5  -2   8    3.86    2.23
  -5   2  -8    6.79    2.57
   5  -2   8    8.60    2.46
   5  -2   9   25.99    4.48
  -5   2  -9   25.36    5.05
   5  -2   9   31.27    4.63
   5  -2   9   40.65    6.82
  -5   2  -9   32.06    5.19
  -5   2  -9   34.90    4.65
   5  -2   9   32.79    4.92
   5  -2  10  293.33   15.72
   5  -2  10  317.52   15.24
   5  -2  10  307.56   15.12
  -5   2 -10  300.16   17.07
   5  -2  10  306.12   18.90
  -5   2 -10  330.64   17.29
  -5   2 -10  334.25   14.84
  -5   2 -11    1.94    1.84
   5  -2  11    1.44    1.43
   5  -2  11   -0.19    1.02
   5  -2  11    1.06    1.94
  -5   2 -11   -1.34    1.70
  -5   2 -11    0.54    1.70
   5  -2  11   -0.55    1.79
   5  -2  12   90.05    9.31
  -5   2 -12   86.59    9.93
   5  -2  12  117.54   12.73
  -5   2 -12   97.56   10.47
   5  -2  12   85.44    8.80
  -5   2 -12  107.43    9.39
  -5   2 -13   10.10    3.15
  -5   2 -13   16.69    4.80
   5  -2  13   18.23    4.50
   5  -2  13   21.16    6.01
  -5   2 -13    9.58    3.67
   5  -2  13   13.77    3.82
  -5   2 -14   10.98    3.42
  -5   2 -14   17.70    4.97
   5  -2  14    6.56    3.31
   5  -2  14   11.20    3.59
  -5   2 -15   54.24    8.97
   5  -2  15   51.31    9.54
  -5   2 -15   60.79    8.24
  -5   1  17   -1.68    1.82
  -5   1  17   -0.50    2.70
   5  -1 -17    0.20    1.77
  -5   1  16   -3.41    3.19
  -5   1  16    0.49    1.84
  -5   1  16    0.26    1.61
   5  -1 -16    2.89    2.46
  -5   1  15   23.62    4.95
  -5   1  15   29.42    6.33
  -5   1  15   26.77    5.86
   5  -1 -15   22.40    4.97
  -5   1  14   18.50    4.33
  -5   1  14   13.16    3.87
  -5   1  14   19.18    4.82
   5  -1 -14   14.33    3.83
  -5   1  13  161.54   12.95
  -5   1  13  172.22   13.25
   5  -1 -13  166.39   11.67
  -5   1  13  174.02   12.25
  -5   1  12   14.16    3.52
  -5   1  12    9.75    3.69
  -5   1  12   11.08    3.14
   5  -1 -12   11.59    3.10
  -5   1  11   48.80    6.69
  -5   1  11   36.75    5.74
   5  -1 -11   38.34    5.12
  -5   1  11   45.76    5.83
  -5   1  10    5.82    2.09
  -5   1  10    7.69    2.77
   5  -1 -10    0.23    0.83
  -5   1  10    8.55    2.85
   5  -1 -10    5.26    1.63
   5  -1  -9  168.31    8.71
  -5   1   9  164.42   10.78
  -5   1   9  162.18   10.97
   5  -1  -9  169.54    9.26
  -5   1   9  167.04   10.25
   5  -1  -8  443.01   13.77
  -5   1   8  451.81   17.57
  -5   1   8  439.44   16.87
   5  -1  -8  428.20   13.83
  -5   1   8  438.55   15.89
   5  -1  -7   91.28    6.22
  -5   1   7   93.07    7.66
  -5   1   7   93.73    7.43
   5  -1  -7  103.11    5.27
  -5   1   7   96.70    4.18
   5  -1  -7   98.37    6.23
  -5   1   7   97.23    7.19
   5  -1  -6 1122.63   20.96
  -5   1   6 1133.75   24.95
  -5   1   6 1154.53   25.82
  -5   1   6 1077.37   12.57
   5  -1  -6 1137.91   15.23
   5  -1  -6 1132.20   19.70
  -5   1   6 1086.45   23.18
   5  -1  -5    5.00    1.58
  -5   1   5    7.56    2.21
  -5   1   5    4.16    1.81
  -5   1   5    5.72    0.88
   5  -1  -5    6.69    0.97
  -5   1   5    5.41    1.93
   5  -1  -5    4.15    1.17
   5  -1  -4 1173.43   20.79
  -5   1   4 1189.40   24.78
   5  -1  -4 1128.84   23.32
  -5   1   4 1135.43   23.55
  -5   1   4 1116.06   11.04
   5  -1  -4 1123.18   16.46
  -5   1   4 1124.01   22.33
   5  -1  -3  760.91   16.65
   5  -1  -3  786.45   19.09
  -5   1   3  775.28   19.52
  -5   1   3  759.28   18.90
   5  -1  -3  751.61   12.04
  -5   1   3  775.36   18.20
  -5   1   2  199.67    9.82
   5  -1  -2  196.74    9.35
  -5   1   2  194.48    9.43
   5  -1  -2  204.01    5.38
  -5   1   2  210.64    9.41
   5  -1  -2  198.52    8.51
   5  -1  -1 1090.66   21.39
  -5   1   1 1105.06   22.35
  -5   1   1 1052.61   18.30
  -5   1   1 1087.90   21.34
  -5   1   1 1114.35   23.03
   5  -1  -1 1072.26   19.91
  -5   1   0  392.89   13.85
  -5   1   0  384.82   13.22
   5  -1   0  393.53   12.72
  -5   1   0  367.44   10.46
   5  -1   0  387.41   12.15
  -5   1   0  391.89   12.95
   5  -1   1  212.55    9.34
  -5   1  -1  206.04   10.14
  -5   1  -1  208.79    9.94
  -5   1  -1  217.25    7.90
   5  -1   1  205.11    8.98
   5  -1   2    0.66    0.84
  -5   1  -2    0.58    1.27
  -5   1  -2    0.55    0.69
  -5   1  -2    0.53    1.07
  -5   1  -2   -0.25    0.70
   5  -1   2    3.41    1.41
  -5   1  -3  364.94   13.83
  -5   1  -3  355.77    9.46
  -5   1  -3  346.94   13.84
  -5   1  -3  344.51   10.13
   5  -1   3  366.83   12.57
   5  -1   3  327.40   11.82
   5  -1   4    3.10    1.46
  -5   1  -4    5.91    1.12
  -5   1  -4    6.16    1.61
  -5   1  -4    6.86    2.26
   5  -1   4   10.08    2.28
  -5   1  -4    5.87    1.91
  -5   1  -4    9.88    1.52
   5  -1   5    1.22    1.04
  -5   1  -5    3.10    1.36
  -5   1  -5    3.14    1.59
   5  -1   5    5.04    1.72
  -5   1  -5    7.53    2.20
  -5   1  -5    6.90    1.24
  -5   1  -6    6.04    1.75
   5  -1   6    6.52    2.07
  -5   1  -6    2.82    2.18
  -5   1  -6    7.96    2.49
   5  -1   6   10.25    2.42
   5  -1   7  298.16   12.73
  -5   1  -7  310.81   14.76
  -5   1  -7  289.09   14.48
  -5   1  -7  309.46   11.71
   5  -1   7  282.58   12.73
   5  -1   8   65.46    6.15
  -5   1  -8   52.88    6.58
   5  -1   8   48.93    7.04
  -5   1  -8   59.25    6.86
  -5   1  -8   64.05    5.72
   5  -1   8   50.00    5.61
   5  -1   9   40.84    5.99
   5  -1   9   39.17    4.89
  -5   1  -9   45.62    6.27
  -5   1  -9   44.25    6.21
   5  -1   9   38.42    5.09
   5  -1   9   42.82    6.85
  -5   1  -9   47.57    5.21
  -5   1  -9   48.08    4.71
  -5   1 -10    3.84    1.90
   5  -1  10    2.95    1.71
  -5   1 -10    0.24    1.35
   5  -1  10    4.02    2.49
   5  -1  10    4.61    2.55
  -5   1 -10    5.41    2.79
   5  -1  10    3.32    1.86
  -5   1 -11   16.51    3.55
  -5   1 -11   14.63    4.12
   5  -1  11   11.34    3.42
   5  -1  11   20.35    5.31
  -5   1 -11   18.26    4.53
   5  -1  11   15.71    3.71
  -5   1 -12    6.24    2.69
  -5   1 -12    3.09    2.03
   5  -1  12    7.25    3.10
   5  -1  12    7.07    3.36
  -5   1 -12    0.92    1.44
   5  -1  12    4.32    2.02
  -5   1 -13    9.32    2.85
  -5   1 -13   15.29    4.72
   5  -1  13    9.79    3.12
   5  -1  13    6.18    2.81
   5  -1  13   13.49    5.15
  -5   1 -13   10.86    3.92
  -5   1 -14   44.26    7.76
   5  -1  14   50.31    7.78
   5  -1  14   40.86    6.28
   5  -1  14   32.76    7.65
  -5   1 -15   -0.47    1.88
   5  -1  15    2.39    2.44
   5  -1  15    0.62    1.83
  -5   0  17   23.89    6.37
   5   0 -17   17.49    4.98
  -5   0  17   17.76    4.63
  -5   0  17   15.93    5.11
   5   0 -17   24.81    5.52
  -5   0  16  326.24   21.52
   5   0 -16  331.23   19.99
  -5   0  16  373.12   22.20
   5   0 -16  354.74   19.37
  -5   0  16  346.04   18.97
  -5   0  15    0.40    1.53
  -5   0  15    4.66    2.93
  -5   0  15    2.09    1.69
   5   0 -15    4.00    2.63
   5   0 -15    1.54    1.34
  -5   0  14  101.22   11.06
   5   0 -14  109.65   10.37
  -5   0  14  109.60   11.06
   5   0 -14  116.73   10.02
  -5   0  14  108.93    9.87
  -5   0  13    8.36    2.90
  -5   0  13    4.60    2.37
  -5   0  13    9.96    3.46
   5   0 -13    7.90    2.92
   5   0 -13    6.28    2.43
   5   0 -12    2.04    1.43
  -5   0  12   -0.70    1.40
  -5   0  12   -0.65    1.41
  -5   0  12    0.20    1.43
   5   0 -12   -0.74    1.51
   5   0 -12    1.11    1.56
  -5   0  11  596.84   23.20
   5   0 -11  578.56   20.56
  -5   0  11  576.80   22.02
  -5   0  11  564.97   19.85
   5   0 -11  584.46   18.52
   5   0 -10   31.94    4.29
  -5   0  10   35.73    4.89
  -5   0  10   46.05    6.36
   5   0 -10   44.73    5.54
  -5   0  10   39.10    5.56
   5   0  -9  901.00   21.89
  -5   0   9  906.18   26.14
   5   0  -9  895.15   23.28
  -5   0   9  904.36   25.22
  -5   0   9  880.58   16.86
  -5   0   9  906.12   23.26
  -5   0   8    4.10    1.79
   5   0  -8    6.23    2.05
  -5   0   8    2.88    1.74
   5   0  -8    2.47    1.43
  -5   0   8    5.34    2.24
  -5   0   8    3.55    1.11
   5   0  -7   67.70    5.69
  -5   0   7   78.57    7.21
  -5   0   7   77.75    6.91
  -5   0   7   79.70    4.66
  -5   0   7   74.73    6.28
  -5   0   6    0.27    0.89
  -5   0   6   -0.54    1.08
   5   0  -6    2.05    1.40
  -5   0   6    0.04    0.98
  -5   0   6    1.14    0.64
   5   0  -5   71.47    5.63
  -5   0   5   69.26    6.26
  -5   0   5   83.86    6.75
  -5   0   5   67.03    3.93
  -5   0   5   65.93    5.56
   5   0  -4  152.65    8.02
  -5   0   4  145.31    8.59
  -5   0   4  138.73    8.56
  -5   0   4  148.23    5.65
  -5   0   4  140.92    7.92
   5   0  -3   21.24    3.07
  -5   0   3   20.13    3.04
  -5   0   3   24.55    3.56
  -5   0   3   20.40    3.30
  -5   0   3   26.21    2.39
   5   0  -3   27.76    2.01
   5   0  -2  475.90   13.87
  -5   0   2  488.16   15.49
   5   0  -2  489.83   14.23
  -5   0   2  486.17   15.30
  -5   0   2  492.53   10.62
   5   0  -2  479.91    6.61
  -5   0   2  487.26   14.57
   5   0  -1 1133.69    9.51
  -5   0   1 1142.77   23.40
   5   0  -1 1136.34   21.13
  -5   0   1 1158.73   23.45
  -5   0   1 1131.15   16.23
  -5   0   1 1181.64   22.90
   5   0  -1 1146.29   21.45
  -5   0   0  290.29   11.89
  -5   0   0  296.26   12.02
  -5   0   0  291.14    6.41
  -5   0   0  292.22    7.76
   5   0   0  291.09   10.59
  -5   0   0  278.90   11.29
   5   0   0  275.29   10.56
  -5   0  -1  112.52    7.52
   5   0   1  111.58    6.48
  -5   0  -1  110.99    6.31
  -5   0  -1  105.66    7.37
  -5   0  -1  111.71    4.67
   5   0   1  116.73    6.93
   5   0   2  316.85   10.93
  -5   0  -2  317.29   10.59
  -5   0  -2  331.04   13.21
  -5   0  -2  336.07   13.23
  -5   0  -2  332.49    8.22
   5   0   2  338.11   11.99
   5   0   3  168.45    8.02
  -5   0  -3  177.11    9.97
  -5   0  -3  171.21    7.72
  -5   0  -3  190.28   10.24
  -5   0  -3  184.02    6.50
   5   0   3  179.94    8.93
  -5   0  -3  179.43    4.25
  -5   0  -4  389.24   15.05
   5   0   4  374.10   12.12
  -5   0  -4  361.91   14.67
  -5   0  -4  358.91   10.96
  -5   0  -4  401.62   10.23
   5   0   4  383.87   13.38
  -5   0  -4  375.50    7.77
   5   0   5  436.90   13.49
  -5   0  -5  425.56   11.88
  -5   0  -5  430.29   16.59
  -5   0  -5  410.08   15.93
  -5   0  -5  446.62   11.63
   5   0   5  455.04   14.92
  -5   0  -5  445.81    9.87
   5   0   6  285.48   11.24
  -5   0  -6  292.94   13.94
  -5   0  -6  292.09   14.19
  -5   0  -6  287.20    9.60
  -5   0  -6  286.48   10.00
   5   0   6  279.18   12.07
  -5   0  -6  281.26    8.88
  -5   0  -7    0.47    0.86
  -5   0  -7    1.00    1.29
   5   0   7    2.38    1.24
  -5   0  -7    2.73    1.73
  -5   0  -7    1.28    1.14
   5   0   7    0.65    1.14
   5   0   8  156.30    8.78
   5   0   8  142.79   11.05
  -5   0  -8  172.71   11.90
  -5   0  -8  158.21    8.49
   5   0   8  168.89   10.17
  -5   0  -8  141.66   10.56
  -5   0  -8  159.30    8.12
   5   0   9   78.12    8.54
  -5   0  -9   51.39    6.77
   5   0   9   60.20    7.99
  -5   0  -9   66.12    7.73
  -5   0  -9   64.61    5.87
   5   0   9   59.76    6.30
   5   0  10  103.20   10.15
   5   0  10  104.79   10.97
  -5   0 -10  103.30   10.23
  -5   0 -10  111.43    8.22
  -5   0 -10  109.20   10.12
   5   0  10  115.71    9.02
   5   0  11  120.42   11.29
  -5   0 -11  123.11   11.23
   5   0  11  133.47   12.81
  -5   0 -11  124.12   11.70
  -5   0 -11  127.86    9.41
   5   0  11  122.66    9.66
  -5   0 -12   42.21    6.87
   5   0  12   48.22    7.58
   5   0  12   41.24    7.43
  -5   0 -12   45.63    7.65
   5   0  12   47.42    6.26
  -5   0 -13    5.54    3.37
   5   0  13    1.16    1.78
   5   0  13    7.70    4.05
  -5   0 -13    9.28    3.80
   5   0  14  181.93   15.28
   5   0  14  199.53   17.65
  -5   0 -14  200.44   16.14
   5   0  15    5.26    2.79
   5   0  15    6.90    3.92
  -5  -1  17    3.77    2.19
  -5  -1  17    5.02    2.87
  -5  -1  17    0.09    2.73
   5   1 -17    5.55    2.94
   5   1 -17    9.16    3.35
  -5  -1  16    7.05    3.06
  -5  -1  16   12.49    5.05
  -5  -1  16   12.24    4.50
   5   1 -16    3.06    2.75
   5   1 -16    3.66    1.96
  -5  -1  15  208.53   16.68
   5   1 -15  184.21   14.07
  -5  -1  15  215.98   16.15
  -5  -1  15  196.61   13.53
  -5  -1  14   12.00    3.70
  -5  -1  14   14.45    4.48
  -5  -1  14   10.44    3.48
   5   1 -14   16.94    4.32
   5   1 -13   52.19    6.34
  -5  -1  13   46.80    7.31
   5   1 -13   48.05    6.67
  -5  -1  13   61.72    8.11
  -5  -1  13   43.48    5.97
   5   1 -12   57.92    6.48
  -5  -1  12   38.81    5.47
  -5  -1  12   43.31    6.73
   5   1 -12   47.52    6.23
  -5  -1  12   51.20    6.99
  -5  -1  11  163.55   12.32
   5   1 -11  144.78   10.15
  -5  -1  11  142.69   11.08
  -5  -1  11  148.68    8.43
   5   1 -11  150.61   10.17
  -5  -1  11  146.04    9.93
   5   1 -10  161.00   10.21
   5   1 -10  157.14    9.98
  -5  -1  10  162.07   11.80
  -5  -1  10  161.58   11.28
  -5  -1  10  149.23    8.10
  -5  -1  10  164.15   10.13
  -5  -1   9  134.26   10.33
   5   1  -9  114.65    8.33
   5   1  -9  113.75    8.08
  -5  -1   9  112.42    9.03
  -5  -1   9  114.97    6.83
  -5  -1   9  110.88    8.00
  -5  -1   8  549.72   19.94
   5   1  -8  517.74   17.16
   5   1  -8  531.31   16.38
  -5  -1   8  508.34   18.37
  -5  -1   8  504.08   13.71
  -5  -1   8  510.35   16.50
  -5  -1   7   12.46    2.68
  -5  -1   7   11.26    2.92
  -5  -1   7   13.12    3.17
  -5  -1   7   11.60    2.10
   5   1  -7    4.91    2.13
   5   1  -7    9.59    2.19
   5   1  -7   10.19    2.28
   5   1  -6  507.07   16.27
  -5  -1   6  540.40   17.68
  -5  -1   6  522.98   17.94
   5   1  -6  510.67   14.04
  -5  -1   6  502.87   12.96
  -5  -1   6  540.41   16.06
   5   1  -6  541.57   14.86
   5   1  -5  117.85    7.68
  -5  -1   5  105.52    7.79
  -5  -1   5  101.06    7.48
  -5  -1   5  116.41    6.08
  -5  -1   5  108.17    7.13
   5   1  -5  108.63    6.35
  -5  -1   4    0.15    1.16
  -5  -1   4   -0.31    1.05
   5   1  -4   -0.09    0.94
  -5  -1   4    0.06    1.06
  -5  -1   4   -0.04    0.50
   5   1  -4    0.25    0.75
  -5  -1   3   19.65    3.20
   5   1  -3   19.04    3.13
  -5  -1   3   21.57    3.42
  -5  -1   3   16.69    3.11
  -5  -1   3   21.20    2.58
   5   1  -2   14.43    2.70
  -5  -1   2   10.17    2.32
  -5  -1   2    9.90    2.51
  -5  -1   2   11.76    2.61
  -5  -1   2   13.22    2.14
   5   1  -1 1356.66   24.41
  -5  -1   1 1334.82   25.77
   5   1  -1 1298.27   22.20
  -5  -1   1 1348.15   26.31
   5   1  -1 1341.64   16.20
  -5  -1   1 1338.04   20.91
  -5  -1   1 1390.14   14.46
  -5  -1   1 1287.01   13.14
  -5  -1   1 1340.90   25.23
   5   1   0  615.65   10.88
  -5  -1   0  607.39   17.36
  -5  -1   0  616.05   17.98
   5   1   0  595.46   14.69
  -5  -1   0  581.02   11.29
  -5  -1   0  608.67    7.51
   5   1   0  597.65   16.22
   5   1   1  478.93    9.90
   5   1   1  452.85   12.43
  -5  -1  -1  444.04   15.06
  -5  -1  -1  439.13   15.44
  -5  -1  -1  456.79   11.11
   5   1   1  474.63   14.39
  -5  -1  -2  146.59    4.05
   5   1   2  152.66    7.16
  -5  -1  -2  152.32    8.95
  -5  -1  -2  145.50    9.16
  -5  -1  -2  154.93    7.12
  -5  -1  -2  143.88    3.43
   5   1   2  156.87    8.43
  -5  -1  -3   -0.13    0.42
  -5  -1  -3    0.81    1.42
   5   1   3   -0.31    0.99
  -5  -1  -3   -0.48    1.48
  -5  -1  -3    0.92    0.70
   5   1   3   -0.09    0.58
  -5  -1  -3    0.03    0.29
   5   1   4  554.09   13.82
  -5  -1  -4  561.24   18.01
  -5  -1  -4  545.94   18.57
  -5  -1  -4  575.52   10.72
   5   1   4  564.28   16.52
  -5  -1  -4  554.88   10.89
   5   1   5  105.99    6.13
  -5  -1  -5   98.83    8.32
  -5  -1  -5   90.63    7.48
  -5  -1  -5  107.24    5.21
   5   1   5  103.37    7.25
  -5  -1  -5   98.42    5.18
   5   1   6 2247.47   28.54
  -5  -1  -6 2235.95   38.54
  -5  -1  -6 2291.79   31.73
  -5  -1  -6 2343.95   26.97
  -5  -1  -6 2310.38   41.11
   5   1   6 2322.74   34.80
  -5  -1  -6 2277.89   27.22
  -5  -1  -7  445.49   17.79
  -5  -1  -7  454.03   19.04
  -5  -1  -7  482.31   14.76
  -5  -1  -7  482.08   13.46
   5   1   7  459.54   16.04
  -5  -1  -7  458.85   13.33
   5   1   8  297.45   16.61
  -5  -1  -8  308.83   15.48
  -5  -1  -8  308.93   16.39
   5   1   8  316.73   13.82
   5   1   9  137.57   11.79
  -5  -1  -9  141.20   11.52
   5   1   9  142.43    9.53
  -5  -1  -9  136.43   10.78
   5   1  10   -0.95    2.28
  -5  -1 -10    1.25    1.48
   5   1  10    2.25    1.28
  -5  -1 -10    0.15    1.24
   5   1  11    8.66    3.39
  -5  -1 -11    6.65    3.11
   5   1  11    7.71    2.60
  -5  -1 -11    4.10    2.55
   5   1  12   72.82    9.41
  -5  -1 -12   75.50    9.03
  -5  -1 -12   71.78    9.64
  -5  -1 -13    0.14    1.83
   5   1  13    4.47    2.89
  -5  -1 -14   33.45    6.61
   5   1  14   26.25    6.05
  -5  -2  17   16.25    5.57
  -5  -2  17   20.25    5.59
   5   2 -17   20.41    5.13
  -5  -2  16   -1.37    1.36
  -5  -2  16    1.80    2.11
  -5  -2  16    4.24    2.84
   5   2 -16    1.57    1.50
  -5  -2  15   21.64    4.51
  -5  -2  15   23.04    5.92
  -5  -2  15   19.37    4.99
   5   2 -15   23.01    5.03
  -5  -2  14   28.13    4.95
  -5  -2  14   36.44    7.07
   5   2 -14   31.31    5.38
  -5  -2  14   29.77    5.96
   5   2 -14   21.86    4.62
   5   2 -13   71.60    7.92
  -5  -2  13   75.81    9.38
   5   2 -13   78.35    8.18
  -5  -2  13   87.79    9.47
  -5  -2  13   89.73    8.35
  -5  -2  12   63.28    8.28
   5   2 -12   52.84    6.61
   5   2 -12   56.71    6.66
  -5  -2  12   76.51    8.57
  -5  -2  12   58.41    5.99
   5   2 -12   67.07    6.88
  -5  -2  12   65.10    6.89
   5   2 -11  329.52   15.91
  -5  -2  11  350.05   18.25
   5   2 -11  349.40   15.47
  -5  -2  11  327.92   16.81
  -5  -2  11  342.54   13.90
  -5  -2  11  343.79   15.08
   5   2 -11  347.28   15.03
  -5  -2  10   31.77    4.47
  -5  -2  10   29.96    5.32
   5   2 -10   28.12    4.62
   5   2 -10   35.48    4.72
  -5  -2  10   27.77    4.76
  -5  -2  10   27.96    3.97
   5   2 -10   33.61    4.67
   5   2  -9  139.35    9.75
   5   2  -9  136.13    8.58
  -5  -2   9  136.79   10.03
  -5  -2   9  135.58   10.52
  -5  -2   9  134.09    8.16
  -5  -2   9  128.47    8.56
   5   2  -9  141.79    8.79
   5   2  -8    4.61    1.83
   5   2  -8    6.21    2.28
  -5  -2   8    5.20    2.27
  -5  -2   8    4.19    1.83
  -5  -2   8    4.34    2.14
  -5  -2   8    4.11    1.65
   5   2  -8    4.12    1.74
   5   2  -7    1.31    1.30
   5   2  -7    6.19    1.94
  -5  -2   7    1.57    1.30
  -5  -2   7    1.38    1.40
  -5  -2   7    4.62    1.94
  -5  -2   7    3.27    1.41
   5   2  -7    4.44    1.40
   5   2  -6   11.65    2.26
  -5  -2   6    7.44    2.14
  -5  -2   6    3.58    1.84
  -5  -2   6   12.47    2.89
  -5  -2   6   10.23    2.14
   5   2  -6    9.42    2.47
   5   2  -6   11.12    2.14
   5   2  -5   75.43    6.54
  -5  -2   5   74.72    6.72
   5   2  -5   83.43    4.95
  -5  -2   5   64.73    6.01
  -5  -2   5   85.98    5.94
  -5  -2   5   77.54    6.15
   5   2  -5   83.83    5.68
   5   2  -4 1697.08   30.10
  -5  -2   4 1711.77   31.03
  -5  -2   4 1728.77   30.84
  -5  -2   4 1619.21   25.43
  -5  -2   4 1708.15   28.64
   5   2  -4 1651.33   23.60
   5   2  -3    1.46    1.05
  -5  -2   3   -0.34    1.07
  -5  -2   3    0.96    1.02
   5   2  -3    1.83    1.53
  -5  -2   3    2.87    1.63
  -5  -2   3    1.56    1.01
   5   2  -2  544.84   16.52
  -5  -2   2  561.57   17.03
  -5  -2   2  574.59   17.60
  -5  -2   2  548.26   17.20
  -5  -2   2  549.54   14.85
  -5  -2   2  605.43   11.27
  -5  -2   2  580.13   16.86
   5   2  -2  573.60   12.34
   5   2  -1   80.63    6.30
   5   2  -1   66.69    4.51
   5   2  -1   72.10    5.14
  -5  -2   1   76.65    6.44
  -5  -2   1   67.02    6.14
  -5  -2   1   75.09    6.17
  -5  -2   1   65.69    5.27
  -5  -2   1   71.56    4.26
   5   2  -1   72.35    4.07
   5   2   0   33.45    4.11
   5   2   0   34.37    3.22
  -5  -2   0   31.84    4.06
   5   2   0   32.19    3.31
  -5  -2   0   30.20    4.01
  -5  -2   0   31.91    4.27
  -5  -2   0   30.33    3.71
  -5  -2   0   35.15    3.32
   5   2   0   33.22    2.50
   5   2   1    6.36    1.52
   5   2   1    4.90    1.33
  -5  -2  -1    3.76    1.95
  -5  -2  -1    3.97    1.69
  -5  -2  -1    4.25    1.77
   5   2   1    3.66    1.40
  -5  -2  -1    6.85    1.67
  -5  -2  -1    4.87    0.83
  -5  -2  -2  182.41    9.83
   5   2   2  171.17    7.10
   5   2   2  193.45    7.85
  -5  -2  -2  190.63   10.68
  -5  -2  -2  173.89    9.65
  -5  -2  -2  176.36    8.57
  -5  -2  -2  176.66    5.65
   5   2   2  167.68    8.88
  -5  -2  -3  393.54   14.83
   5   2   3  402.39   10.65
  -5  -2  -3  387.85   15.72
  -5  -2  -3  394.74   14.73
  -5  -2  -3  413.34   13.85
  -5  -2  -3  405.28    9.55
   5   2   3  403.47   13.96
   5   2   4    1.72    1.25
   5   2   4    1.20    0.73
  -5  -2  -4    1.35    1.30
  -5  -2  -4    1.08    0.99
  -5  -2  -4    0.40    1.30
  -5  -2  -4    1.62    1.27
  -5  -2  -4    0.00    0.63
  -5  -2  -5   61.57    6.37
  -5  -2  -5   84.17    7.84
  -5  -2  -5   76.03    6.53
  -5  -2  -5   72.56    6.67
   5   2   5   80.70    6.41
  -5  -2  -5   72.39    4.97
   5   2   6    0.24    0.97
  -5  -2  -6    1.00    1.43
  -5  -2  -6   -0.03    1.28
  -5  -2  -6   -0.06    0.98
  -5  -2  -6   -0.16    1.20
  -5  -2  -6   -0.20    0.76
   5   2   7   13.25    2.79
   5   2   7   13.11    3.69
  -5  -2  -7   11.42    3.01
  -5  -2  -7   17.95    4.19
  -5  -2  -7    4.48    1.98
  -5  -2  -7   19.65    3.96
   5   2   8   66.01    8.18
  -5  -2  -8   43.84    6.51
  -5  -2  -8   43.95    5.81
  -5  -2  -8   60.94    7.35
   5   2   8   60.98    6.12
   5   2   9   30.93    6.00
  -5  -2  -9   29.19    5.52
  -5  -2  -9   24.19    4.89
  -5  -2  -9   25.25    4.57
   5   2   9   30.62    4.45
  -5  -2 -10   27.44    5.13
  -5  -2 -10   29.13    5.83
   5   2  10   42.52    5.34
   5   2  10   27.33    5.85
  -5  -2 -10   31.34    5.96
  -5  -2 -11   30.60    5.54
   5   2  11   24.03    5.68
  -5  -2 -11   29.54    6.18
  -5  -2 -11   29.59    6.35
  -5  -2 -12   -0.74    1.90
  -5  -2 -12    3.36    2.73
   5   2  12    2.78    2.08
  -5  -2 -12    1.13    2.17
   5   2  13    4.01    2.83
  -5  -2 -13    4.89    3.35
  -5  -2 -13    1.40    2.36
   5   2  14    3.72    3.04
  -5  -2 -14    6.70    3.91
  -5  -3  17    2.16    2.14
  -5  -3  17    2.14    2.33
   5   3 -17    3.40    1.94
  -5  -3  16   25.94    6.76
  -5  -3  16   21.07    5.45
   5   3 -16   21.76    5.11
  -5  -3  15    9.15    4.21
   5   3 -15    8.79    3.19
  -5  -3  15   13.83    4.43
   5   3 -15    9.55    3.47
  -5  -3  14   83.00    9.70
  -5  -3  14   70.31    9.66
   5   3 -14   84.92    9.43
   5   3 -14   81.86    8.84
  -5  -3  14   91.57    8.60
   5   3 -14   79.77    8.31
  -5  -3  13   95.81   10.83
   5   3 -13  109.25   10.30
   5   3 -13  123.58   10.23
  -5  -3  13  116.40   11.02
  -5  -3  13  128.75    9.89
  -5  -3  13  122.06    9.54
   5   3 -13  106.24    9.18
   5   3 -12   13.81    3.37
  -5  -3  12   11.93    3.09
  -5  -3  12    4.32    2.95
  -5  -3  12   15.90    3.94
   5   3 -12   12.98    3.53
  -5  -3  12   12.84    3.16
   5   3 -12   16.82    3.66
  -5  -3  11   46.21    7.07
   5   3 -11   54.73    6.87
  -5  -3  11   57.14    7.19
   5   3 -11   52.77    5.97
  -5  -3  11   47.29    5.64
  -5  -3  11   51.29    5.84
   5   3 -11   56.25    6.19
  -5  -3  10  117.56   10.37
   5   3 -10  124.48   10.04
  -5  -3  10  127.49   10.10
  -5  -3  10  133.54    9.01
   5   3 -10  137.18    8.99
  -5  -3  10  122.45    8.56
   5   3 -10  136.28    9.11
   5   3  -9    4.91    2.06
  -5  -3   9    3.82    1.65
  -5  -3   9    2.43    1.99
   5   3  -9    4.17    2.01
  -5  -3   9    3.85    2.14
  -5  -3   9    4.83    1.98
   5   3  -9    4.83    1.57
  -5  -3   8   72.87    7.57
  -5  -3   8   68.27    6.92
   5   3  -8   80.54    6.13
  -5  -3   8   72.20    6.30
   5   3  -8   70.92    7.20
  -5  -3   8   81.18    6.64
   5   3  -8   83.73    6.63
   5   3  -7  463.00   17.76
  -5  -3   7  468.87   17.50
   5   3  -7  460.14   13.44
  -5  -3   7  442.98   15.38
  -5  -3   7  430.28   17.59
  -5  -3   7  440.93   15.14
   5   3  -7  488.70   15.20
  -5  -3   6  287.41   13.73
   5   3  -6  285.38   13.70
  -5  -3   6  291.61   13.45
   5   3  -6  291.63    9.80
  -5  -3   6  273.95   11.79
  -5  -3   6  288.35   12.17
   5   3  -6  296.33   11.40
   5   3  -5    1.46    1.20
  -5  -3   5    1.24    1.32
  -5  -3   5    0.69    1.48
  -5  -3   5    4.15    1.65
   5   3  -5    0.07    1.30
   5   3  -5    1.18    0.77
   5   3  -4   84.10    7.09
  -5  -3   4   70.60    6.38
  -5  -3   4   72.29    6.54
  -5  -3   4   88.89    7.82
   5   3  -4   81.79    4.00
  -5  -3   4   77.33    6.21
  -5  -3   4   72.04    6.18
   5   3  -4   87.29    5.63
   5   3  -3  801.17   21.46
  -5  -3   3  804.26   22.87
  -5  -3   3  801.18   21.42
  -5  -3   3  807.39   21.19
  -5  -3   3  795.44   19.76
   5   3  -3  814.95   16.17
   5   3  -2   33.03    4.45
  -5  -3   2   30.20    4.09
  -5  -3   2   21.26    3.93
  -5  -3   2   23.54    3.77
  -5  -3   2   26.19    3.55
  -5  -3   2   28.09    3.11
   5   3  -2   29.84    2.94
   5   3  -1  166.64    9.50
   5   3  -1  154.37    7.88
  -5  -3   1  147.42    8.79
  -5  -3   1  146.53    9.65
  -5  -3   1  158.39    9.68
  -5  -3   1  155.84    8.86
  -5  -3   1  163.01    7.66
   5   3  -1  158.35    6.27
   5   3   0   88.28    6.80
   5   3   0   79.02    5.63
   5   3   0   94.71    5.53
  -5  -3   0   78.76    7.08
  -5  -3   0   72.98    6.55
  -5  -3   0   90.54    6.83
  -5  -3   0   83.43    5.86
  -5  -3   0   81.41    6.48
   5   3   0   91.04    4.37
   5   3   1   32.72    4.14
   5   3   1   35.92    3.85
   5   3   1   27.65    2.86
  -5  -3  -1   31.30    4.53
  -5  -3  -1   30.84    4.09
  -5  -3  -1   27.06    4.29
  -5  -3  -1   39.64    4.64
  -5  -3  -1   28.75    3.65
  -5  -3  -1   34.27    2.91
   5   3   1   35.45    2.45
   5   3   2   14.31    2.55
   5   3   2   18.39    2.18
  -5  -3  -2   14.16    2.77
  -5  -3  -2   15.04    3.15
  -5  -3  -2   11.44    2.99
   5   3   2   16.59    2.98
  -5  -3  -2   17.63    3.09
  -5  -3  -2   14.87    2.10
   5   3   3  264.98   10.77
  -5  -3  -3  253.52   12.85
  -5  -3  -3  231.51   11.28
  -5  -3  -3  241.25   11.64
  -5  -3  -3  258.27    9.02
   5   3   3  251.29   11.38
  -5  -3  -3  249.56   12.98
  -5  -3  -4  586.91   18.44
  -5  -3  -4  578.48   19.54
  -5  -3  -4  559.60   20.12
  -5  -3  -4  562.80   18.72
  -5  -3  -4  594.93   14.67
   5   3   4  612.40   17.89
   5   3   5    0.39    0.98
  -5  -3  -5    1.49    1.46
  -5  -3  -5    0.16    1.33
  -5  -3  -5    0.30    1.38
  -5  -3  -5    0.19    1.11
  -5  -3  -5   -0.62    0.81
  -5  -3  -6  186.73   11.16
  -5  -3  -6  200.94   12.95
  -5  -3  -6  172.05   10.74
  -5  -3  -6  186.54   11.89
   5   3   6  187.61   10.13
   5   3   7    8.52    2.30
  -5  -3  -7    8.91    2.77
   5   3   7    5.64    2.65
  -5  -3  -7   10.23    3.35
  -5  -3  -7    5.72    2.38
  -5  -3  -7    8.93    2.83
   5   3   8   25.23    3.93
   5   3   8   22.63    5.00
  -5  -3  -8   20.89    4.22
  -5  -3  -8   18.20    4.40
  -5  -3  -8   14.38    3.44
  -5  -3  -8   24.74    5.03
  -5  -3  -9    2.22    1.33
  -5  -3  -9    0.76    1.11
   5   3   9    2.06    2.03
  -5  -3  -9    3.34    2.32
   5   3  10   58.77    8.73
  -5  -3 -10   54.84    8.08
  -5  -3 -10   65.39    9.03
   5   3  11   38.88    7.40
  -5  -3 -11   30.45    6.24
  -5  -3 -11   30.88    6.64
   5   3  12   17.34    5.15
  -5  -3 -12   22.39    5.54
  -5  -3 -12   23.15    5.75
   5   3  13   48.77    8.62
  -5  -3 -13   47.39    8.57
  -5  -3 -13   40.81    7.98
  -5  -4  17   20.97    5.40
   5   4 -17   19.83    5.01
   5   4 -16    3.22    2.31
  -5  -4  16    2.91    2.86
  -5  -4  16    0.97    1.91
   5   4 -16    1.96    2.75
   5   4 -16    0.32    1.30
   5   4 -15    2.29    1.98
  -5  -4  15    0.05    2.09
  -5  -4  15    4.11    2.89
   5   4 -15    0.54    1.83
   5   4 -15    5.56    2.50
   5   4 -14    7.20    2.86
  -5  -4  14   -0.43    2.08
  -5  -4  14    1.93    1.94
  -5  -4  14    2.37    1.78
   5   4 -14    1.84    2.09
   5   4 -14    2.66    2.39
   5   4 -13  101.04   10.35
  -5  -4  13   88.22    9.67
   5   4 -13  102.20    9.24
  -5  -4  13   89.20    8.85
  -5  -4  13   87.52   10.51
   5   4 -13   87.79    8.49
  -5  -4  12   64.51    8.54
  -5  -4  12   76.44    8.59
   5   4 -12   74.29    7.49
   5   4 -12   62.83    8.01
  -5  -4  12   79.32    8.09
  -5  -4  12   87.70    7.72
   5   4 -12   81.39    7.90
  -5  -4  11  164.12   12.96
   5   4 -11  173.30   12.78
  -5  -4  11  192.94   13.07
   5   4 -11  180.59   10.96
  -5  -4  11  182.34   11.80
  -5  -4  11  189.49   10.98
   5   4 -11  189.03   11.54
   5   4 -10   21.64    3.97
  -5  -4  10   22.50    3.84
  -5  -4  10   18.83    4.38
   5   4 -10   15.65    3.75
  -5  -4  10   16.75    3.78
  -5  -4  10   13.25    3.20
   5   4 -10   21.18    3.62
   5   4  -9  101.64    9.27
  -5  -4   9   81.82    8.56
  -5  -4   9   89.72    8.33
   5   4  -9  106.11    7.41
  -5  -4   9   97.29    8.18
  -5  -4   9  110.89    8.06
   5   4  -9  102.17    7.84
   5   4  -8    0.27    1.25
  -5  -4   8    2.00    1.43
  -5  -4   8    3.14    2.23
   5   4  -8   -0.12    1.66
  -5  -4   8    1.86    1.28
  -5  -4   8    2.00    1.55
   5   4  -8    0.70    1.02
   5   4  -7  325.24   15.65
  -5  -4   7  308.13   14.40
   5   4  -7  297.00   10.65
  -5  -4   7  311.20   13.85
  -5  -4   7  293.47   14.92
  -5  -4   7  288.09   12.51
   5   4  -7  318.39   12.78
  -5  -4   6 1536.85   32.86
   5   4  -6 1549.96   33.37
  -5  -4   6 1628.47   35.81
  -5  -4   6 1531.90   31.61
   5   4  -6 1616.31   22.41
  -5  -4   6 1567.04   30.90
  -5  -4   6 1606.79   29.62
   5   4  -6 1586.18   27.37
   5   4  -5  822.21   23.99
  -5  -4   5  786.28   22.71
  -5  -4   5  859.30   25.91
  -5  -4   5  846.47   23.01
  -5  -4   5  824.75   22.20
  -5  -4   5  859.39   21.66
   5   4  -5  856.30   19.24
  -5  -4   4 1504.07   30.36
  -5  -4   4 1538.37   34.28
  -5  -4   4 1508.06   30.46
   5   4  -4 1551.67   32.03
  -5  -4   4 1540.21   30.16
   5   4  -4 1557.61   24.88
   5   4  -3  146.15    9.73
  -5  -4   3  129.18    8.67
  -5  -4   3  137.15   10.22
  -5  -4   3  128.26    8.83
  -5  -4   3  147.69    9.35
  -5  -4   3  152.68    8.06
   5   4  -3  144.02    7.25
   5   4  -2  715.87   20.87
  -5  -4   2  669.57   19.27
  -5  -4   2  740.07   23.40
  -5  -4   2  709.06   20.78
  -5  -4   2  672.04   19.68
  -5  -4   2  710.78   17.43
   5   4  -2  721.88   15.31
   5   4  -1   13.82    2.07
   5   4  -1   10.81    2.44
   5   4  -1   13.20    2.83
  -5  -4   1   13.48    2.75
  -5  -4   1   12.63    2.92
  -5  -4   1   12.64    2.99
  -5  -4   1   12.07    2.41
  -5  -4   1    9.56    2.90
   5   4   0    3.25    1.77
   5   4   0    4.62    1.16
   5   4   0    3.56    1.44
  -5  -4   0    2.13    1.33
   5   4   0    4.28    1.30
  -5  -4   0    1.30    1.09
  -5  -4   0    4.66    2.35
  -5  -4   0    7.16    2.16
  -5  -4   0    5.32    1.87
  -5  -4   0    3.07    1.10
   5   4   1  746.33   20.47
  -5  -4  -1  721.60   19.39
  -5  -4  -1  710.49   21.54
  -5  -4  -1  690.23   22.76
  -5  -4  -1  754.48   21.55
  -5  -4  -1  727.73   20.20
  -5  -4  -1  735.03   15.89
   5   4   1  731.79   19.25
   5   4   2   55.86    5.51
  -5  -4  -2   57.98    5.58
  -5  -4  -2   63.97    6.61
  -5  -4  -2   49.45    6.21
  -5  -4  -2   50.22    5.59
  -5  -4  -2   53.63    4.56
   5   4   2   50.33    5.38
   5   4   3  192.37   10.20
  -5  -4  -3  179.26    9.86
  -5  -4  -3  199.66   11.98
  -5  -4  -3  203.63   12.46
  -5  -4  -3  200.34   11.58
  -5  -4  -3  207.30    9.21
   5   4   3  213.99   10.85
  -5  -4  -4    0.06    1.10
   5   4   4    0.84    1.17
  -5  -4  -4   -0.23    1.18
  -5  -4  -4   -0.10    1.11
  -5  -4  -4    1.09    1.44
  -5  -4  -4    2.25    1.55
  -5  -4  -5  159.49    9.88
  -5  -4  -5  139.47   10.73
  -5  -4  -5  145.83   10.70
  -5  -4  -5  152.78   11.19
   5   4   5  157.27    9.39
   5   4   6  111.71   10.64
  -5  -4  -6  119.26   10.25
  -5  -4  -6  111.82    8.61
  -5  -4  -6  129.74   10.30
  -5  -4  -6  109.86    9.86
   5   4   6  126.46    8.50
   5   4   7   12.58    2.71
   5   4   7   12.59    3.89
  -5  -4  -7   10.82    3.35
  -5  -4  -7   10.29    3.15
  -5  -4  -7   11.42    3.74
   5   4   8  108.45   11.19
  -5  -4  -8  117.34   11.02
  -5  -4  -8  108.13    9.65
  -5  -4  -8  112.10   11.09
   5   4   9   15.13    4.51
  -5  -4  -9   14.87    4.26
  -5  -4  -9   18.03    4.98
   5   4  10   91.90   11.06
  -5  -4 -10   95.54   10.95
  -5  -4 -10   78.65   10.16
   5   4  11   -1.36    2.52
  -5  -4 -11   -1.66    1.96
  -5  -4 -11   -1.41    1.83
   5   4  12    0.07    1.69
  -5  -4 -12   -1.65    2.00
  -5  -4 -12   -1.12    2.94
   5   5 -17   -2.61    2.53
   5   5 -17    0.22    1.47
  -5  -5  16  159.33   16.11
   5   5 -16  134.91   13.43
  -5  -5  16  134.88   13.34
   5   5 -16  147.94   12.88
   5   5 -16  152.56   12.67
  -5  -5  15  225.56   18.51
   5   5 -15  186.49   15.52
  -5  -5  15  184.62   15.15
   5   5 -15  197.33   14.21
  -5  -5  15  196.89   14.54
   5   5 -15  205.20   14.23
  -5  -5  14   99.03   11.90
  -5  -5  14   85.38    9.96
   5   5 -14   89.86    9.21
  -5  -5  14   87.74    9.57
   5   5 -14   64.22    8.81
   5   5 -14   87.72    9.21
  -5  -5  13   76.20   10.06
   5   5 -13   72.66    9.30
  -5  -5  13   74.30    8.94
   5   5 -13   91.56    8.85
  -5  -5  13   75.67    8.70
   5   5 -13   89.10    8.84
  -5  -5  12   34.46    6.59
  -5  -5  12   50.31    7.07
   5   5 -12   49.38    6.14
  -5  -5  12   40.04    6.13
   5   5 -12   52.46    7.55
   5   5 -12   51.87    6.53
   5   5 -11    4.25    2.09
  -5  -5  11    0.05    1.63
  -5  -5  11    0.59    1.32
   5   5 -11    1.71    1.78
  -5  -5  11    3.88    2.28
   5   5 -11    3.38    1.82
   5   5 -10   28.81    4.78
  -5  -5  10   20.77    4.69
   5   5 -10   31.44    4.39
  -5  -5  10   24.14    4.68
   5   5 -10   24.76    5.00
  -5  -5  10   28.62    4.87
  -5  -5   9  345.92   17.82
  -5  -5   9  359.65   18.62
   5   5  -9  343.33   17.74
  -5  -5   9  349.23   16.60
   5   5  -9  376.41   13.89
  -5  -5   9  353.65   16.73
  -5  -5   9  338.92   14.20
   5   5  -9  363.49   15.31
  -5  -5   8  126.64   10.42
   5   5  -8  133.76   10.81
  -5  -5   8  140.29   11.49
  -5  -5   8  149.24   10.66
  -5  -5   8  149.66   10.57
  -5  -5   8  151.37    9.39
   5   5  -8  148.14    9.53
   5   5  -7   -0.31    1.28
   5   5  -7   -0.66    1.63
  -5  -5   7   -2.23    1.59
  -5  -5   7    1.14    1.82
  -5  -5   7   -0.42    1.19
  -5  -5   7    0.17    1.08
  -5  -5   7   -0.44    1.10
   5   5  -6   15.77    3.02
   5   5  -6   15.80    3.66
  -5  -5   6    8.37    2.61
  -5  -5   6   10.02    3.34
  -5  -5   6   11.30    2.93
  -5  -5   6   10.26    2.78
  -5  -5   5  130.76    9.55
   5   5  -5  141.45   10.45
  -5  -5   5  148.70   11.58
  -5  -5   5  135.92    9.55
  -5  -5   5  131.61    9.56
   5   5  -5  143.24    8.38
   5   5  -4   18.25    3.05
  -5  -5   4    9.10    2.59
  -5  -5   4   16.48    4.12
  -5  -5   4   11.85    3.02
  -5  -5   4   11.76    3.04
   5   5  -4   11.61    3.06
   5   5  -3    3.20    1.46
  -5  -5   3    0.31    0.88
  -5  -5   3    0.67    1.79
  -5  -5   3   -0.02    1.11
   5   5  -3    4.49    1.97
  -5  -5   3    3.18    1.75
  -5  -5   3    2.59    1.31
   5   5  -2    5.91    1.74
  -5  -5   2    4.49    2.07
   5   5  -2    3.68    1.71
  -5  -5   2    2.66    1.56
  -5  -5   2    6.38    2.23
  -5  -5   2    6.44    2.31
  -5  -5   2    8.11    2.22
   5   5  -1   46.60    5.55
   5   5  -1   47.52    5.54
  -5  -5   1   45.50    5.00
  -5  -5   1   46.84    5.61
  -5  -5   1   44.90    6.31
  -5  -5   1   46.02    5.68
  -5  -5   1   49.22    5.40
   5   5  -1   50.33    4.21
   5   5   0   -1.98    0.94
   5   5   0    1.86    1.43
   5   5   0    0.18    0.97
  -5  -5   0    1.94    1.56
  -5  -5   0    1.39    1.65
  -5  -5   0   -1.24    2.30
  -5  -5   0    2.79    1.90
  -5  -5   0    0.72    1.22
  -5  -5   0   -0.39    1.20
   5   5   1   34.74    4.67
  -5  -5  -1   27.80    3.85
   5   5   1   33.88    4.72
  -5  -5  -1   28.18    4.53
  -5  -5  -1   26.42    4.95
  -5  -5  -1   39.10    5.20
  -5  -5  -1   26.63    4.43
  -5  -5  -1   25.75    3.48
   5   5   2   18.63    3.51
  -5  -5  -2   18.72    3.22
  -5  -5  -2   16.95    3.63
  -5  -5  -2   17.45    3.92
   5   5   2   24.94    4.01
  -5  -5  -2   21.02    4.05
  -5  -5  -2   15.30    2.83
   5   5   3   99.38    7.99
  -5  -5  -3   85.96    6.77
  -5  -5  -3  105.66    9.04
  -5  -5  -3  107.94    9.75
  -5  -5  -3   83.24    8.16
   5   5   3  104.30    7.90
   5   5   4   59.69    6.35
  -5  -5  -4   59.54    7.07
  -5  -5  -4   55.68    7.18
  -5  -5  -4   54.44    6.85
   5   5   4   49.01    5.43
   5   5   5    4.69    2.37
   5   5   5    5.05    1.84
  -5  -5  -5    2.73    2.18
  -5  -5  -5    2.56    1.71
  -5  -5  -5    1.30    1.66
   5   5   6  127.72   11.73
  -5  -5  -6  141.26   11.45
  -5  -5  -6  133.57   11.16
  -5  -5  -6  124.92   11.30
  -5  -5  -7    1.66    1.74
  -5  -5  -7   -3.72    2.11
  -5  -5  -7   -0.18    1.80
   5   5   8    8.29    3.42
  -5  -5  -8   16.73    4.42
  -5  -5  -8    8.99    3.18
  -5  -5  -8   11.63    3.90
   5   5   9   29.02    6.53
  -5  -5  -9   34.92    6.58
  -5  -5  -9   24.04    5.59
   5   5  10   -4.50    3.18
  -5  -5 -10    1.94    2.38
  -5  -5 -10   -0.07    1.53
   5   5  11   50.48    8.84
  -5  -5 -11   53.21    8.63
  -5  -5 -11   60.23    9.93
  -5  -6  16   19.35    5.34
  -5  -6  16   16.36    4.76
   5   6 -16   30.10    6.89
  -5  -6  16   18.37    4.82
   5   6 -15   32.53    5.82
  -5  -6  15   26.43    6.81
  -5  -6  15   33.58    7.08
  -5  -6  15   41.65    7.23
  -5  -6  15   40.35    7.23
   5   6 -15   32.00    6.83
  -5  -6  14   90.07   11.54
   5   6 -14   78.11   10.36
  -5  -6  14   83.68   10.40
  -5  -6  14   72.24    9.23
  -5  -6  14   85.85    9.98
   5   6 -14   86.20    9.26
   5   6 -13   25.64    5.15
  -5  -6  13   22.48    5.74
  -5  -6  13   25.02    5.86
  -5  -6  13   21.90    4.95
  -5  -6  13   31.09    5.98
   5   6 -13   24.81    5.66
   5   6 -12    6.45    2.60
  -5  -6  12    1.70    2.28
  -5  -6  12    4.98    3.51
  -5  -6  12   10.11    3.41
   5   6 -12    6.06    2.71
  -5  -6  12    8.61    3.42
   5   6 -11    7.71    2.90
  -5  -6  11    3.44    2.01
  -5  -6  11    5.53    3.10
  -5  -6  11    7.44    2.87
   5   6 -11    3.08    2.34
  -5  -6  11    2.93    2.06
   5   6 -10    0.27    1.43
  -5  -6  10   -1.20    1.74
  -5  -6  10    2.03    2.14
   5   6 -10   -0.68    2.03
  -5  -6  10    1.58    1.64
  -5  -6  10   -4.02    2.21
   5   6  -9   19.07    3.92
  -5  -6   9   11.50    3.56
   5   6  -9   10.66    3.32
  -5  -6   9    9.67    3.73
  -5  -6   9   14.09    3.65
  -5  -6   9   11.42    3.46
   5   6  -8   30.87    4.64
   5   6  -8   27.83    5.44
  -5  -6   8   23.35    4.83
  -5  -6   8   33.05    5.98
  -5  -6   8   27.73    4.73
  -5  -6   8   21.10    4.38
   5   6  -7   62.47    7.59
  -5  -6   7   61.34    7.12
  -5  -6   7   62.11    8.16
  -5  -6   7   62.55    6.91
  -5  -6   7   66.42    7.48
   5   6  -7   75.09    6.95
   5   6  -6    4.61    1.74
   5   6  -6    5.48    2.56
  -5  -6   6    2.19    1.77
  -5  -6   6    5.22    2.82
  -5  -6   6    4.15    1.90
  -5  -6   6    4.37    2.15
   5   6  -5   83.80    8.42
  -5  -6   5   80.74    9.09
  -5  -6   5   80.89    7.58
  -5  -6   5   79.93    8.02
  -5  -6   5   77.35    7.48
   5   6  -5   82.54    6.81
  -5  -6   4   96.80    8.01
  -5  -6   4  111.83   10.63
  -5  -6   4  115.46    8.95
   5   6  -4  103.30    9.18
  -5  -6   4  108.37    9.35
   5   6  -4  114.60    7.77
   5   6  -3   18.36    3.05
  -5  -6   3   11.92    2.87
  -5  -6   3   16.05    4.11
  -5  -6   3   22.11    3.94
   5   6  -3   14.77    3.40
  -5  -6   3   16.85    3.82
  -5  -6   3   18.03    3.67
   5   6  -2    3.35    1.58
  -5  -6   2    0.70    1.18
   5   6  -2    2.05    1.49
  -5  -6   2    4.25    1.92
  -5  -6   2    2.36    2.10
  -5  -6   2    5.40    2.33
  -5  -6   2    3.16    1.79
   5   6  -1  416.46   17.26
   5   6  -1  389.73   16.95
  -5  -6   1  423.54   15.29
  -5  -6   1  395.52   16.58
  -5  -6   1  398.79   19.76
  -5  -6   1  418.18   18.28
  -5  -6   1  410.88   16.99
   5   6  -1  422.18   13.14
   5   6   0    0.39    1.21
   5   6   0    1.38    1.48
  -5  -6   0    5.18    2.09
  -5  -6   0    3.76    2.57
  -5  -6   0    2.31    1.83
  -5  -6   0    3.39    1.89
  -5  -6   0    0.50    1.17
   5   6   1  305.59   14.38
   5   6   1  298.73   14.88
  -5  -6  -1  298.47   14.78
  -5  -6  -1  267.75   16.04
  -5  -6  -1  320.18   16.20
  -5  -6  -1  316.83   15.82
  -5  -6  -1  322.33   13.30
   5   6   2   82.80    7.45
   5   6   2   84.68    8.05
  -5  -6  -2   85.65    8.17
  -5  -6  -2   76.68    8.88
  -5  -6  -2   84.04    8.46
  -5  -6  -2   79.97    8.28
   5   6   3  228.61   14.77
   5   6   3  258.96   13.99
  -5  -6  -3  239.11   13.92
  -5  -6  -3  231.36   15.19
  -5  -6  -3  231.35   14.49
   5   6   3  244.73   12.56
   5   6   4   25.69    4.68
   5   6   4   23.11    5.05
   5   6   4   25.65    4.10
  -5  -6  -4   20.42    4.28
  -5  -6  -4   25.24    5.19
  -5  -6  -4   19.99    4.56
   5   6   5   14.68    4.12
  -5  -6  -5   19.48    4.39
  -5  -6  -5   11.68    3.87
  -5  -6  -5    8.63    3.58
   5   6   6  104.10   11.10
  -5  -6  -6  119.09   10.85
  -5  -6  -6  110.50   10.90
  -5  -6  -6  130.87   12.26
   5   6   7   36.61    6.86
  -5  -6  -7   30.05    5.75
  -5  -6  -7   29.49    5.68
  -5  -6  -7   19.50    5.14
   5   6   8   85.25   10.71
  -5  -6  -8   64.79    8.76
  -5  -6  -8   80.62    9.60
  -5  -6  -8   65.73    9.52
   5   6   9    4.66    2.61
  -5  -6  -9    8.34    3.73
  -5  -6  -9   -1.39    3.60
   5   6  10   36.87    7.43
  -5  -6 -10   32.16    6.68
  -5  -6 -10   34.11    7.57
  -5  -7  15  185.11   17.58
  -5  -7  15  150.40   14.81
  -5  -7  15  155.11   14.25
   5   7 -14    0.97    1.42
  -5  -7  14    4.07    2.78
  -5  -7  14    2.05    2.22
   5   7 -14    0.31    1.65
  -5  -7  14   -4.21    2.65
  -5  -7  13   76.84   10.51
   5   7 -13   89.13   11.17
  -5  -7  13   75.29   10.13
  -5  -7  13   83.56   10.14
   5   7 -13   69.44    8.27
   5   7 -12   -0.46    1.56
  -5  -7  12   -0.50    1.99
  -5  -7  12   -0.44    1.91
   5   7 -12    1.73    2.08
  -5  -7  12   -0.54    1.94
   5   7 -11   17.02    4.06
  -5  -7  11   16.54    4.79
   5   7 -11   12.61    4.24
  -5  -7  11   16.41    4.45
  -5  -7  11   15.19    4.60
  -5  -7  10  195.16   14.68
   5   7 -10  195.52   15.14
  -5  -7  10  174.06   14.77
  -5  -7  10  200.73   14.60
   5   7 -10  206.02   13.03
  -5  -7   9  174.63   13.43
   5   7  -9  166.94   13.58
  -5  -7   9  159.63   14.03
  -5  -7   9  197.48   12.81
  -5  -7   9  172.88   13.34
   5   7  -9  184.67   12.08
   5   7  -8   37.18    5.39
   5   7  -8   33.56    6.04
  -5  -7   8   37.47    6.23
  -5  -7   8   27.75    5.98
  -5  -7   8   42.05    5.83
  -5  -7   8   25.58    5.26
  -5  -7   7  130.56   10.61
   5   7  -7  135.70   11.70
  -5  -7   7  143.94   13.07
  -5  -7   7  135.29   10.35
  -5  -7   7  144.72   11.79
   5   7  -7  148.37   10.23
   5   7  -6   18.68    4.43
   5   7  -6   11.74    2.98
  -5  -7   6    7.64    2.81
  -5  -7   6   13.40    4.42
  -5  -7   6   11.95    3.27
  -5  -7   6   15.84    4.10
   5   7  -5    3.23    1.98
  -5  -7   5   -0.08    1.79
  -5  -7   5    1.17    1.40
  -5  -7   5    2.92    2.29
   5   7  -5    1.86    1.61
   5   7  -4   -1.33    1.46
  -5  -7   4   -0.34    1.16
   5   7  -4    0.54    1.58
   5   7  -3  116.06    9.91
  -5  -7   3  102.67    8.61
  -5  -7   3  106.41   11.01
  -5  -7   3  126.99   10.78
  -5  -7   3  118.40    9.56
   5   7  -3  112.67    8.01
   5   7  -2    7.05    2.11
   5   7  -2    4.81    2.38
   5   7  -2    7.12    2.54
  -5  -7   2    7.57    2.61
  -5  -7   2    1.53    1.89
  -5  -7   2    4.53    2.21
  -5  -7   2    5.19    2.44
   5   7  -1  351.53   16.67
   5   7  -1  327.78   16.86
  -5  -7   1  369.97   16.30
  -5  -7   1  326.53   19.05
  -5  -7   1  385.91   18.76
  -5  -7   1  349.80   17.02
   5   7   0   36.43    5.35
   5   7   0   26.92    5.12
  -5  -7   0   34.24    5.16
  -5  -7   0   26.59    5.77
  -5  -7   0   29.83    5.46
  -5  -7   0   36.36    4.94
  -5  -7   0   22.37    4.52
  -5  -7  -1   15.02    3.58
   5   7   1   23.36    4.69
  -5  -7  -1   22.69    5.39
  -5  -7  -1   26.69    5.22
  -5  -7  -1   25.91    5.00
   5   7   1   23.18    4.35
   5   7   2    8.44    3.07
   5   7   2    3.92    2.30
  -5  -7  -2    5.62    2.20
  -5  -7  -2    3.30    2.63
  -5  -7  -2    4.62    2.22
   5   7   2    5.56    2.07
  -5  -7  -2    9.09    3.70
   5   7   3    8.51    2.94
   5   7   3    4.72    2.10
  -5  -7  -3   10.11    3.16
  -5  -7  -3    6.53    2.97
  -5  -7  -3    9.39    3.48
   5   7   4    6.58    2.62
   5   7   4    5.23    2.73
  -5  -7  -4    8.38    2.86
  -5  -7  -4    7.76    3.22
  -5  -7  -4    8.91    3.26
   5   7   5   21.93    5.19
  -5  -7  -5   22.93    4.82
  -5  -7  -5   28.27    5.82
  -5  -7  -5   24.37    5.56
   5   7   6   32.37    6.46
  -5  -7  -6   37.85    6.27
  -5  -7  -6   21.59    5.59
  -5  -7  -6   23.22    5.62
   5   7   7  134.75   13.34
  -5  -7  -7  140.65   12.55
  -5  -7  -7  135.62   12.96
  -5  -7  -7  118.56   12.93
   5   7   8    7.98    3.79
  -5  -7  -8    8.76    3.59
  -5  -7  -8   13.45    4.62
  -5  -7  -9    7.26    3.18
  -5  -7  -9    1.44    2.29
  -5  -8  14   -1.51    2.17
  -5  -8  14   -1.59    2.15
  -5  -8  14   -2.84    2.89
   5   8 -13    9.28    3.33
  -5  -8  13    6.64    3.43
  -5  -8  13   14.48    4.81
   5   8 -13   12.26    4.67
  -5  -8  13    1.20    1.92
   5   8 -12    1.21    1.42
  -5  -8  12    0.57    1.67
   5   8 -12   -0.77    2.11
  -5  -8  12    3.87    2.85
  -5  -8  12   -2.12    2.54
   5   8 -11    6.83    3.02
  -5  -8  11    7.17    3.37
   5   8 -11    4.38    2.59
  -5  -8  11    9.41    3.84
  -5  -8  11    8.94    3.70
  -5  -8  10   40.28    6.95
   5   8 -10   54.63    8.46
  -5  -8  10   46.80    8.12
  -5  -8  10   44.26    7.38
   5   8 -10   56.40    7.27
   5   8  -9    2.24    1.86
   5   8  -9    1.18    2.06
  -5  -8   9    0.58    1.85
  -5  -8   9    2.10    2.55
  -5  -8   9   -1.63    2.46
   5   8  -8   98.19   10.83
  -5  -8   8  102.80   11.86
  -5  -8   8  105.55   10.92
   5   8  -8  108.41    9.50
   5   8  -7    4.89    2.35
   5   8  -7    4.96    2.38
  -5  -8   7   11.05    3.50
  -5  -8   6   53.02    8.37
  -5  -8   6   53.80    7.74
   5   8  -6   52.37    7.55
   5   8  -6   51.92    6.24
  -5  -8   5   36.80    7.00
  -5  -8   5   39.29    6.48
   5   8  -5   37.60    6.40
   5   8  -5   41.25    5.49
   5   8  -4    2.03    1.06
  -5  -8   4    4.03    3.08
   5   8  -4    1.91    2.14
  -5  -8   4    1.03    1.91
   5   8  -3    3.49    1.91
   5   8  -3    2.48    2.36
  -5  -8   3    2.94    2.59
  -5  -8   3    2.61    2.50
  -5  -8   3    7.26    2.95
   5   8  -2   64.13    7.59
   5   8  -2   74.29    8.73
  -5  -8   2   67.84    9.34
  -5  -8   2   62.50    8.14
  -5  -8   2   71.07    8.26
   5   8  -1   51.77    6.81
   5   8  -1   45.08    7.00
  -5  -8   1   44.69    7.54
  -5  -8   1   48.61    7.21
  -5  -8   1   47.07    6.80
   5   8   0   54.32    6.86
   5   8   0   43.75    6.82
   5   8   0   39.73    6.11
  -5  -8   0   43.91    7.54
  -5  -8   0   48.25    7.20
  -5  -8   0   37.61    6.29
   5   8   1  109.17    9.31
   5   8   1  100.34    9.79
   5   8   1   79.37    9.05
  -5  -8  -1   86.52   10.60
  -5  -8  -1  112.00   10.87
  -5  -8  -1   95.88   10.28
   5   8   2   50.15    7.20
   5   8   2   39.28    6.44
  -5  -8  -2   27.84    6.19
  -5  -8  -2   44.21    6.90
  -5  -8  -2   40.26    6.93
   5   8   3   20.60    4.76
   5   8   3   15.53    4.26
  -5  -8  -3   11.45    3.87
  -5  -8  -3   27.62    5.92
   5   8   4   31.78    6.14
   5   8   4   23.67    5.11
  -5  -8  -4   21.82    5.67
  -5  -8  -4   31.25    6.48
   5   8   5  127.73   12.71
  -5  -8  -5  136.12   13.47
  -5  -8  -5  137.46   13.56
   5   8   6   91.97   11.01
  -5  -8  -6   77.41   10.72
   5   8   7   13.00    4.51
  -5  -8  -7   13.72    4.70
  -5  -8  -7   20.52    5.88
  -5  -9  13   23.43    6.44
  -5  -9  12   96.23   12.37
  -5  -9  12  109.33   12.42
   5   9 -11   71.92   10.24
  -5  -9  11   77.02   11.05
  -5  -9  11   59.54    9.11
   5   9 -11   68.08    8.40
   5   9 -10  107.53   12.26
  -5  -9  10  119.03   13.62
  -5  -9  10  113.47   12.45
   5   9 -10  121.68   11.09
   5   9  -9    3.25    2.21
   5   9  -9    5.59    2.81
  -5  -9   9   -1.17    2.59
  -5  -9   9    7.31    3.70
   5   9  -8  106.50   11.72
  -5  -9   8  118.41   13.48
  -5  -9   8   97.95   11.19
   5   9  -8  119.46   10.42
   5   9  -7   -0.88    1.36
   5   9  -7   -0.42    1.88
  -5  -9   7    3.20    3.12
  -5  -9   7   -0.45    2.21
   5   9  -6   -0.83    1.45
   5   9  -6    0.21    1.50
   5   9  -5  206.84   15.13
  -5  -9   5  210.65   17.32
  -5  -9   5  219.80   16.19
   5   9  -5  223.56   13.31
   5   9  -4   22.33    4.24
  -5  -9   4   30.66    6.82
   5   9  -4   27.13    5.23
  -5  -9   4   26.55    5.87
   5   9  -3  224.13   15.10
   5   9  -3  233.40   16.24
  -5  -9   3  235.06   18.13
  -5  -9   3  249.33   17.09
   5   9  -2   33.68    5.76
  -5  -9   2   38.28    7.58
  -5  -9   2   42.64    7.08
   5   9  -2   29.34    5.99
  -5  -9   2   33.86    6.20
   5   9  -1   29.24    5.27
  -5  -9   1   21.24    5.81
   5   9  -1   27.02    5.57
  -5  -9   1   24.81    5.58
  -5  -9   1   22.05    5.14
   5   9   0    2.13    2.19
  -5  -9   0    0.44    2.01
  -5  -9   0   -1.00    2.29
  -5  -9   0    0.86    1.73
  -5  -9  -1    5.92    2.80
  -5  -9  -1    6.19    3.12
   5   9   1   11.00    3.64
  -5  -9  -1    7.27    3.40
   5   9   2    0.62    1.83
  -5  -9  -2   -0.36    2.09
  -5  -9  -2    3.64    2.86
   5   9   3   21.49    5.14
   5   9   3   15.61    4.18
  -5  -9  -3   25.39    6.43
  -5  -9  -3   13.93    4.39
   5   9   4    6.70    3.00
   5   9   4    8.72    3.43
  -5  -9  -4    1.78    2.27
   5   9   5   13.27    4.26
  -5  -9  -5   16.51    5.41
  -5 -10  10    4.37    2.96
   5  10  -9    3.36    2.33
   5  10  -9    6.26    3.56
  -5 -10   9    5.94    3.81
   5  10  -8    5.64    2.95
   5  10  -8    4.27    2.51
  -5 -10   8    0.47    1.41
   5  10  -7   27.25    5.28
  -5 -10   7   14.39    5.01
  -5 -10   7   12.01    4.03
   5  10  -7   23.92    5.90
   5  10  -6   22.60    4.75
  -5 -10   6   34.71    7.63
  -5 -10   6   25.62    6.13
   5  10  -6   29.48    6.19
  -5 -10   5   -3.07    2.57
   5  10  -5   -1.28    2.42
  -5 -10   5    4.48    3.03
   5  10  -4   92.38   10.28
   5  10  -4   69.43    9.57
  -5 -10   4   83.88   11.57
  -5 -10   4   65.72    9.24
   5  10  -3   44.37    7.71
   5  10  -3   40.21    6.69
  -5 -10   3   37.14    7.87
  -5 -10   3   40.48    7.36
   5  10  -2   76.54    9.87
  -5 -10   2   85.72   11.68
  -5 -10   2  104.24   11.71
  -5 -10   2   91.77   10.75
   5  10  -1   10.67    3.92
  -5 -10   1   14.54    4.78
  -5 -10   1   16.45    4.91
  -5 -10   1   24.65    5.75
   5  10   0    3.16    2.20
  -5 -10   0    3.60    3.10
  -5 -10   0    3.30    2.67
  -5 -10   0   -0.82    2.00
  -5 -10  -1   17.66    5.55
  -5 -10  -1   22.16    5.67
   5  10   1    8.82    3.90
  -5 -10  -1   17.26    5.11
   5  10   2   10.33    3.81
  -5 -10  -2   13.25    4.43
  -5 -10  -3    9.76    4.16
   5  11  -5  139.98   13.38
   6 -12  -1   41.66    7.56
   6 -12   0   30.66    6.50
   6 -12   1    5.65    3.17
   6 -12   2   85.40   10.73
   6 -12   3   26.16    6.05
   6 -12   4   55.48    8.83
   6 -12   5    7.75    3.61
   6 -11  -5   -3.10    2.53
  -6  11   4   12.12    4.48
   6 -11  -4   17.98    5.13
   6 -11  -4   20.31    5.23
  -6  11   3    2.20    2.38
   6 -11  -3   11.56    3.90
  -6  11   2    0.26    2.43
   6 -11  -2    9.08    3.79
   6 -11  -1  154.77   13.17
   6 -11  -1  163.57   14.03
  -6  11   1  180.73   15.94
  -6  11   0    3.64    2.85
   6 -11   0    4.74    2.61
   6 -11   0    3.88    2.75
   6 -11   1  107.05   11.34
   6 -11   1  106.06   11.01
  -6  11  -1  117.42   12.71
   6 -11   2    7.58    3.20
  -6  11  -2   10.73    4.66
  -6  11  -2   14.37    4.62
   6 -11   2   19.50    4.85
  -6  11  -3  133.25   14.44
   6 -11   3  122.54   12.48
  -6  11  -3  113.09   12.44
  -6  11  -4    2.38    2.01
  -6  11  -4    0.99    1.87
   6 -11   4   -0.13    1.98
  -6  11  -5    0.83    2.40
   6 -11   5    3.21    1.79
  -6  11  -6   46.97    8.47
  -6  11  -6   45.93    8.10
   6 -11   6   40.20    7.65
  -6  11  -7    5.99    3.16
  -6  11  -7    7.84    3.50
   6 -11   7    6.17    3.55
  -6  11  -8    5.99    3.30
  -6  11  -9   -4.92    2.88
   6 -10  -8   16.00    5.15
  -6  10   7   48.11    8.55
   6 -10  -7   60.50    9.09
  -6  10   6   13.21    4.55
   6 -10  -6   15.17    4.89
  -6  10   5   10.13    4.15
   6 -10  -5    5.67    2.97
   6 -10  -5   13.38    4.13
   6 -10  -4  119.86   11.49
   6 -10  -4  102.97   11.19
  -6  10   4   88.59   11.01
   6 -10  -3    0.15    1.44
  -6  10   3   -0.33    1.37
   6 -10  -3    4.21    2.90
   6 -10  -3   -0.44    1.77
   6 -10  -2   31.44    5.71
  -6  10   2   27.69    6.19
   6 -10  -2   40.17    6.78
  -6  10   1   25.42    5.79
   6 -10  -1   28.33    5.63
   6 -10  -1   23.53    5.21
  -6  10   0    4.95    2.79
   6 -10   0    7.39    3.29
   6 -10   0    4.74    2.56
  -6  10  -1   27.92    6.11
   6 -10   1   22.47    5.03
   6 -10   1   22.24    4.83
  -6  10  -2    1.69    1.61
   6 -10   2    5.40    2.88
   6 -10   2    6.08    2.73
  -6  10  -3    2.66    1.82
  -6  10  -3    0.20    1.91
   6 -10   3    3.60    2.61
  -6  10  -4   42.81    7.69
  -6  10  -4   37.38    6.88
   6 -10   4   56.96    8.48
  -6  10  -5   -1.39    2.07
  -6  10  -5    0.02    1.59
   6 -10   5   -2.17    2.13
  -6  10  -6    6.12    2.99
   6 -10   6    5.18    3.12
  -6  10  -6   12.77    4.03
  -6  10  -7   18.27    5.13
  -6  10  -7   12.40    4.52
   6 -10   7   18.00    5.24
  -6  10  -8    8.12    3.27
  -6  10  -8    7.69    3.49
   6 -10   8    6.71    3.35
  -6  10  -9   55.59    8.47
  -6  10  -9   52.81    8.50
   6 -10   9   53.79    9.00
  -6  10 -10   26.26    5.70
   6 -10  10   26.32    5.80
   6 -10  11    8.41    5.63
  -6   9  10    8.17    3.21
   6  -9 -10    0.47    2.10
  -6   9   9   28.95    5.58
   6  -9  -9   26.88    6.20
   6  -9  -8   35.56    6.88
  -6   9   8   47.75    6.98
  -6   9   7   28.63    5.09
  -6   9   7   21.92    5.46
   6  -9  -7   34.47    6.80
   6  -9  -6   82.26    9.20
   6  -9  -6   74.62    9.51
  -6   9   6   74.40    9.82
  -6   9   6   86.84    8.49
   6  -9  -5    4.59    2.54
  -6   9   5    5.94    3.10
   6  -9  -5    3.22    2.27
   6  -9  -5    3.80    1.85
   6  -9  -4   38.69    6.07
  -6   9   4   36.40    6.78
   6  -9  -4   37.52    5.99
   6  -9  -4   51.49    7.49
  -6   9   3   46.76    7.56
   6  -9  -3   45.40    6.74
   6  -9  -3   50.44    6.98
   6  -9  -3   48.30    7.01
   6  -9  -2  161.15   12.42
   6  -9  -2  198.18   13.89
  -6   9   2  158.65   13.67
   6  -9  -1  104.10   10.17
   6  -9  -1  117.52   10.47
  -6   9   1  122.23   12.04
   6  -9   0   61.49    7.87
   6  -9   0   69.78    7.91
  -6   9   0   67.11    8.79
   6  -9   1  475.56   21.79
   6  -9   1  513.48   20.89
  -6   9  -1  479.12   23.26
  -6   9  -2   35.26    6.52
   6  -9   2   33.39    6.07
   6  -9   2   44.89    6.27
   6  -9   3  122.81   11.50
  -6   9  -3  113.62   11.31
  -6   9  -4   31.88    6.34
   6  -9   4   46.88    7.26
  -6   9  -4   40.63    6.83
  -6   9  -5    0.94    2.02
  -6   9  -5    6.83    3.11
   6  -9   5    5.12    3.05
  -6   9  -6   84.97   10.20
   6  -9   6  101.53   11.07
  -6   9  -6  105.92   10.01
  -6   9  -6  102.17   10.76
  -6   9  -7    5.94    2.78
  -6   9  -7    3.65    2.60
  -6   9  -7    4.48    2.63
   6  -9   7    3.54    1.97
   6  -9   7    8.39    2.93
  -6   9  -8  146.98   13.01
   6  -9   8  159.96   14.33
  -6   9  -8  150.04   12.77
   6  -9   8  141.49   11.59
  -6   9  -8  155.34   13.55
  -6   9  -9    3.90    2.69
  -6   9  -9    7.05    2.74
  -6   9  -9    6.66    3.27
   6  -9   9    4.67    3.01
   6  -9   9    6.16    2.69
  -6   9 -10   38.71    7.08
  -6   9 -10   45.89    7.73
   6  -9  10   38.83    7.52
   6  -9  10   41.31    6.82
  -6   9 -11    1.71    1.63
  -6   9 -11   -1.43    2.24
   6  -9  11    0.93    1.58
   6  -9  11    1.91    2.18
  -6   9 -12    9.07    3.61
   6  -9  12   16.23    4.56
  -6   8  11   32.90    6.41
   6  -8 -11   36.75    7.25
   6  -8 -10   96.33   11.47
  -6   8  10  104.68   10.57
  -6   8   9   19.07    4.71
   6  -8  -9   23.44    5.65
   6  -8  -8  120.47   12.06
  -6   8   8  113.23   10.21
  -6   8   7   11.34    3.33
   6  -8  -7   16.36    3.99
   6  -8  -7   15.08    4.26
  -6   8   6    6.49    2.58
   6  -8  -6    5.24    2.33
   6  -8  -6    2.79    1.93
   6  -8  -6    2.58    1.81
   6  -8  -5   69.93    7.85
   6  -8  -5   61.36    7.35
   6  -8  -5   69.07    8.29
  -6   8   5   66.65    8.85
  -6   8   5   80.86    7.70
   6  -8  -4  151.41   11.52
   6  -8  -4  172.98   11.81
   6  -8  -4  166.81   12.41
  -6   8   4  180.64   14.20
  -6   8   4  169.22   10.69
  -6   8   3   33.24    4.57
   6  -8  -3   26.44    4.81
  -6   8   3   32.15    6.05
   6  -8  -3   27.42    4.71
   6  -8  -3   22.99    4.59
   6  -8  -2   87.40    8.73
   6  -8  -2  107.10    9.48
  -6   8   2   93.62   10.07
  -6   8   2  100.11    7.67
   6  -8  -1    8.43    2.99
  -6   8   1   15.41    4.20
   6  -8  -1   11.77    3.19
  -6   8   0   48.34    7.31
   6  -8   0   44.64    6.37
   6  -8   0   43.49    5.16
   6  -8   0   44.79    5.82
  -6   8  -1   30.73    5.88
   6  -8   1   45.97    6.61
   6  -8   1   40.89    5.11
   6  -8   1   39.14    5.40
  -6   8  -2    9.33    3.09
  -6   8  -2    8.03    2.55
   6  -8   2    8.85    3.25
   6  -8   2    7.29    2.54
   6  -8   2    9.25    2.97
  -6   8  -3   50.25    6.21
   6  -8   3   50.49    6.22
  -6   8  -3   62.06    7.94
   6  -8   3   67.61    8.19
  -6   8  -4    6.34    2.93
  -6   8  -4    7.43    3.03
  -6   8  -4    5.54    2.24
   6  -8   4    6.61    2.78
   6  -8   4    6.67    2.71
  -6   8  -5   29.88    5.87
  -6   8  -5   32.74    5.85
  -6   8  -5   25.92    4.93
   6  -8   5   38.30    6.44
   6  -8   5   31.55    5.25
   6  -8   5   41.19    5.35
  -6   8  -6    2.15    2.12
  -6   8  -6    1.27    1.79
  -6   8  -6    4.42    2.49
   6  -8   6   -1.03    2.00
   6  -8   6    7.35    2.77
   6  -8   6    2.63    1.72
  -6   8  -7  100.40   10.20
   6  -8   7   87.58   10.16
  -6   8  -7   99.18   10.03
   6  -8   7   94.66    9.58
   6  -8   7  110.91    9.39
  -6   8  -7  102.43   10.43
  -6   8  -8    6.46    2.62
  -6   8  -8    3.38    2.69
  -6   8  -8    5.44    2.77
   6  -8   8    8.85    3.70
   6  -8   8    4.87    2.26
  -6   8  -9   61.76    7.79
   6  -8   9   65.74    9.21
  -6   8  -9   70.35    9.07
   6  -8   9   73.18    8.12
  -6   8  -9   73.37    9.12
  -6   8 -10   27.80    5.87
  -6   8 -10   19.46    4.80
   6  -8  10   18.79    4.95
   6  -8  10   18.58    4.46
  -6   8 -11    1.24    1.98
   6  -8  11    7.39    3.62
   6  -8  11    5.58    3.49
   6  -8  11    1.47    1.45
  -6   8 -11    1.36    2.16
  -6   8 -12    2.24    2.13
  -6   8 -12   -1.77    3.11
   6  -8  12    3.42    2.66
   6  -8  12    1.04    1.56
   6  -8  12    4.72    3.21
  -6   7  12    2.79    2.02
   6  -7 -12    0.58    1.73
  -6   7  11    0.09    1.40
   6  -7 -11    0.60    1.66
  -6   7  10    6.01    2.57
   6  -7 -10    4.65    2.90
  -6   7   9    1.51    1.72
   6  -7  -9    4.58    2.43
   6  -7  -9    1.91    1.50
  -6   7   8   -1.63    1.45
   6  -7  -8   -2.13    1.73
   6  -7  -8    2.82    2.41
  -6   7   7   25.07    4.51
   6  -7  -7   22.94    4.40
   6  -7  -7   26.53    5.13
   6  -7  -6    3.87    1.84
   6  -7  -6    4.93    2.25
  -6   7   6   11.22    3.14
   6  -7  -6    8.57    2.80
  -6   7   5    1.79    1.68
   6  -7  -5   -0.90    1.79
   6  -7  -5   -0.40    1.48
   6  -7  -5    1.06    1.57
  -6   7   4   11.71    2.90
   6  -7  -4    7.87    2.59
  -6   7   4   13.18    4.07
   6  -7  -4    5.61    2.29
   6  -7  -4    7.24    2.60
   6  -7  -3  159.31   11.19
   6  -7  -3  164.40   10.35
   6  -7  -3  158.52   10.90
  -6   7   3  166.34   12.61
  -6   7   3  166.34    9.97
  -6   7   2    0.17    0.90
  -6   7   2    0.24    0.97
   6  -7  -2    0.35    1.23
  -6   7   2   -0.53    2.05
   6  -7  -2    3.26    1.69
   6  -7  -1  246.55   14.03
  -6   7   1  261.59   12.43
   6  -7  -1  268.13   11.71
   6  -7  -1  278.61   13.64
  -6   7   1  236.92   14.91
  -6   7   1  273.88   12.00
   6  -7   0  131.67   10.32
  -6   7   0  116.36    8.45
   6  -7   0  119.79    8.18
   6  -7   0  133.68    9.27
  -6   7   0  133.90   11.16
  -6   7   0  117.70    7.58
   6  -7   1  207.64   11.12
  -6   7  -1  207.77   11.68
   6  -7   1  192.76   12.71
   6  -7   1  199.18   11.04
  -6   7  -1  191.18   13.08
  -6   7  -2   31.24    5.46
  -6   7  -2   23.49    4.14
   6  -7   2   25.87    4.76
   6  -7   2   28.75    4.32
   6  -7   2   23.74    3.83
  -6   7  -3    3.59    2.09
  -6   7  -3    1.10    1.46
   6  -7   3    6.43    2.77
   6  -7   3    2.88    1.79
   6  -7   3    0.64    1.16
   6  -7   4  493.31   21.20
  -6   7  -4  553.97   20.92
   6  -7   4  518.81   19.44
   6  -7   4  528.34   16.97
  -6   7  -4  491.47   20.84
  -6   7  -5   54.18    7.21
  -6   7  -5   47.84    6.40
   6  -7   5   47.00    6.84
   6  -7   5   58.17    6.89
   6  -7   5   50.62    5.48
  -6   7  -5   55.94    7.23
  -6   7  -6  190.89   13.19
   6  -7   6  185.05   13.57
   6  -7   6  213.53   13.27
  -6   7  -6  191.72   13.23
   6  -7   6  188.53   11.01
  -6   7  -6  193.64   13.35
  -6   7  -7   47.02    6.56
  -6   7  -7   35.27    5.81
   6  -7   7   36.40    6.16
  -6   7  -7   37.15    6.12
   6  -7   7   49.32    6.71
   6  -7   7   40.22    5.42
  -6   7  -8  163.84   11.86
   6  -7   8  149.87   12.89
  -6   7  -8  147.79   12.33
   6  -7   8  140.77   11.49
   6  -7   8  146.59   10.58
  -6   7  -8  163.74   12.51
   6  -7   9   73.06    9.20
  -6   7  -9   81.34    9.39
   6  -7   9   73.07    8.68
  -6   7  -9   77.34    8.81
   6  -7   9   68.18    7.57
  -6   7 -10   40.26    6.61
  -6   7 -10   47.58    7.74
   6  -7  10   41.09    7.17
   6  -7  10   44.65    8.28
   6  -7  10   47.26    7.21
   6  -7  10   47.84    6.62
   6  -7  11  144.39   13.57
  -6   7 -11  148.43   13.71
   6  -7  11  145.61   15.10
  -6   7 -11  156.68   13.11
   6  -7  11  128.63   11.29
  -6   7 -12    6.12    2.97
  -6   7 -12    5.45    3.40
   6  -7  12    9.42    4.07
   6  -7  12   11.38    4.78
   6  -7  12    5.13    2.66
   6  -7  13   92.43   11.47
  -6   7 -13   87.58   11.27
   6  -7  13  104.67   13.77
  -6   7 -13   92.84   10.70
   6  -7  13   85.71    9.88
  -6   6  13   -0.60    1.45
   6  -6 -13    8.16    4.04
  -6   6  12   60.11    8.03
   6  -6 -12   70.56    9.43
  -6   6  12   62.82    8.36
  -6   6  11   -0.03    1.54
  -6   6  11    0.67    1.79
   6  -6 -11   -1.11    1.56
   6  -6 -10  205.20   13.74
  -6   6  10  224.74   14.04
   6  -6 -10  214.04   15.31
  -6   6  10  203.25   13.74
  -6   6   9  116.26    9.68
   6  -6  -9  110.60    9.91
   6  -6  -9  101.99   10.26
  -6   6   9  112.89    9.92
  -6   6   8    3.52    1.84
   6  -6  -8    8.09    2.65
  -6   6   8   11.35    3.12
   6  -6  -8    5.59    2.57
   6  -6  -7  137.82   10.51
  -6   6   7  146.95    9.95
   6  -6  -7  122.52   10.24
  -6   6   7  140.68   10.21
   6  -6  -6  250.04   13.95
  -6   6   6  257.76   12.56
   6  -6  -6  218.46   11.75
   6  -6  -6  256.42   14.15
  -6   6   6  245.76   13.06
  -6   6   5  111.57    8.03
   6  -6  -5  124.80    9.76
  -6   6   5  119.05    8.19
   6  -6  -5  114.98    8.19
   6  -6  -5  126.34    9.61
  -6   6   5  112.69    8.49
   6  -6  -4  280.96   14.39
  -6   6   4  301.75   12.45
  -6   6   4  309.89   13.29
   6  -6  -4  313.86   12.97
   6  -6  -4  308.78   14.51
  -6   6   4  330.64   14.17
  -6   6   3  352.23   12.91
   6  -6  -3  336.85   15.73
   6  -6  -3  362.24   11.86
  -6   6   3  345.77   14.03
   6  -6  -3  366.04   13.77
   6  -6  -3  341.99   14.72
  -6   6   3  325.28   16.70
  -6   6   3  329.43   13.73
  -6   6   2   87.29    7.12
  -6   6   2   90.55    6.36
   6  -6  -2  100.82    6.58
   6  -6  -2   96.52    7.61
  -6   6   2   81.90    8.39
   6  -6  -2   89.41    8.09
  -6   6   2   96.05    7.24
  -6   6   1  126.84    8.79
  -6   6   1  119.79    7.10
   6  -6  -1  114.24    7.37
   6  -6  -1  115.65    8.12
  -6   6   1  109.28    9.62
  -6   6   1  114.22    7.65
   6  -6  -1  117.14    9.30
   6  -6   0  143.28   10.37
  -6   6   0  165.29   10.18
  -6   6   0  162.18    8.15
   6  -6   0  155.09    8.89
   6  -6   0  150.33    8.88
  -6   6   0  155.06   11.22
  -6   6   0  169.28    9.15
   6  -6   1  336.33   15.98
  -6   6  -1  353.11   11.91
   6  -6   1  355.89   13.94
  -6   6  -1  330.63   14.73
   6  -6   1  343.76   13.16
  -6   6  -1  349.02   16.64
  -6   6  -1  342.48   12.64
   6  -6   2  323.39   15.90
  -6   6  -2  335.29   15.23
  -6   6  -2  335.48   11.78
   6  -6   2  332.50   14.00
   6  -6   2  342.56   11.51
   6  -6   2  351.28   13.11
  -6   6  -2  342.65   16.40
  -6   6  -2  333.48   12.37
   6  -6   3  127.99   10.20
  -6   6  -3  120.70    9.43
   6  -6   3  121.86    8.72
   6  -6   3  117.88    7.04
  -6   6  -3  117.50    9.62
  -6   6  -4  510.13   19.79
   6  -6   4  502.11   20.55
   6  -6   4  490.32   18.00
   6  -6   4  534.76   15.74
  -6   6  -4  471.76   19.07
  -6   6  -5   92.24    8.70
   6  -6   5  107.43    9.75
   6  -6   5   99.62    8.53
  -6   6  -5  111.52    9.54
   6  -6   5  109.66    7.56
  -6   6  -5  114.60    9.59
  -6   6  -6  133.54   10.23
   6  -6   6  134.36   11.12
  -6   6  -6  147.77   11.27
   6  -6   6  135.97   10.24
   6  -6   6  142.97    9.07
  -6   6  -6  145.28   10.93
  -6   6  -7  229.94   13.18
   6  -6   7  211.20   14.21
  -6   6  -7  200.54   13.68
   6  -6   7  183.36   12.26
   6  -6   7  203.11   11.32
  -6   6  -7  199.05   13.02
  -6   6  -8   73.15    7.25
   6  -6   8   69.94    8.48
  -6   6  -8   64.92    8.10
   6  -6   8   67.19    7.79
   6  -6   8   66.21    6.87
  -6   6  -8   73.10    8.05
  -6   6  -9    2.58    1.76
  -6   6  -9    4.37    2.07
   6  -6   9    2.41    2.59
   6  -6   9   -0.83    2.40
   6  -6   9    2.50    2.13
   6  -6   9    3.17    1.52
  -6   6 -10   19.40    4.47
   6  -6  10   17.96    4.81
  -6   6 -10   13.63    4.30
   6  -6  10   20.93    5.74
   6  -6  10   21.33    4.69
   6  -6  10   27.35    4.82
  -6   6 -11   22.16    5.00
  -6   6 -11   14.47    4.60
   6  -6  11   20.66    5.23
   6  -6  11   17.77    5.36
   6  -6  11   13.97    4.08
   6  -6  11   14.76    3.92
  -6   6 -12    4.26    2.10
  -6   6 -12    7.17    4.30
   6  -6  12   10.89    4.41
   6  -6  12    3.54    1.74
   6  -6  12    9.94    3.49
   6  -6  12    6.02    3.25
  -6   6 -13    2.19    1.75
  -6   6 -13    3.16    2.26
   6  -6  13    1.36    2.12
   6  -6  13   -4.27    3.17
   6  -6  13    1.13    1.60
  -6   6 -14    5.28    3.02
   6  -6  14    2.11    2.08
  -6   5  15   66.64    9.44
  -6   5  14   13.72    4.39
  -6   5  14   10.66    3.81
   6  -5 -14    4.44    2.67
  -6   5  13   47.64    7.45
  -6   5  13   45.98    7.24
   6  -5 -13   44.78    7.53
   6  -5 -12   27.45    5.37
  -6   5  12   27.66    5.44
  -6   5  12   33.33    6.09
   6  -5 -12   28.26    5.84
  -6   5  11   24.52    4.92
   6  -5 -11   29.79    5.40
  -6   5  11   24.67    4.93
   6  -5 -11   23.58    5.08
  -6   5  10    0.54    1.26
   6  -5 -10    1.79    1.88
  -6   5  10    0.23    1.32
   6  -5 -10   -1.39    1.31
  -6   5   9   49.48    6.10
   6  -5  -9   69.36    7.64
  -6   5   9   60.64    7.04
   6  -5  -9   70.87    7.99
  -6   5   9   53.27    6.59
   6  -5  -8   66.27    7.38
  -6   5   8   55.41    6.27
  -6   5   8   70.37    7.20
   6  -5  -8   64.31    7.29
  -6   5   8   58.21    6.65
  -6   5   7    2.65    1.75
  -6   5   7    1.82    1.53
   6  -5  -7    2.03    1.54
  -6   5   7    2.69    1.87
   6  -5  -7    1.55    1.57
  -6   5   6  158.17    9.99
   6  -5  -6  148.52   10.45
  -6   5   6  162.45   10.06
   6  -5  -6  166.09    9.30
   6  -5  -6  147.30   10.06
  -6   5   6  145.49    9.71
  -6   5   5   26.39    4.07
  -6   5   5   26.94    4.16
   6  -5  -5   24.11    4.21
  -6   5   5   27.05    3.97
   6  -5  -5   30.55    4.45
   6  -5  -5   22.99    3.28
  -6   5   4   11.62    2.85
  -6   5   4    9.03    2.50
   6  -5  -4   14.92    3.52
  -6   5   4    8.69    2.43
   6  -5  -4   10.84    2.23
   6  -5  -4    5.54    1.82
   6  -5  -4    8.22    1.81
  -6   5   3    3.54    1.69
  -6   5   3    1.01    0.80
   6  -5  -3    4.94    2.07
  -6   5   3    3.25    1.53
   6  -5  -3    1.50    1.10
   6  -5  -3    2.07    1.10
  -6   5   2  311.05   13.48
   6  -5  -2  316.79   14.60
  -6   5   2  318.95   12.30
   6  -5  -2  325.49   11.65
   6  -5  -2  317.64   12.46
  -6   5   2  303.93   15.05
  -6   5   2  325.79   13.12
  -6   5   1   10.86    2.47
  -6   5   1   10.74    2.85
   6  -5  -1   11.38    2.88
  -6   5   1   14.99    3.42
  -6   5   1   15.36    2.78
   6  -5  -1   13.90    2.60
   6  -5  -1   12.56    2.43
  -6   5   0   24.43    3.48
  -6   5   0   17.43    3.40
  -6   5   0   17.88    3.80
   6  -5   0   15.04    3.40
  -6   5   0   17.91    2.99
   6  -5   0   23.11    3.22
   6  -5   0   16.80    2.96
  -6   5  -1  125.98    8.94
  -6   5  -1  130.85    7.71
   6  -5   1  148.81   10.22
   6  -5   1  125.04    7.98
   6  -5   1  140.56    6.23
   6  -5   1  139.75    7.44
  -6   5  -1  132.90    9.66
  -6   5  -1  128.72    7.86
  -6   5  -2  290.51   13.90
   6  -5   2  324.83   15.30
  -6   5  -2  306.66   11.98
   6  -5   2  303.61   12.82
   6  -5   2  309.67   10.08
  -6   5  -2  301.67   14.40
  -6   5  -2  287.92   11.67
  -6   5  -3    4.15    2.09
  -6   5  -3    8.47    2.77
   6  -5   3    8.02    2.58
  -6   5  -3    6.32    1.95
   6  -5   3    4.27    1.51
   6  -5   3    7.96    2.42
   6  -5   4   77.27    7.73
  -6   5  -4   73.02    6.14
  -6   5  -4   71.49    7.37
   6  -5   4   68.61    6.56
  -6   5  -4   60.61    6.54
  -6   5  -5  236.86   12.64
   6  -5   5  272.41   14.76
  -6   5  -5  290.66   15.28
  -6   5  -5  265.12   12.16
   6  -5   5  274.52   13.52
  -6   5  -5  284.71   14.14
  -6   5  -6  432.06   16.68
   6  -5   6  437.11   19.03
  -6   5  -6  462.87   16.72
  -6   5  -6  437.19   19.21
   6  -5   6  409.42   17.02
  -6   5  -6  420.88   17.48
  -6   5  -7  247.34   12.26
   6  -5   7  224.66   14.04
  -6   5  -7  239.46   14.65
  -6   5  -7  233.15   12.44
   6  -5   7  220.36   12.98
  -6   5  -7  241.13   13.43
  -6   5  -8   16.66    3.81
  -6   5  -8   14.64    3.91
   6  -5   8   23.32    4.82
  -6   5  -8   21.60    4.26
   6  -5   8   18.86    4.18
   6  -5   9  128.76   11.20
  -6   5  -9  133.92   11.84
   6  -5   9  114.90   12.19
  -6   5  -9  114.02    9.57
   6  -5   9  120.65   10.29
  -6   5  -9  125.17   10.17
  -6   5 -10   10.52    3.25
  -6   5 -10    9.46    3.69
   6  -5  10    9.97    3.47
   6  -5  10    9.80    4.08
  -6   5 -10   13.20    3.66
   6  -5  10    9.02    3.37
   6  -5  11  116.51   11.39
   6  -5  11  116.65   13.29
  -6   5 -11  133.75   11.36
   6  -5  11  148.55   12.47
  -6   5 -11  139.26   12.96
  -6   5 -11  142.54   11.51
  -6   5 -12   21.67    4.77
   6  -5  12   22.23    5.31
  -6   5 -12   19.27    5.26
   6  -5  12   17.19    5.72
   6  -5  12   12.79    3.86
   6  -5  13   70.33    9.35
  -6   5 -13   82.95   10.77
   6  -5  13   81.11   11.82
   6  -5  13   97.90   10.80
  -6   5 -13   90.53    9.84
  -6   5 -14   -0.99    1.85
  -6   5 -14    2.62    2.65
   6  -5  14    1.45    1.58
   6  -5  14   -4.78    3.29
  -6   4  15    0.96    2.00
  -6   4  15   -3.17    2.16
   6  -4 -15    3.41    2.24
   6  -4 -14   16.33    4.41
  -6   4  14   17.17    4.73
  -6   4  14   23.36    5.36
   6  -4 -14   13.55    4.18
  -6   4  13   44.04    6.93
   6  -4 -13   38.91    6.49
  -6   4  13   32.78    6.01
   6  -4 -13   41.16    6.81
   6  -4 -12   55.50    7.42
  -6   4  12   59.92    7.62
  -6   4  12   53.36    7.49
   6  -4 -12   56.48    7.69
  -6   4  12   69.53    8.36
  -6   4  11    2.04    1.26
  -6   4  11    3.34    1.97
  -6   4  11    5.93    2.63
   6  -4 -11    7.55    3.04
   6  -4 -11    5.26    2.54
  -6   4  10  106.32    9.31
   6  -4 -10   97.90    9.31
  -6   4  10  108.13    9.60
   6  -4 -10  109.43    9.72
  -6   4  10   89.04    8.72
  -6   4   9   14.51    3.50
   6  -4  -9   19.86    4.07
  -6   4   9   16.20    3.69
  -6   4   9   18.68    4.06
   6  -4  -9   19.27    3.95
  -6   4   8   70.64    7.16
   6  -4  -8   62.01    7.02
  -6   4   8   66.48    7.00
   6  -4  -8   75.03    7.24
  -6   4   8   74.77    7.33
  -6   4   7  129.27    9.33
   6  -4  -7  140.26   10.28
  -6   4   7  130.23    9.40
   6  -4  -7  120.67    8.85
  -6   4   7  122.94    9.04
  -6   4   6  301.76   13.95
   6  -4  -6  284.43   14.19
  -6   4   6  272.74   13.09
   6  -4  -6  289.71    9.63
   6  -4  -6  303.09   13.39
  -6   4   6  299.22   13.58
  -6   4   5  234.14   12.01
   6  -4  -5  243.97   12.87
  -6   4   5  247.62   12.03
   6  -4  -5  265.89    9.62
   6  -4  -5  233.09    8.85
   6  -4  -5  230.40   11.02
  -6   4   5  231.87   11.68
   6  -4  -4    1.50    1.12
  -6   4   4    2.80    1.65
  -6   4   4    3.98    1.79
   6  -4  -4    6.05    2.30
  -6   4   4    3.76    1.75
   6  -4  -4    2.82    1.01
   6  -4  -4    4.99    1.84
  -6   4   3  280.92   12.86
  -6   4   3  297.89   12.40
   6  -4  -3  292.09   13.66
   6  -4  -3  293.33   10.53
   6  -4  -3  311.17   11.53
  -6   4   3  305.64   12.70
  -6   4   2    0.78    1.26
   6  -4  -2   -0.67    0.98
  -6   4   2   -0.38    1.20
  -6   4   2    1.12    1.21
   6  -4  -2   -0.04    1.18
  -6   4   2    0.78    0.91
   6  -4  -2    0.22    0.64
   6  -4  -1   14.35    2.47
  -6   4   1   17.92    3.09
  -6   4   1    8.84    2.55
   6  -4  -1   16.13    3.42
  -6   4   1   11.54    2.72
  -6   4   1   15.50    2.88
   6  -4  -1   17.23    2.60
   6  -4   0  423.00   16.45
  -6   4   0  452.71   16.52
  -6   4   0  423.89   14.42
   6  -4   0  431.82   13.95
   6  -4   0  431.27   11.67
  -6   4   0  438.74   16.42
  -6   4   0  445.31   14.67
  -6   4  -1   19.67    3.17
  -6   4  -1   26.01    4.20
  -6   4  -1   14.68    3.07
   6  -4   1   23.58    4.01
  -6   4  -1   26.74    3.78
   6  -4   1   26.59    3.62
   6  -4   1   25.00    2.70
   6  -4   2  934.70   24.68
  -6   4  -2  926.96   21.59
   6  -4   2  903.48   21.39
  -6   4  -2  927.24   23.41
  -6   4  -2  906.09   21.01
  -6   4  -2  928.38   24.65
   6  -4   3   54.11    6.00
  -6   4  -3   52.44    5.35
  -6   4  -3   48.37    5.85
   6  -4   3   49.98    5.23
  -6   4  -3   52.43    5.68
   6  -4   4  179.54   11.23
  -6   4  -4  199.33   12.02
  -6   4  -4  182.27   10.03
   6  -4   4  164.68    9.82
  -6   4  -4  193.61   10.75
  -6   4  -5   17.56    3.39
  -6   4  -5   25.50    4.06
  -6   4  -5   26.14    4.69
   6  -4   5   31.42    5.08
  -6   4  -5   28.44    4.15
   6  -4   5   27.10    4.23
  -6   4  -6  168.93    9.27
   6  -4   6  162.97   11.12
  -6   4  -6  164.61   11.71
  -6   4  -6  153.77   10.01
   6  -4   6  154.09   10.28
  -6   4  -6  174.77   10.63
  -6   4  -7   21.86    3.91
  -6   4  -7   24.34    4.85
   6  -4   7   20.89    4.14
  -6   4  -7   22.62    4.01
   6  -4   7   22.58    4.14
  -6   4  -8  125.34   10.89
   6  -4   8  134.06   10.76
  -6   4  -8  129.19   10.12
   6  -4   8  139.09   10.51
  -6   4  -8  131.37    9.67
   6  -4   9  193.41   11.97
   6  -4   9  172.37   12.43
   6  -4   9  188.70   15.40
  -6   4  -9  202.37   14.29
  -6   4  -9  192.99   12.81
   6  -4   9  200.32   13.04
  -6   4  -9  192.50   12.05
   6  -4  10   64.63    7.93
  -6   4 -10   72.73    9.03
  -6   4 -10   70.46    8.07
   6  -4  10   66.75    7.90
   6  -4  10   58.68    9.03
  -6   4 -10   71.18    7.60
   6  -4  11   65.47    8.28
  -6   4 -11   77.84    9.66
   6  -4  11   75.78   10.35
  -6   4 -11   72.18    8.70
   6  -4  11   73.35    8.58
  -6   4 -11   73.80    8.03
  -6   4 -12   24.74    4.85
  -6   4 -12   33.62    6.78
   6  -4  12   31.97    6.04
  -6   4 -12   29.67    5.95
   6  -4  12   23.69    5.22
   6  -4  12   24.43    6.26
  -6   4 -13    5.31    2.34
   6  -4  13   -0.23    1.35
  -6   4 -13   -2.32    3.15
   6  -4  13    2.91    2.48
   6  -4  13   -1.05    1.78
  -6   4 -14    3.10    2.15
  -6   4 -14    7.36    3.96
   6  -4  14    3.83    2.27
  -6   4 -15   20.87    5.09
  -6   3  16    3.22    3.10
   6  -3 -16    3.44    2.53
   6  -3 -15  107.29   11.00
  -6   3  15  111.15   12.03
  -6   3  15  108.66   11.66
   6  -3 -15  107.81   11.31
  -6   3  15  108.17   11.33
  -6   3  14   15.46    4.31
  -6   3  14   16.32    4.76
   6  -3 -14   18.27    4.63
  -6   3  14   18.67    4.85
   6  -3 -14   25.60    5.43
  -6   3  13   33.93    5.96
  -6   3  13   42.12    6.83
   6  -3 -13   43.60    6.75
  -6   3  13   39.14    6.59
   6  -3 -13   46.43    6.92
  -6   3  12   -3.84    2.34
   6  -3 -12    0.63    1.40
  -6   3  12   -0.63    2.01
   6  -3 -12   -0.51    2.05
  -6   3  11   11.26    3.42
  -6   3  11    8.94    3.05
   6  -3 -11   14.96    3.64
  -6   3  11    6.25    2.61
   6  -3 -11    7.87    2.66
  -6   3  10  391.54   18.26
   6  -3 -10  380.93   17.95
  -6   3  10  379.32   17.85
   6  -3 -10  431.94   17.99
  -6   3  10  416.40   18.24
  -6   3   9   39.51    5.58
  -6   3   9   37.63    5.52
   6  -3  -9   41.71    5.91
  -6   3   9   37.80    5.51
   6  -3  -9   41.83    5.37
  -6   3   8  419.10   17.61
   6  -3  -8  405.67   17.55
  -6   3   8  419.93   17.24
   6  -3  -8  439.33   16.50
  -6   3   8  446.04   17.56
  -6   3   7  285.26   14.05
   6  -3  -7  306.40   14.82
  -6   3   7  281.86   13.75
   6  -3  -7  285.14   12.59
   6  -3  -7  287.05   10.12
  -6   3   7  292.24   13.67
   6  -3  -6  387.10   16.21
  -6   3   6  385.39   15.83
  -6   3   6  388.20   15.53
   6  -3  -6  420.50   14.56
   6  -3  -6  388.49   11.93
  -6   3   6  389.24   15.37
  -6   3   5   24.74    3.91
  -6   3   5   15.93    3.29
   6  -3  -5   35.15    4.84
  -6   3   5   25.41    3.97
   6  -3  -5   26.04    3.51
   6  -3  -5   25.22    3.15
  -6   3   4   64.89    6.30
   6  -3  -4   70.34    6.70
  -6   3   4   60.54    5.81
   6  -3  -4   63.60    5.04
   6  -3  -4   63.01    5.02
  -6   3   4   66.57    6.08
  -6   3   3  244.48   12.04
   6  -3  -3  243.39   12.14
  -6   3   3  245.51   11.51
   6  -3  -3  232.69    8.89
   6  -3  -3  231.29    9.55
  -6   3   3  250.85   11.48
  -6   3   2   20.90    3.26
   6  -3  -2   16.40    2.73
  -6   3   2   25.00    3.95
   6  -3  -2   20.69    3.58
  -6   3   2   16.21    3.27
  -6   3   2   20.64    3.39
   6  -3  -2   25.35    2.78
  -6   3   1  206.73   11.04
   6  -3  -1  228.06   11.56
  -6   3   1  223.11   10.64
   6  -3  -1  216.53    9.49
   6  -3  -1  221.22    7.41
  -6   3   1  214.06   10.73
  -6   3   1  231.63   10.73
   6  -3   0  134.98    8.88
  -6   3   0  110.00    7.60
   6  -3   0  107.11    6.93
   6  -3   0  117.31    4.87
  -6   3   0  106.94    7.58
  -6   3   0  107.98    7.30
  -6   3   0  126.87    8.73
  -6   3  -1   78.59    7.06
  -6   3  -1   90.37    6.96
   6  -3   1   84.37    7.08
   6  -3   1   77.09    6.00
  -6   3  -1   83.04    6.58
  -6   3  -1   85.48    6.59
   6  -3   2    0.12    0.98
  -6   3  -2    0.33    0.86
  -6   3  -2    2.75    1.55
   6  -3   2    1.83    1.48
  -6   3  -2    0.94    1.22
   6  -3   3    0.20    1.16
  -6   3  -3    0.42    0.96
  -6   3  -3    3.00    1.87
   6  -3   3    1.70    1.49
  -6   3  -3   -0.08    1.11
  -6   3  -4    1.43    1.32
  -6   3  -4    0.58    1.38
   6  -3   4   -2.46    1.48
  -6   3  -4    2.15    1.52
   6  -3   4    0.38    1.21
  -6   3  -5  275.72   10.77
   6  -3   5  272.01   13.42
  -6   3  -5  271.72   14.42
  -6   3  -5  272.96   13.17
   6  -3   5  278.86   12.94
  -6   3  -5  247.84   11.54
   6  -3   6  278.48   13.90
  -6   3  -6  285.51   15.18
  -6   3  -6  269.85   13.65
   6  -3   6  271.38   13.31
  -6   3  -6  286.30   12.70
  -6   3  -7    3.98    1.72
   6  -3   7    4.21    2.25
  -6   3  -7    6.55    2.77
  -6   3  -7    5.03    2.19
   6  -3   7    1.50    1.68
  -6   3  -8   26.44    4.16
  -6   3  -8    9.94    3.13
   6  -3   8   18.79    3.90
  -6   3  -8   17.80    4.00
   6  -3   8   25.77    4.55
   6  -3   9   70.65    7.70
   6  -3   9   68.68    7.56
  -6   3  -9   66.65    8.17
  -6   3  -9   75.51    8.30
   6  -3   9   77.99    7.97
  -6   3  -9   75.25    7.27
  -6   3 -10   21.35    4.06
  -6   3 -10   21.68    5.06
   6  -3  10   22.20    4.50
   6  -3  10   16.11    4.69
   6  -3  10   18.35    4.17
  -6   3 -10   22.53    4.78
   6  -3  10   23.87    4.76
   6  -3  11  132.05   11.08
   6  -3  11  105.32    9.93
  -6   3 -11  124.17   12.01
   6  -3  11  118.73   13.08
  -6   3 -11  112.57   11.04
   6  -3  11  113.21   10.46
  -6   3 -11  134.44   10.45
  -6   3 -12   22.57    4.66
  -6   3 -12   17.95    4.70
   6  -3  12   18.50    5.43
  -6   3 -12   18.82    4.92
   6  -3  12   20.42    4.79
   6  -3  12   19.41    4.45
  -6   3 -13    4.05    1.94
  -6   3 -13   -0.85    2.40
   6  -3  13    0.99    2.67
  -6   3 -13   -2.33    2.24
   6  -3  13    5.13    3.00
  -6   3 -14    1.69    1.95
  -6   3 -14    2.15    2.17
   6  -3  14   -2.02    2.39
   6  -3  14   -5.52    2.77
  -6   2  17   11.28    4.45
  -6   2  16    4.59    2.63
  -6   2  16    6.35    2.23
  -6   2  16   -0.37    2.41
   6  -2 -16    0.60    2.02
  -6   2  15    6.42    3.43
  -6   2  15    4.30    2.74
  -6   2  15    4.90    2.59
   6  -2 -15   -0.02    1.60
  -6   2  14    5.78    2.81
  -6   2  14    3.37    2.12
  -6   2  14    0.66    2.16
   6  -2 -14    4.75    2.44
  -6   2  13  119.21   11.51
  -6   2  13  129.60   11.87
   6  -2 -13  137.11   11.13
  -6   2  13  111.73   10.47
  -6   2  12   12.87    4.00
  -6   2  12   21.04    4.48
  -6   2  12   12.99    3.58
   6  -2 -12   15.37    3.49
  -6   2  11   93.56    9.29
  -6   2  11   76.81    8.36
   6  -2 -11   88.13    8.08
  -6   2  11   89.82    8.77
  -6   2  10  132.56   10.75
  -6   2  10  136.59   10.79
   6  -2 -10  136.53    9.48
  -6   2  10  139.02   10.39
   6  -2  -9   82.32    6.07
  -6   2   9   86.51    8.35
  -6   2   9   83.19    8.04
   6  -2  -9   84.43    7.11
  -6   2   9   91.06    8.19
   6  -2  -8  138.97    7.72
  -6   2   8  118.60    9.48
  -6   2   8  137.89    9.92
   6  -2  -8  152.90    9.07
  -6   2   8  142.39    9.81
   6  -2  -7  172.96    8.59
  -6   2   7  192.23   11.60
   6  -2  -7  196.34   11.66
  -6   2   7  183.64   11.11
   6  -2  -7  199.72    9.77
  -6   2   7  174.92   10.48
  -6   2   6   -0.40    1.57
   6  -2  -6   -0.06    1.37
  -6   2   6    0.01    1.03
   6  -2  -6   -0.55    0.84
   6  -2  -6    0.86    0.91
  -6   2   6   -1.47    1.58
   6  -2  -5  486.87   17.44
  -6   2   5  496.89   17.24
  -6   2   5  510.34   17.93
   6  -2  -5  514.22   13.67
  -6   2   5  489.46   16.51
   6  -2  -5  503.92   14.51
   6  -2  -4   37.43    4.80
  -6   2   4   33.03    4.25
  -6   2   4   36.15    4.78
  -6   2   4   27.07    3.95
   6  -2  -4   32.65    3.22
   6  -2  -4   26.77    3.44
  -6   2   3   28.15    4.00
  -6   2   3   21.91    3.70
   6  -2  -3   28.82    4.19
  -6   2   3   29.25    4.17
   6  -2  -3   29.46    2.78
   6  -2  -3   23.62    3.19
  -6   2   2  313.82   13.55
   6  -2  -2  326.57   13.48
  -6   2   2  310.31   12.91
   6  -2  -2  309.12    7.84
   6  -2  -2  313.68   11.46
  -6   2   2  294.60   12.29
   6  -2  -1  117.58    8.05
  -6   2   1  111.58    7.77
  -6   2   1  103.72    7.80
   6  -2  -1  112.72    3.95
   6  -2  -1  105.22    6.80
  -6   2   1  101.66    6.78
  -6   2   1  108.17    7.46
   6  -2   0 1252.16   26.08
  -6   2   0 1272.34   27.47
  -6   2   0 1276.74   26.26
   6  -2   0 1295.14   24.01
  -6   2   0 1236.55   23.23
  -6   2   0 1281.52   25.52
   6  -2   1  124.62    8.26
  -6   2  -1  125.92    8.90
  -6   2  -1  124.96    8.33
   6  -2   1  118.68    7.46
  -6   2  -1  117.76    7.05
  -6   2  -1  119.86    7.97
  -6   2  -2  509.15   18.14
   6  -2   2  476.93   16.10
  -6   2  -2  487.69   11.56
  -6   2  -2  492.80   16.72
   6  -2   2  474.09   15.29
  -6   2  -2  468.18   13.86
   6  -2   3   50.05    5.33
  -6   2  -3   58.06    5.94
  -6   2  -3   52.83    3.55
   6  -2   3   43.85    4.85
  -6   2  -3   48.76    4.62
  -6   2  -3   50.27    5.94
   6  -2   4  360.34   14.51
  -6   2  -4  380.04   16.44
  -6   2  -4  391.69   15.63
   6  -2   4  383.62   14.52
  -6   2  -4  382.16   12.89
   6  -2   5  496.45   17.35
  -6   2  -5  444.39   18.30
  -6   2  -5  476.54   17.91
   6  -2   5  443.24   16.19
  -6   2  -5  454.33   14.38
   6  -2   6  230.31   12.14
  -6   2  -6  232.51   13.71
  -6   2  -6  221.91   12.66
   6  -2   6  257.77   12.72
  -6   2  -6  256.23   11.30
   6  -2   7  626.95   20.62
  -6   2  -7  640.41   23.26
  -6   2  -7  642.49   22.36
   6  -2   7  692.76   21.56
  -6   2  -8    0.02    0.97
  -6   2  -8    0.68    1.84
   6  -2   8    1.22    1.26
  -6   2  -8    2.48    1.94
   6  -2   8    2.52    1.76
   6  -2   9  250.28   14.99
   6  -2   9  284.54   14.68
  -6   2  -9  263.44   16.04
  -6   2  -9  265.10   15.66
   6  -2   9  262.39   14.38
  -6   2  -9  270.48   13.04
  -6   2 -10    3.63    1.58
  -6   2 -10    1.23    2.17
   6  -2  10    3.60    1.99
   6  -2  10   -1.27    1.93
  -6   2 -10    1.52    1.34
   6  -2  10    3.39    1.85
   6  -2  11  138.89   11.94
  -6   2 -11  126.10   12.11
  -6   2 -11  145.34   12.70
   6  -2  11  153.69   11.90
  -6   2 -11  166.19   11.20
  -6   2 -12   40.38    5.94
  -6   2 -12   43.36    7.49
   6  -2  12   40.70    6.69
  -6   2 -12   51.04    8.15
   6  -2  12   39.41    7.91
   6  -2  12   41.30    6.47
  -6   2 -13    1.68    2.26
   6  -2  13   -0.17    1.62
   6  -2  13    0.73    2.94
  -6   2 -13    2.65    2.36
   6  -2  13    1.56    1.74
  -6   2 -14   29.21    6.40
   6  -2  14   33.85    8.06
   6  -2  14   40.46    6.91
  -6   1  17   32.11    7.20
  -6   1  16   13.41    4.11
  -6   1  16   19.27    5.70
  -6   1  16   16.16    4.93
   6  -1 -16   12.04    3.79
  -6   1  15    4.27    2.58
  -6   1  15   -2.39    3.08
  -6   1  15    1.96    2.10
   6  -1 -15    4.08    2.15
  -6   1  14   11.38    3.61
  -6   1  14    7.61    3.26
  -6   1  14    7.79    3.03
   6  -1 -14    5.61    2.43
  -6   1  13   -0.17    1.95
  -6   1  13    1.13    2.09
   6  -1 -13    0.91    1.13
  -6   1  12  159.31   12.84
  -6   1  12  157.36   12.52
   6  -1 -12  165.92   11.15
  -6   1  12  156.97   11.69
  -6   1  11    1.63    1.79
  -6   1  11   -0.16    1.65
  -6   1  11    5.59    2.65
   6  -1 -11    5.13    1.99
   6  -1 -10  204.46   10.40
  -6   1  10  193.92   13.12
  -6   1  10  182.36   12.37
   6  -1 -10  209.23   11.19
  -6   1  10  187.92   11.80
   6  -1  -9  219.94   10.72
  -6   1   9  210.07   13.10
  -6   1   9  202.28   12.61
   6  -1  -9  222.28   10.82
  -6   1   9  219.68   12.33
   6  -1  -8  215.47   10.48
  -6   1   8  258.11   14.06
  -6   1   8  233.29   13.06
   6  -1  -8  234.28   10.45
  -6   1   8  227.86   12.16
   6  -1  -7   -0.14    1.23
  -6   1   7    0.68    1.23
  -6   1   7   -0.47    1.27
  -6   1   7    0.16    1.26
   6  -1  -7    0.31    0.81
  -6   1   6   -0.07    1.13
  -6   1   6   -0.50    1.33
  -6   1   6    0.93    1.52
   6  -1  -6    0.82    0.96
   6  -1  -6    0.01    0.91
   6  -1  -5  419.90   14.00
  -6   1   5  435.00   16.76
   6  -1  -5  462.13   16.80
  -6   1   5  440.42   16.51
   6  -1  -5  425.95   11.39
  -6   1   5  411.58   15.15
   6  -1  -4  566.46   16.18
  -6   1   4  542.41   18.37
   6  -1  -4  572.73   18.23
  -6   1   4  560.90   18.17
   6  -1  -4  583.77   11.97
  -6   1   4  576.45   17.62
  -6   1   3 1079.89   25.52
   6  -1  -3 1116.59   24.73
  -6   1   3 1089.71   24.95
   6  -1  -3 1087.54   14.28
  -6   1   3 1086.02   23.91
   6  -1  -3 1092.79   22.30
  -6   1   2    1.68    1.29
  -6   1   2    1.71    1.37
   6  -1  -2    3.33    1.72
  -6   1   2    1.22    1.27
   6  -1  -2    0.27    1.06
   6  -1  -2    2.89    0.61
  -6   1   1  418.22   15.73
   6  -1  -1  393.94   14.23
  -6   1   1  395.73   14.88
  -6   1   1  387.92   11.82
  -6   1   1  384.92   14.26
   6  -1  -1  428.36   13.97
  -6   1   0   27.83    3.96
  -6   1   0   34.72    4.65
  -6   1   0   26.17    3.93
   6  -1   0   35.89    4.31
  -6   1   0   30.04    3.28
   6  -1   0   31.58    3.85
  -6   1  -1  351.41   14.71
   6  -1   1  364.37   13.49
  -6   1  -1  355.70   14.40
  -6   1  -1  357.84   10.80
   6  -1   1  365.03   13.25
  -6   1  -2   -0.22    0.84
   6  -1   2    1.21    0.84
  -6   1  -2    0.06    1.06
   6  -1   2   -0.49    1.34
  -6   1  -2    0.59    0.68
  -6   1  -2    0.98    1.28
   6  -1   3   23.60    3.62
  -6   1  -3   24.49    4.11
   6  -1   3   24.97    3.63
  -6   1  -3   25.95    2.93
  -6   1  -3   22.79    4.02
  -6   1  -3   22.59    2.80
  -6   1  -4  562.16   19.33
  -6   1  -4  574.82   20.11
  -6   1  -4  562.67   12.88
  -6   1  -4  587.38   14.49
   6  -1   4  575.33   17.79
   6  -1   4  549.91   17.07
   6  -1   5   60.13    5.74
  -6   1  -5   56.29    6.55
  -6   1  -5   63.72    6.74
  -6   1  -5   55.80    4.69
   6  -1   5   65.84    6.20
  -6   1  -6   15.30    2.68
  -6   1  -6   15.16    3.64
   6  -1   6   14.32    2.97
  -6   1  -6   16.29    3.64
   6  -1   6    8.42    2.34
  -6   1  -7   11.04    2.35
  -6   1  -7    9.92    2.90
  -6   1  -7   20.98    4.35
   6  -1   7   15.76    3.18
   6  -1   7   22.23    3.89
   6  -1   8   47.48    5.50
  -6   1  -8   33.48    5.55
  -6   1  -8   43.77    6.29
  -6   1  -8   45.28    4.90
   6  -1   8   37.37    5.22
  -6   1  -9   16.95    3.28
  -6   1  -9    9.03    3.14
   6  -1   9   12.23    3.47
  -6   1  -9   14.54    4.07
   6  -1   9   13.49    3.32
   6  -1  10   76.97    8.98
  -6   1 -10   93.83   10.04
  -6   1 -10   68.78    8.58
   6  -1  10   71.66    7.73
   6  -1  11   70.25    9.00
  -6   1 -11   85.03   10.06
  -6   1 -11   92.44   10.41
   6  -1  11   79.43    8.35
  -6   1 -12   16.33    4.92
   6  -1  12   16.25    4.59
  -6   1 -12   17.20    4.84
   6  -1  12   20.59    4.45
  -6   1 -13   19.42    5.19
   6  -1  13   13.93    4.25
  -6   1 -13   21.48    5.71
   6  -1  13   23.83    5.07
   6  -1  14    0.71    2.15
  -6   1 -14    7.01    3.53
  -6   0  17   39.57    7.78
  -6   0  17   29.73    6.11
   6   0 -17   43.69    7.26
  -6   0  16   49.49    8.47
  -6   0  16   66.40    9.61
   6   0 -16   50.96    7.33
  -6   0  16   59.29    8.36
  -6   0  15   56.07    9.04
  -6   0  15   79.49   10.25
   6   0 -15   58.75    7.60
  -6   0  15   59.20    8.27
  -6   0  14    2.24    2.22
  -6   0  14    3.55    2.78
  -6   0  14   -0.82    1.72
   6   0 -14    2.19    1.54
  -6   0  13  128.53   12.21
  -6   0  13  126.47   11.65
   6   0 -13  139.46   10.45
  -6   0  13  128.01   10.75
  -6   0  12   41.88    6.65
  -6   0  12   35.73    5.60
  -6   0  12   29.41    5.60
   6   0 -12   46.40    5.75
  -6   0  11    0.52    1.63
  -6   0  11    5.09    2.88
   6   0 -11    3.13    1.80
  -6   0  11    1.50    1.55
   6   0 -11    0.01    1.31
  -6   0  10    4.18    2.55
  -6   0  10    5.78    2.29
   6   0 -10    6.35    2.24
  -6   0  10    4.74    2.27
   6   0 -10    7.24    2.16
  -6   0   9    4.82    2.29
  -6   0   9    3.43    2.03
   6   0  -9    6.43    2.15
  -6   0   9    6.43    2.56
   6   0  -9    6.87    1.99
   6   0  -8   47.91    5.29
  -6   0   8   44.79    6.16
  -6   0   8   51.75    6.22
   6   0  -8   48.73    4.56
  -6   0   8   45.04    5.46
   6   0  -7   28.58    4.04
  -6   0   7   30.04    4.85
  -6   0   7   24.02    4.16
  -6   0   7   29.41    2.89
   6   0  -7   33.94    3.64
  -6   0   7   35.74    4.80
   6   0  -6  376.70   14.25
  -6   0   6  412.24   16.90
  -6   0   6  407.82   16.39
  -6   0   6  410.35   10.35
   6   0  -6  426.07   11.49
  -6   0   6  404.99   15.27
   6   0  -5  458.69   15.45
  -6   0   5  472.02   17.74
  -6   0   5  490.00   17.64
  -6   0   5  458.57   10.75
   6   0  -5  480.25   11.02
  -6   0   5  497.29   16.62
  -6   0   4    2.85    2.00
   6   0  -4    1.50    1.31
  -6   0   4    1.76    1.48
  -6   0   4    1.80    1.36
  -6   0   4    3.57    1.07
   6   0  -4    2.63    0.80
   6   0  -4    0.22    1.05
   6   0  -3  217.29   10.39
   6   0  -3  212.49   10.64
  -6   0   3  207.01   11.33
  -6   0   3  226.82   11.69
  -6   0   3  227.04    7.73
   6   0  -3  220.39    5.56
  -6   0   3  231.40   11.26
   6   0  -2  137.66    3.42
  -6   0   2  126.40    8.78
   6   0  -2  130.47    8.08
  -6   0   2  134.82    8.93
  -6   0   2  124.69    8.19
  -6   0   2  120.07    6.11
   6   0  -2  127.14    7.94
  -6   0   1    7.02    2.25
  -6   0   1    4.21    1.97
  -6   0   1    5.16    1.34
   6   0  -1    4.39    1.70
  -6   0   1    3.65    1.55
   6   0  -1    2.97    1.58
  -6   0   0  192.06   10.79
   6   0   0  166.09    8.95
  -6   0   0  188.00   10.67
  -6   0   0  171.47    5.21
  -6   0   0  177.27    6.51
   6   0   0  178.84    9.46
  -6   0  -1   99.36    7.92
   6   0   1  111.40    7.18
  -6   0  -1  109.66    8.31
  -6   0  -1  114.40    5.15
  -6   0  -1  111.10    5.01
   6   0   1   97.01    7.06
  -6   0  -2   13.28    1.78
  -6   0  -2   16.32    3.40
   6   0   2   19.05    3.28
   6   0   2   13.38    2.53
  -6   0  -2   15.16    3.29
  -6   0  -3  138.55    9.60
  -6   0  -3  148.32   10.02
  -6   0  -3  153.25    6.16
   6   0   3  135.91    8.60
   6   0   3  144.30    8.21
   6   0   4   88.53    6.53
  -6   0  -4   82.28    7.70
  -6   0  -4   90.91    8.01
  -6   0  -4   90.20    5.00
   6   0   4   83.22    6.88
  -6   0  -5    0.04    0.55
   6   0   5   -0.66    0.93
  -6   0  -5   -0.19    1.19
   6   0   5    0.04    1.03
  -6   0  -5   -0.75    1.21
   6   0   6   17.87    3.60
  -6   0  -6   13.18    3.40
   6   0   6   13.00    2.77
  -6   0  -7    3.98    2.21
   6   0   7    0.13    0.79
  -6   0  -7    4.22    2.21
   6   0   7    2.74    1.69
  -6   0  -8   22.02    4.79
  -6   0  -8   11.29    3.24
   6   0   8   19.29    3.79
   6   0   9   73.69    8.90
  -6   0  -9   62.57    7.87
  -6   0  -9   76.63    8.91
   6   0   9   73.10    7.45
  -6   0 -10   36.23    6.34
   6   0  10   26.60    5.74
  -6   0 -10   31.84    5.93
   6   0  10   35.20    5.44
  -6   0 -11   43.84    7.29
   6   0  11   58.10    8.46
  -6   0 -11   59.44    8.58
   6   0  11   58.95    7.14
  -6   0 -12    3.70    1.90
   6   0  12    9.13    3.76
  -6   0 -12    5.20    3.50
   6   0  12    9.54    3.23
  -6   0 -13   21.44    5.48
   6   0  13   28.42    6.29
  -6   0 -13   26.15    6.38
  -6   0 -14    4.29    2.99
   6   0  14    1.91    2.36
  -6  -1  17   41.66    6.95
  -6  -1  17   39.74    8.06
   6   1 -17   33.15    6.07
  -6  -1  16   44.38    6.94
  -6  -1  16   64.95   10.08
   6   1 -16   38.76    6.88
  -6  -1  16   49.50    8.40
   6   1 -16   52.53    7.37
  -6  -1  15   -1.72    2.30
  -6  -1  15   -0.30    1.20
  -6  -1  15    0.30    2.11
   6   1 -15    4.30    2.73
   6   1 -15   -0.71    1.77
  -6  -1  14   43.83    6.57
  -6  -1  14   53.42    8.56
  -6  -1  14   51.24    7.91
   6   1 -14   45.74    6.94
  -6  -1  13    2.17    1.68
  -6  -1  13    2.27    2.04
  -6  -1  13   -0.09    1.84
   6   1 -13   -1.61    1.94
   6   1 -12  125.24    9.80
  -6  -1  12  113.53   11.18
   6   1 -12  117.18    9.93
  -6  -1  12   97.51    9.91
  -6  -1  12  112.19    9.48
  -6  -1  11  340.96   18.50
   6   1 -11  366.90   16.51
   6   1 -11  349.20   16.23
  -6  -1  11  335.42   17.70
  -6  -1  11  348.70   16.22
   6   1 -10  213.59   12.34
  -6  -1  10  229.51   14.72
   6   1 -10  232.19   12.56
  -6  -1  10  224.94   13.98
  -6  -1  10  210.44   12.14
   6   1  -9   51.15    5.93
  -6  -1   9   43.67    6.31
  -6  -1   9   44.30    6.05
  -6  -1   9   47.66    5.70
  -6  -1   8   13.72    3.17
  -6  -1   8   15.12    3.67
   6   1  -8   15.03    3.30
  -6  -1   8   19.23    3.99
  -6  -1   8   13.32    2.42
   6   1  -7  394.21   15.67
  -6  -1   7  421.78   17.94
  -6  -1   7  390.24   16.74
  -6  -1   7  406.93   12.48
  -6  -1   7  414.08   15.78
  -6  -1   6    2.64    1.69
  -6  -1   6   -0.36    1.34
  -6  -1   6    3.34    1.91
  -6  -1   6    2.34    1.09
   6   1  -6    4.54    2.11
   6   1  -5 1135.70   25.54
  -6  -1   5 1137.21   27.29
  -6  -1   5 1162.53   20.23
  -6  -1   5 1134.49   27.83
  -6  -1   5 1139.07   25.37
   6   1  -4  418.60   15.37
  -6  -1   4  409.66   16.29
  -6  -1   4  397.40   15.98
  -6  -1   4  422.01   12.17
  -6  -1   4  398.85   15.10
   6   1  -3  186.67   10.20
  -6  -1   3  166.95   10.35
   6   1  -3  201.54   10.22
  -6  -1   3  196.69   11.13
  -6  -1   3  202.60    8.45
  -6  -1   3  205.90   10.85
   6   1  -2  350.20   13.83
   6   1  -2  340.87    8.51
  -6  -1   2  330.54   14.21
   6   1  -2  341.42   12.95
  -6  -1   2  347.08   14.66
  -6  -1   2  355.57   11.45
  -6  -1   2  342.93    8.42
  -6  -1   2  338.58   13.98
   6   1  -1  246.57   11.45
   6   1  -1  259.92    7.11
   6   1  -1  241.10   10.57
  -6  -1   1  231.14   11.25
  -6  -1   1  238.39   12.28
  -6  -1   1  253.46   12.47
  -6  -1   1  245.52    6.13
  -6  -1   1  249.82    6.07
   6   1   0   22.55    3.27
  -6  -1   0   16.32    3.26
   6   1   0   24.85    2.21
  -6  -1   0   26.67    3.90
  -6  -1   0   24.60    4.09
   6   1   0   16.93    2.97
  -6  -1   0   22.40    2.33
  -6  -1  -1    5.76    2.21
   6   1   1    7.65    1.92
   6   1   1    6.75    2.08
  -6  -1  -1    6.94    2.08
  -6  -1  -1    9.69    2.64
  -6  -1  -1    6.02    1.46
  -6  -1  -2  202.95   11.76
  -6  -1  -2  192.99   10.17
  -6  -1  -2  216.65   11.83
  -6  -1  -2  218.32    8.97
   6   1   2  212.25    9.50
   6   1   2  219.75   10.99
   6   1   3   32.57    3.72
  -6  -1  -3   28.62    4.45
  -6  -1  -3   38.37    4.60
  -6  -1  -3   36.31    5.14
  -6  -1  -3   33.68    3.86
   6   1   3   35.19    4.53
   6   1   4  132.30    7.49
  -6  -1  -4  132.66    9.74
  -6  -1  -4  123.24    9.53
  -6  -1  -4  122.44    8.00
  -6  -1  -4  132.32    8.22
   6   1   4  127.06    8.55
   6   1   5   49.39    4.64
  -6  -1  -5   38.65    5.51
  -6  -1  -5   53.65    6.64
  -6  -1  -5   50.87    5.14
  -6  -1  -5   46.99    5.39
   6   1   5   56.45    5.90
  -6  -1  -6  471.55   19.31
  -6  -1  -6  428.90   19.16
  -6  -1  -6  448.36   14.94
   6   1   6  472.91   17.19
   6   1   7    5.28    2.22
  -6  -1  -7    1.43    1.77
  -6  -1  -7    0.10    1.39
  -6  -1  -8   26.89    4.95
   6   1   8   28.07    5.59
  -6  -1  -8   36.85    6.07
   6   1   8   35.14    5.00
   6   1   9  206.49   15.25
  -6  -1  -9  214.47   14.39
  -6  -1  -9  220.17   15.33
   6   1   9  215.62   12.60
  -6  -1 -10    0.28    1.75
   6   1  10    1.59    1.73
  -6  -1 -10    3.95    2.26
   6   1  10    4.34    1.98
   6   1  11   99.09   11.33
  -6  -1 -11   83.71    9.80
  -6  -1 -11   93.50   10.95
   6   1  11   92.23    8.76
  -6  -1 -12   27.51    5.93
   6   1  12   25.88    6.24
  -6  -1 -12   23.39    5.77
  -6  -1 -13   49.50    8.02
   6   1  13   60.51    9.32
  -6  -1 -13   59.76    9.61
  -6  -1 -13   82.74   10.93
  -6  -1 -14   18.84    5.25
   6   2 -17    5.78    3.07
   6   2 -17    9.51    3.65
  -6  -2  16    1.87    2.04
  -6  -2  16   10.39    4.83
  -6  -2  16    3.72    2.62
   6   2 -16    6.49    3.23
  -6  -2  15  199.74   16.93
   6   2 -15  210.03   15.09
  -6  -2  15  200.40   16.21
  -6  -2  15  205.08   14.12
  -6  -2  14  167.24   14.96
   6   2 -14  177.52   13.12
   6   2 -14  159.72   12.49
  -6  -2  14  157.67   13.78
  -6  -2  14  150.07   11.79
  -6  -2  13  181.21   14.96
   6   2 -13  166.80   12.45
   6   2 -13  170.07   12.32
  -6  -2  13  163.08   13.46
  -6  -2  13  180.85   12.51
   6   2 -12   16.17    4.00
  -6  -2  12   14.29    4.10
  -6  -2  12   12.23    3.24
  -6  -2  12   14.01    3.80
   6   2 -12   11.29    3.22
  -6  -2  11   39.57    5.54
  -6  -2  11   33.56    5.93
  -6  -2  11   30.53    5.55
   6   2 -11   32.08    4.84
   6   2 -11   31.23    5.25
  -6  -2  10   11.45    2.93
  -6  -2  10    9.82    3.56
  -6  -2  10    9.06    3.11
  -6  -2  10   10.61    2.52
   6   2 -10   12.22    3.24
   6   2 -10    9.31    2.58
   6   2 -10   10.99    2.89
  -6  -2   9    1.76    1.45
  -6  -2   9   -0.05    1.53
  -6  -2   9   -0.24    1.46
  -6  -2   9    2.13    1.25
   6   2  -9    0.71    1.26
   6   2  -9   -3.80    1.65
   6   2  -9    0.73    1.21
   6   2  -8   28.05    3.99
  -6  -2   8   19.76    3.62
  -6  -2   8   24.66    4.77
  -6  -2   8   21.03    4.25
   6   2  -8   27.17    4.58
  -6  -2   8   22.19    3.38
   6   2  -8   16.95    3.04
   6   2  -7  636.54   20.95
  -6  -2   7  641.61   22.31
  -6  -2   7  658.03   22.08
  -6  -2   7  654.17   17.63
  -6  -2   7  633.18   19.70
   6   2  -7  659.41   18.29
   6   2  -6    0.30    0.90
  -6  -2   6   -0.82    1.16
  -6  -2   6    0.50    1.26
   6   2  -6   -0.34    1.24
  -6  -2   6   -0.69    1.45
  -6  -2   6    0.50    0.95
   6   2  -5  105.34    8.18
  -6  -2   5   91.58    8.01
  -6  -2   5   91.53    7.89
  -6  -2   5   92.79    6.53
  -6  -2   5   95.83    7.54
   6   2  -5   93.59    6.33
   6   2  -4    1.42    1.02
  -6  -2   4    1.34    1.37
   6   2  -4    0.64    1.21
  -6  -2   4   -0.07    1.03
  -6  -2   4   -0.01    1.13
  -6  -2   4   -0.08    0.74
   6   2  -3    1.63    1.17
  -6  -2   3    5.26    2.18
  -6  -2   3    1.36    1.12
  -6  -2   3    1.69    1.84
  -6  -2   3    0.89    1.25
   6   2  -3    0.43    0.74
   6   2  -2  104.87    7.92
   6   2  -2  112.42    7.39
  -6  -2   2  103.42    8.11
  -6  -2   2  109.62    8.48
  -6  -2   2   98.11    7.86
  -6  -2   2  109.55    7.07
   6   2  -1  125.33    8.55
   6   2  -1  130.69    6.35
  -6  -2   1  110.52    8.33
   6   2  -1  118.50    7.32
  -6  -2   1  108.14    8.33
  -6  -2   1  119.97    8.92
  -6  -2   1  117.82    7.53
  -6  -2   1  116.20    5.49
   6   2   0   15.65    2.22
  -6  -2   0    6.91    2.39
   6   2   0    8.12    2.00
  -6  -2   0    6.09    2.31
  -6  -2   0    8.87    2.78
   6   2   0   12.86    2.83
  -6  -2   0   13.54    2.22
   6   2   1   29.26    3.05
   6   2   1   23.79    3.15
  -6  -2  -1   20.69    3.80
  -6  -2  -1   24.47    4.30
  -6  -2  -1   26.33    4.28
   6   2   1   27.76    4.09
  -6  -2  -1   27.60    3.35
  -6  -2  -2  293.76   13.82
  -6  -2  -2  278.06   14.17
  -6  -2  -2  290.12   13.55
  -6  -2  -2  319.26   11.99
   6   2   2  295.50   10.60
   6   2   2  293.79   12.97
  -6  -2  -3    5.88    2.63
   6   2   3    9.39    1.96
   6   2   3   11.09    2.70
  -6  -2  -3   13.27    3.25
  -6  -2  -3    8.08    2.62
  -6  -2  -3   16.21    2.96
  -6  -2  -4   56.87    6.39
  -6  -2  -4   65.47    7.37
  -6  -2  -4   58.65    6.26
  -6  -2  -4   53.63    5.61
   6   2   4   74.78    6.71
  -6  -2  -5  265.90   14.07
  -6  -2  -5  312.96   16.23
  -6  -2  -5  277.67   13.14
  -6  -2  -5  275.22   13.47
   6   2   5  280.13   13.10
   6   2   6    1.79    1.41
  -6  -2  -6   -0.26    1.49
  -6  -2  -6   -0.14    1.22
  -6  -2  -6   -0.47    1.02
  -6  -2  -6    0.51    1.21
  -6  -2  -7  288.70   15.49
  -6  -2  -7  273.59   16.21
  -6  -2  -7  300.37   15.91
   6   2   7  296.89   14.07
   6   2   8   78.63    9.47
  -6  -2  -8   67.21    7.73
  -6  -2  -8   85.31    9.40
  -6  -2  -8   71.39    8.22
   6   2   8   75.25    7.31
  -6  -2  -9    3.47    2.29
   6   2   9    2.76    2.61
  -6  -2  -9   -0.06    1.81
  -6  -2  -9    2.66    2.48
   6   2   9   -0.20    1.34
  -6  -2 -10   55.07    7.56
   6   2  10   47.99    7.98
  -6  -2 -10   54.48    8.12
   6   2  10   63.13    7.01
  -6  -2 -10   65.74    8.86
  -6  -2 -11    0.73    2.03
   6   2  11    2.12    1.62
  -6  -2 -11    3.28    2.72
  -6  -2 -11    6.05    3.08
   6   2  12   63.30    9.63
  -6  -2 -12   67.68    9.85
  -6  -2 -12   75.99   10.47
  -6  -2 -13   37.86    7.59
   6   3 -17   92.10   10.81
  -6  -3  16   14.66    5.10
  -6  -3  16   27.46    6.40
   6   3 -16   22.28    5.34
   6   3 -15   15.22    4.48
  -6  -3  15   11.34    4.14
  -6  -3  15   10.83    3.94
   6   3 -15   11.95    3.79
  -6  -3  14  148.40   14.28
   6   3 -14  129.80   11.75
   6   3 -14  135.98   11.40
  -6  -3  14  144.66   13.28
  -6  -3  14  143.25   11.35
   6   3 -13   16.60    4.26
  -6  -3  13   22.56    4.46
  -6  -3  13   21.19    5.31
  -6  -3  13   29.30    5.79
   6   3 -13   25.16    4.89
   6   3 -13   22.73    4.55
   6   3 -12    2.04    1.56
   6   3 -12    3.66    2.16
  -6  -3  12    3.01    1.87
  -6  -3  12    1.13    1.97
  -6  -3  12    6.85    3.34
   6   3 -12    2.39    1.67
   6   3 -11   17.20    3.67
   6   3 -11    9.27    3.18
  -6  -3  11   13.89    3.30
  -6  -3  11   14.99    4.29
  -6  -3  11   15.58    3.96
  -6  -3  11   14.58    3.23
   6   3 -11   15.37    3.23
   6   3 -10   77.47    8.32
   6   3 -10   79.51    7.05
  -6  -3  10   74.20    8.22
  -6  -3  10   66.64    8.29
  -6  -3  10   77.56    7.06
  -6  -3  10   78.09    7.47
   6   3 -10   76.17    7.14
   6   3  -9    4.92    2.03
  -6  -3   9    0.75    1.80
  -6  -3   9    1.02    1.21
  -6  -3   9    3.16    1.56
  -6  -3   9    7.11    2.22
   6   3  -9    2.68    1.56
   6   3  -9    2.89    1.63
   6   3  -8    5.67    2.13
  -6  -3   8    6.87    2.22
  -6  -3   8    3.16    2.17
  -6  -3   8    6.72    2.74
  -6  -3   8    7.71    2.44
   6   3  -8    7.15    2.58
   6   3  -8    5.49    1.75
   6   3  -7  254.81   13.82
  -6  -3   7  265.16   14.66
   6   3  -7  268.34   10.45
  -6  -3   7  279.59   14.54
  -6  -3   7  277.37   12.59
  -6  -3   7  245.25   12.51
   6   3  -7  276.17   11.95
   6   3  -6    0.93    1.16
  -6  -3   6    0.14    1.10
  -6  -3   6   -0.70    1.28
  -6  -3   6   -0.97    1.32
   6   3  -6    0.78    1.45
  -6  -3   6   -1.16    1.15
   6   3  -5    8.71    2.10
  -6  -3   5    6.81    2.16
   6   3  -5    8.89    2.82
  -6  -3   5    4.05    1.82
  -6  -3   5    9.74    2.37
  -6  -3   5    9.37    2.94
   6   3  -4   62.07    6.60
  -6  -3   4   73.23    7.55
  -6  -3   4   75.18    7.30
  -6  -3   4   69.68    6.20
  -6  -3   4   62.36    6.64
  -6  -3   4   57.35    6.12
   6   3  -4   65.69    5.11
   6   3  -3    5.45    1.63
   6   3  -3    8.01    2.37
  -6  -3   3    4.46    2.18
  -6  -3   3    2.76    2.08
  -6  -3   3    7.93    2.65
  -6  -3   3    7.41    2.28
   6   3  -2    0.03    0.72
   6   3  -2    2.21    1.57
  -6  -3   2   -0.28    1.22
  -6  -3   2    0.59    1.22
  -6  -3   2   -0.58    1.65
  -6  -3   2   -0.34    1.13
  -6  -3   2   -0.45    0.70
   6   3  -1   46.84    5.45
  -6  -3   1   51.25    5.74
   6   3  -1   40.42    4.28
  -6  -3   1   49.93    5.96
  -6  -3   1   38.98    5.44
   6   3  -1   47.98    4.51
  -6  -3   1   42.90    4.96
  -6  -3   1   52.32    4.38
   6   3  -1   49.11    3.73
   6   3   0  511.57   17.84
   6   3   0  503.68   14.44
   6   3   0  497.67   14.20
  -6  -3   0  474.87   17.42
  -6  -3   0  482.81   18.88
  -6  -3   0  508.18   18.96
  -6  -3   0  515.93   17.28
  -6  -3   0  518.94   14.65
   6   3   0  517.08   10.98
   6   3   1   32.69    3.77
  -6  -3  -1   25.94    4.21
   6   3   1   32.70    3.56
  -6  -3  -1   34.02    5.15
  -6  -3  -1   27.72    4.80
  -6  -3  -1   37.21    4.29
   6   3   1   35.83    4.72
   6   3   2  690.94   17.34
  -6  -3  -2  643.51   20.61
  -6  -3  -2  633.70   21.99
  -6  -3  -2  628.23   21.43
  -6  -3  -2  659.97   18.97
   6   3   2  612.62   19.41
  -6  -3  -3    4.25    2.20
   6   3   3   15.59    3.42
  -6  -3  -3   13.31    3.62
  -6  -3  -3   11.15    3.24
  -6  -3  -3    9.51    2.70
  -6  -3  -4  218.75   12.40
  -6  -3  -4  230.29   13.89
  -6  -3  -4  193.06   12.00
  -6  -3  -4  223.21   12.32
   6   3   4  226.43   11.93
   6   3   5    1.06    1.26
  -6  -3  -5    3.03    2.04
  -6  -3  -5   -2.48    1.67
  -6  -3  -5    0.68    1.17
  -6  -3  -5    2.45    1.61
  -6  -3  -6   22.74    4.41
  -6  -3  -6   34.46    5.92
  -6  -3  -6   38.51    5.43
  -6  -3  -6   41.11    5.91
   6   3   6   37.44    5.08
   6   3   7    5.67    2.08
  -6  -3  -7    4.83    2.38
   6   3   7    7.36    3.20
  -6  -3  -7   10.91    3.48
  -6  -3  -7    5.49    2.43
  -6  -3  -7    6.81    2.62
   6   3   8   13.47    3.26
  -6  -3  -8   12.57    3.64
   6   3   8   11.80    3.87
  -6  -3  -8   14.56    4.17
  -6  -3  -8   11.28    3.64
  -6  -3  -9   21.78    4.59
   6   3   9   30.68    6.47
  -6  -3  -9   20.82    5.27
   6   3  10    2.45    2.05
  -6  -3 -10    4.21    2.12
  -6  -3 -10    7.38    3.32
   6   3  11   92.71   11.71
  -6  -3 -11   82.60   10.78
  -6  -3 -11   89.74   11.25
   6   3  12   16.33    5.41
  -6  -3 -12   14.92    4.85
  -6  -3 -12   11.52    4.62
  -6  -4  16  153.22   15.77
   6   4 -16  145.29   13.67
   6   4 -16  144.27   12.77
  -6  -4  16  163.10   15.24
   6   4 -15    3.80    2.32
  -6  -4  15    3.54    2.14
  -6  -4  15    4.56    2.40
   6   4 -15    4.05    2.29
   6   4 -15    3.66    2.35
   6   4 -14   37.38    6.25
   6   4 -14   32.43    6.27
  -6  -4  14   38.42    7.56
  -6  -4  14   46.48    7.78
   6   4 -14   40.86    6.36
   6   4 -13    5.43    2.41
   6   4 -13    1.44    1.72
  -6  -4  13   10.28    3.95
  -6  -4  13    7.67    3.33
   6   4 -13    3.86    2.08
   6   4 -12   78.03    9.06
  -6  -4  12   51.19    8.19
   6   4 -12   61.43    6.96
  -6  -4  12   62.05    8.21
  -6  -4  12   59.08    7.00
  -6  -4  12   59.76    6.93
   6   4 -12   69.18    7.60
   6   4 -11   15.86    3.62
   6   4 -11   12.93    3.79
  -6  -4  11   13.51    3.40
  -6  -4  11   13.62    4.26
  -6  -4  11   13.25    3.93
  -6  -4  11   11.27    3.16
   6   4 -11   16.86    3.51
  -6  -4  10  143.21   12.25
   6   4 -10  130.62   11.20
  -6  -4  10  153.70   11.88
  -6  -4  10  144.75   10.37
  -6  -4  10  169.76   11.11
   6   4 -10  151.02   10.33
  -6  -4   9  166.63   12.69
   6   4  -9  156.08   11.82
  -6  -4   9  152.03   11.55
  -6  -4   9  157.29   10.64
  -6  -4   9  177.13   11.05
   6   4  -9  163.14   10.30
   6   4  -8  106.43    9.59
  -6  -4   8   90.65    9.17
  -6  -4   8  106.73    9.41
  -6  -4   8  105.74    8.55
  -6  -4   8   97.37    8.17
   6   4  -8  116.66    8.38
   6   4  -7  116.26    9.86
  -6  -4   7  127.43   10.36
  -6  -4   7  135.59   10.38
  -6  -4   7  127.18    9.22
  -6  -4   7  134.62    9.54
   6   4  -7  138.41    8.78
  -6  -4   6  101.28    8.98
   6   4  -6  110.15    9.38
  -6  -4   6   92.05    9.26
  -6  -4   6  114.35    9.42
  -6  -4   6  112.48    8.68
  -6  -4   6  124.69    9.13
   6   4  -6  111.54    7.61
   6   4  -5  210.94   12.76
  -6  -4   5  216.03   12.72
  -6  -4   5  215.84   13.88
  -6  -4   5  221.09   12.83
  -6  -4   5  222.63   11.99
   6   4  -5  231.20   10.50
   6   4  -4  164.44   11.16
  -6  -4   4  155.22   10.53
  -6  -4   4  162.15   11.96
  -6  -4   4  155.87   10.69
  -6  -4   4  158.44   10.03
   6   4  -4  167.51    8.50
   6   4  -3  577.99   20.45
  -6  -4   3  542.05   19.34
  -6  -4   3  599.94   22.70
  -6  -4   3  541.48   19.82
  -6  -4   3  605.75   19.70
   6   4  -3  600.90   15.27
   6   4  -2  185.21   11.35
  -6  -4   2  161.24   10.38
  -6  -4   2  165.52   11.92
  -6  -4   2  189.66   11.84
  -6  -4   2  183.48   10.85
  -6  -4   2  181.99    8.94
   6   4  -2  177.02    7.89
   6   4  -1  314.85   14.62
   6   4  -1  311.73   12.94
  -6  -4   1  273.70   13.36
   6   4  -1  307.79   11.47
  -6  -4   1  288.40   15.62
  -6  -4   1  308.99   15.06
  -6  -4   1  327.69   14.64
  -6  -4   1  306.73   12.21
   6   4  -1  327.36   10.04
   6   4   0  391.38   16.21
   6   4   0  406.50   14.67
  -6  -4   0  395.13   15.94
  -6  -4   0  412.34   17.68
  -6  -4   0  366.12   17.57
  -6  -4   0  400.21   16.36
  -6  -4   0  423.29   15.02
  -6  -4  -1    0.47    1.09
   6   4   1    0.34    1.00
  -6  -4  -1    0.72    1.34
  -6  -4  -1   -0.47    1.41
   6   4   1    0.27    1.06
  -6  -4  -1    1.72    1.47
   6   4   2  258.45   11.91
  -6  -4  -2  253.41   12.85
  -6  -4  -2  221.01   13.48
  -6  -4  -2  238.70   14.16
  -6  -4  -2  246.68   12.70
   6   4   2  254.68   12.96
   6   4   3   12.62    2.71
  -6  -4  -3    6.83    2.51
   6   4   3   12.53    3.05
  -6  -4  -3   15.68    3.79
  -6  -4  -3   15.45    3.97
  -6  -4  -3   13.53    3.24
  -6  -4  -4   56.67    6.33
  -6  -4  -4   66.17    7.69
  -6  -4  -4   62.69    7.35
  -6  -4  -4   58.14    6.83
   6   4   4   70.35    6.83
  -6  -4  -5   42.67    5.70
  -6  -4  -5   52.08    6.81
  -6  -4  -5   43.80    6.59
  -6  -4  -5   39.03    5.92
   6   4   5   52.63    5.94
   6   4   6  129.01   12.11
  -6  -4  -6  116.78   10.89
  -6  -4  -6  123.34   10.32
  -6  -4  -6  113.98   10.49
   6   4   6  126.09    9.32
   6   4   7   -2.14    1.50
   6   4   7   -0.93    1.72
  -6  -4  -7    0.63    1.68
  -6  -4  -7   -2.30    2.06
  -6  -4  -7   -0.86    1.85
   6   4   8    3.14    2.45
  -6  -4  -8    0.39    1.49
  -6  -4  -8    4.03    2.71
   6   4   9   12.42    4.53
  -6  -4  -9   14.57    4.51
  -6  -4  -9   18.86    5.13
   6   4  10   13.77    4.83
  -6  -4 -10    8.32    3.57
  -6  -4 -10    6.84    3.51
   6   4  11   21.68    5.96
  -6  -4 -11   28.05    6.68
  -6  -4 -11   32.44    7.25
   6   5 -16    9.66    4.00
  -6  -5  16   10.69    3.66
   6   5 -15    7.68    3.07
   6   5 -15    0.22    1.91
  -6  -5  15    0.24    2.90
  -6  -5  15    3.83    2.34
   6   5 -14   45.52    7.81
  -6  -5  14   44.56    8.23
  -6  -5  14   43.48    7.56
   6   5 -14   50.77    7.17
  -6  -5  13  110.37   12.28
   6   5 -13   97.32   10.73
  -6  -5  13   87.66   10.16
  -6  -5  13   94.86    9.64
   6   5 -13   96.25    9.47
   6   5 -12   56.69    8.27
  -6  -5  12   53.08    8.35
  -6  -5  12   55.92    7.84
  -6  -5  12   59.39    7.59
   6   5 -12   53.75    6.87
   6   5 -11   59.00    8.04
  -6  -5  11   52.99    7.99
  -6  -5  11   56.90    7.71
  -6  -5  11   54.63    7.10
   6   5 -11   59.54    7.02
   6   5 -10   31.75    5.00
   6   5 -10   26.93    5.32
  -6  -5  10   17.44    4.75
  -6  -5  10   28.29    5.94
  -6  -5  10   22.86    4.88
  -6  -5  10   18.80    4.15
   6   5  -9   47.77    6.96
  -6  -5   9   49.28    7.18
  -6  -5   9   50.63    6.81
  -6  -5   9   46.36    7.34
  -6  -5   9   48.22    6.44
  -6  -5   9   53.44    6.26
   6   5  -9   53.87    6.23
   6   5  -8   59.99    7.59
  -6  -5   8   56.46    7.38
  -6  -5   8   55.03    7.83
  -6  -5   8   57.05    7.01
  -6  -5   8   53.77    6.61
  -6  -5   8   64.86    6.82
   6   5  -8   69.62    6.73
   6   5  -7    1.26    0.98
  -6  -5   7    0.03    1.58
  -6  -5   7    0.68    1.81
  -6  -5   7    0.61    1.35
  -6  -5   7   -0.41    0.92
   6   5  -7   -0.80    1.48
   6   5  -6   64.44    7.66
  -6  -5   6   53.89    6.85
  -6  -5   6   59.59    7.89
  -6  -5   6   72.95    7.74
  -6  -5   6   56.88    6.74
   6   5  -6   69.77    6.27
   6   5  -5   96.62    9.05
  -6  -5   5   77.19    7.79
  -6  -5   5   89.54    9.65
  -6  -5   5  106.76    9.26
  -6  -5   5   91.16    8.38
   6   5  -5  102.94    7.35
   6   5  -4  132.30   10.35
  -6  -5   4  138.43   10.21
  -6  -5   4  121.42   11.18
  -6  -5   4  130.28   10.17
  -6  -5   4  126.32    9.83
   6   5  -4  134.30    8.01
   6   5  -3   67.30    7.36
  -6  -5   3   62.55    6.70
  -6  -5   3   69.91    8.42
  -6  -5   3   68.98    7.36
  -6  -5   3   82.17    7.96
   6   5  -3   75.78    5.74
   6   5  -2   78.80    7.79
   6   5  -2   69.18    6.84
  -6  -5   2   70.51    7.03
  -6  -5   2   58.09    7.71
  -6  -5   2   56.84    6.75
  -6  -5   2   73.61    7.49
  -6  -5   2   79.64    6.64
   6   5  -2   71.57    5.29
   6   5  -1   18.37    3.80
   6   5  -1   19.24    3.68
  -6  -5   1    8.23    2.77
  -6  -5   1   24.01    4.45
  -6  -5   1   15.79    4.41
  -6  -5   1   20.82    4.11
  -6  -5   1   16.97    3.38
   6   5   0   49.84    6.12
   6   5   0   71.11    6.76
  -6  -5   0   50.23    5.75
  -6  -5   0   63.17    7.22
  -6  -5   0   51.35    7.14
  -6  -5   0   46.74    6.11
  -6  -5   0   52.67    5.94
   6   5   1   54.98    6.35
   6   5   1   51.93    5.89
  -6  -5  -1   54.90    5.95
  -6  -5  -1   48.11    6.37
  -6  -5  -1   47.34    6.78
  -6  -5  -1   72.28    7.64
  -6  -5  -1   60.19    6.55
  -6  -5  -2  254.90   12.93
   6   5   2  245.48   12.69
  -6  -5  -2  253.26   14.74
  -6  -5  -2  234.40   15.10
  -6  -5  -2  255.59   14.02
   6   5   2  253.20   13.43
   6   5   3    3.86    1.78
   6   5   3    7.87    2.56
  -6  -5  -3    8.85    3.01
  -6  -5  -3    2.86    2.18
  -6  -5  -3    4.90    2.38
   6   5   4   14.33    3.27
  -6  -5  -4   13.48    3.69
  -6  -5  -4    8.71    3.37
  -6  -5  -4   11.29    3.34
   6   5   5   41.68    7.09
  -6  -5  -5   56.54    7.51
  -6  -5  -5   46.38    6.98
  -6  -5  -5   52.30    7.27
   6   5   5   65.16    6.86
   6   5   6   91.56   10.56
  -6  -5  -6   93.81   10.06
  -6  -5  -6   76.40    8.86
  -6  -5  -6   80.09    9.42
   6   5   7   76.65    9.98
  -6  -5  -7   76.03    9.38
  -6  -5  -7   91.95    9.80
  -6  -5  -7   67.38    8.91
   6   5   8    6.16    3.40
  -6  -5  -8   10.11    3.72
  -6  -5  -8    0.97    1.91
  -6  -5  -8    3.61    2.88
   6   5   9   66.09    9.95
  -6  -5  -9   79.56   10.32
  -6  -5  -9   63.74    9.59
  -6  -5 -10   89.62   11.43
  -6  -5 -10   96.64   12.27
   6   6 -15    6.63    3.33
  -6  -6  15    4.52    2.89
  -6  -6  15    6.93    3.25
   6   6 -14    4.60    1.99
   6   6 -14    1.44    2.42
  -6  -6  14   -0.33    1.99
  -6  -6  14    3.90    2.90
  -6  -6  14    1.18    1.83
  -6  -6  14    1.40    1.92
   6   6 -13   11.58    3.39
   6   6 -13   17.94    4.79
  -6  -6  13    8.85    3.95
  -6  -6  13   13.16    4.81
  -6  -6  13    6.06    3.43
  -6  -6  13   13.17    4.12
   6   6 -12   35.80    5.87
   6   6 -12   42.11    7.51
  -6  -6  12   35.75    7.07
  -6  -6  12   45.15    8.12
  -6  -6  12   30.95    5.95
  -6  -6  12   42.51    6.78
  -6  -6  11  108.77   11.72
   6   6 -11  112.91   11.69
  -6  -6  11  115.11   12.40
  -6  -6  11  116.08   10.98
  -6  -6  11  100.83   10.16
   6   6 -11  117.44   10.14
   6   6 -10    1.61    1.66
   6   6 -10    5.53    3.02
  -6  -6  10    1.97    1.98
  -6  -6  10    1.78    1.94
  -6  -6  10    2.51    1.85
  -6  -6  10    0.03    1.27
  -6  -6   9  339.54   18.94
   6   6  -9  373.73   20.12
  -6  -6   9  382.01   21.56
  -6  -6   9  350.38   18.06
  -6  -6   9  367.40   18.65
   6   6  -9  379.15   16.87
   6   6  -8   67.52    8.38
  -6  -6   8   51.96    7.25
  -6  -6   8   58.90    8.68
  -6  -6   8   62.82    7.56
  -6  -6   8   57.15    7.28
   6   6  -8   61.41    6.73
  -6  -6   7  198.79   13.63
  -6  -6   7  191.65   15.18
  -6  -6   7  202.26   13.33
   6   6  -7  202.17   14.18
  -6  -6   7  188.25   12.95
   6   6  -7  216.25   11.90
   6   6  -6   53.13    7.21
  -6  -6   6   46.15    6.47
  -6  -6   6   52.22    6.65
  -6  -6   6   42.22    7.22
  -6  -6   6   48.53    6.64
   6   6  -6   53.62    5.83
   6   6  -5  204.85   13.66
  -6  -6   5  198.54   15.21
  -6  -6   5  233.35   14.00
  -6  -6   5  204.46   13.02
  -6  -6   5  194.27   13.02
   6   6  -5  227.82   11.38
   6   6  -4   11.86    2.68
  -6  -6   4    6.32    2.59
   6   6  -4    6.70    2.73
  -6  -6   4    8.87    3.53
  -6  -6   4    7.61    2.76
  -6  -6   4   14.38    3.62
  -6  -6   3   37.63    5.26
   6   6  -3   46.06    6.34
  -6  -6   3   59.37    6.96
  -6  -6   3   46.69    7.35
  -6  -6   3   48.34    6.65
   6   6  -3   46.82    4.87
   6   6  -2  120.38   10.07
  -6  -6   2  112.46    8.84
   6   6  -2  119.41    9.64
  -6  -6   2  119.28    9.98
  -6  -6   2  119.06   11.51
  -6  -6   2  123.58   10.33
  -6  -6   2  126.17    9.16
   6   6  -1   11.42    3.14
   6   6  -1   12.95    3.30
  -6  -6   1   18.51    4.14
  -6  -6   1   11.57    3.94
  -6  -6   1   14.64    3.83
  -6  -6   1   10.21    2.95
   6   6   0  141.15   10.70
   6   6   0  128.74   10.00
  -6  -6   0  133.19   10.62
  -6  -6   0  137.20   12.22
  -6  -6   0  144.15   11.37
  -6  -6   0  122.95    9.80
   6   6   1   13.02    3.33
  -6  -6  -1   13.87    3.78
  -6  -6  -1    4.97    2.93
  -6  -6  -1   11.18    3.39
   6   6   1    8.48    2.67
  -6  -6  -1    9.00    2.86
  -6  -6  -2   -0.32    1.69
  -6  -6  -2   -1.85    2.25
   6   6   2    0.33    1.28
  -6  -6  -2   -0.34    1.34
   6   6   2    1.08    1.26
   6   6   3    0.68    1.61
  -6  -6  -3   -0.02    1.80
   6   6   3    3.01    1.79
  -6  -6  -3    1.23    1.90
  -6  -6  -3    3.19    2.08
   6   6   4    6.67    2.77
   6   6   4    7.50    3.28
  -6  -6  -4    5.16    2.57
  -6  -6  -4    2.97    2.16
  -6  -6  -4    5.59    2.74
   6   6   5   16.56    4.60
  -6  -6  -5   18.59    4.73
  -6  -6  -5   21.54    5.07
  -6  -6  -5   12.92    4.06
   6   6   6   11.21    4.00
  -6  -6  -6   14.57    4.26
  -6  -6  -6   16.88    4.70
  -6  -6  -6   16.35    4.50
   6   6   7   39.31    7.37
  -6  -6  -7   48.16    7.78
  -6  -6  -7   42.95    7.26
  -6  -6  -7   49.41    8.23
   6   6   8    4.15    3.14
  -6  -6  -8    5.07    2.53
  -6  -6  -8    1.47    2.01
  -6  -6  -8    4.00    3.08
  -6  -6  -9    7.37    3.58
  -6  -6  -9    8.32    3.72
  -6  -7  14  178.60   16.82
  -6  -7  14  171.98   16.40
  -6  -7  14  170.02   14.87
   6   7 -13    1.44    2.22
  -6  -7  13    0.61    2.20
   6   7 -13    2.17    1.81
  -6  -7  13   -3.17    3.58
  -6  -7  13   -0.95    1.40
  -6  -7  12  238.74   18.07
   6   7 -12  222.57   17.21
  -6  -7  12  177.22   16.30
  -6  -7  12  221.12   16.29
   6   7 -12  240.51   15.28
   6   7 -11   34.16    5.82
   6   7 -11   28.53    6.23
  -6  -7  11   21.52    5.52
  -6  -7  11   31.06    6.64
  -6  -7  11   30.12    5.94
   6   7 -10   56.76    8.48
  -6  -7  10   64.75    8.79
  -6  -7  10   66.05    9.68
  -6  -7  10   63.13    7.98
  -6  -7  10   60.05    8.24
   6   7 -10   51.61    6.72
   6   7  -9    1.24    1.68
   6   7  -9    4.93    2.24
  -6  -7   9    3.07    2.45
  -6  -7   9    0.50    2.29
  -6  -7   9    1.66    2.01
  -6  -7   9    1.07    1.81
   6   7  -8   -1.11    1.55
  -6  -7   8    1.25    1.66
  -6  -7   8   -0.63    2.35
  -6  -7   8    1.98    1.95
  -6  -7   8    2.74    2.23
   6   7  -8   -0.76    1.68
   6   7  -7   26.82    4.53
  -6  -7   7   17.46    4.27
  -6  -7   7   27.90    6.09
  -6  -7   7   22.28    4.65
  -6  -7   7   19.41    4.59
   6   7  -7   21.25    4.77
   6   7  -6    3.51    1.74
  -6  -7   6    1.29    1.65
  -6  -7   6    3.08    2.05
  -6  -7   6    4.90    2.43
   6   7  -6    2.10    2.09
  -6  -7   6    0.76    1.84
   6   7  -5  190.89   13.90
  -6  -7   5  206.24   16.41
  -6  -7   5  199.36   13.20
  -6  -7   5  191.45   13.86
   6   7  -5  219.03   11.81
   6   7  -4    9.57    2.62
   6   7  -4   10.09    3.33
  -6  -7   4   11.96    3.41
  -6  -7   4    4.32    3.18
  -6  -7   4   14.47    3.90
   6   7  -3   68.07    8.00
   6   7  -3   64.03    7.69
  -6  -7   3   74.34    8.01
  -6  -7   3   88.29   10.62
  -6  -7   3   66.38    8.15
   6   7  -2    0.69    1.37
   6   7  -2    3.80    2.14
  -6  -7   2    2.45    2.04
  -6  -7   2    2.26    2.16
  -6  -7   2    1.52    1.95
   6   7  -1   -0.39    1.09
   6   7  -1    1.85    1.76
  -6  -7   1   -1.03    1.28
  -6  -7   1    0.46    2.36
  -6  -7   1    1.53    1.75
  -6  -7   1    0.60    1.71
   6   7   0   38.05    5.88
  -6  -7   0   38.07    5.93
  -6  -7   0   40.62    7.40
  -6  -7   0   46.25    6.84
  -6  -7   0   38.98    6.03
   6   7   0   35.45    5.57
   6   7   1   12.07    3.59
  -6  -7  -1   15.35    3.94
  -6  -7  -1    5.91    2.86
  -6  -7  -1   13.35    4.01
   6   7   1   14.68    3.66
  -6  -7  -1    8.37    3.00
   6   7   2   24.27    4.79
   6   7   2   18.87    4.58
  -6  -7  -2   26.67    5.14
  -6  -7  -2   20.51    5.40
   6   7   2   28.16    4.83
  -6  -7  -2   20.79    4.81
   6   7   3   -0.81    1.61
   6   7   3    2.13    2.09
  -6  -7  -3    0.05    1.23
  -6  -7  -3   -2.09    2.60
  -6  -7  -3    2.32    2.22
   6   7   4   66.97    9.16
  -6  -7  -4   76.53    8.96
  -6  -7  -4   65.57    9.15
  -6  -7  -4   74.87    9.36
   6   7   5   63.29    9.20
  -6  -7  -5   79.15    9.40
  -6  -7  -5   72.96    9.77
  -6  -7  -5   73.74    9.70
   6   7   6    9.37    3.50
  -6  -7  -6   15.32    4.55
  -6  -7  -6   17.92    5.05
  -6  -7  -6   15.59    4.85
   6   7   7   45.67    8.24
  -6  -7  -7   69.61    9.58
  -6  -7  -7   41.43    7.29
  -6  -7  -7   52.72    8.99
  -6  -7  -8   63.54    9.17
  -6  -7  -8   55.98    8.87
  -6  -7  -8   41.63    8.32
  -6  -8  13    1.30    2.56
  -6  -8  13    9.15    3.86
   6   8 -12    4.88    2.78
  -6  -8  12    2.47    2.97
  -6  -8  12    6.84    3.85
  -6  -8  12    1.99    2.08
   6   8 -11   20.96    4.71
   6   8 -11   24.07    5.91
  -6  -8  11   14.11    4.50
  -6  -8  11   24.19    6.35
  -6  -8  11   25.33    5.74
   6   8 -10    0.49    1.87
   6   8 -10    0.54    1.52
  -6  -8  10   -3.19    2.20
  -6  -8  10   -1.94    3.02
  -6  -8  10    0.31    1.27
   6   8  -9   78.46   10.15
  -6  -8   9   82.77   11.12
  -6  -8   9   66.40    9.00
   6   8  -9   81.84    8.62
   6   8  -8   -0.56    1.76
  -6  -8   8    2.44    2.90
  -6  -8   8    0.71    1.44
   6   8  -8    7.22    3.40
   6   8  -7    5.67    2.28
  -6  -8   7    3.42    2.94
  -6  -8   7    9.83    3.95
   6   8  -7    2.92    2.55
   6   8  -6    7.36    2.69
  -6  -8   6    7.32    3.50
   6   8  -6    6.25    3.00
  -6  -8   6    3.55    2.12
   6   8  -5  154.04   13.03
  -6  -8   5  153.92   15.01
  -6  -8   5  161.53   13.56
   6   8  -5  158.10   10.54
   6   8  -4   79.20    9.22
  -6  -8   4   77.97   10.70
  -6  -8   4   83.37    9.77
   6   8  -3  149.73   12.56
   6   8  -3  133.63   11.77
  -6  -8   3  155.32   14.78
  -6  -8   3  147.87   12.92
   6   8  -2  170.92   13.11
   6   8  -2  169.61   13.26
  -6  -8   2  188.34   16.32
  -6  -8   2  196.68   14.93
   6   8  -1    3.81    2.01
   6   8  -1    1.72    1.50
  -6  -8   1    1.32    2.75
   6   8   0   43.53    6.76
  -6  -8   0   32.33    6.63
  -6  -8   0   31.26    6.13
  -6  -8   0   49.61    7.43
   6   8   0   41.98    6.29
   6   8   1   25.62    5.34
   6   8   1   20.33    4.81
  -6  -8  -1   28.96    6.63
  -6  -8  -1   30.41    6.10
   6   8   1   29.89    5.29
  -6  -8  -1   24.99    5.16
   6   8   2   61.68    8.55
   6   8   2   70.55    8.57
  -6  -8  -2   80.02   10.69
  -6  -8  -2   70.52    9.14
   6   8   3  142.42   13.13
   6   8   3  198.13   14.27
  -6  -8  -3  184.31   15.99
  -6  -8  -3  192.37   15.39
   6   8   4   69.25    9.53
  -6  -8  -4   86.16   11.15
  -6  -8  -4   73.47    9.76
   6   8   5  118.22   12.73
  -6  -8  -5  116.19   12.81
  -6  -8  -5  107.71   12.33
  -6  -8  -6    8.72    3.69
   6   9 -10   -0.93    1.75
  -6  -9  10   -1.64    3.17
  -6  -9  10   -0.21    2.34
   6   9  -9   21.48    4.76
  -6  -9   9   13.72    5.28
  -6  -9   9   11.24    4.10
   6   9  -9   18.91    5.27
   6   9  -8    3.65    2.14
  -6  -9   8    0.46    2.47
   6   9  -8    3.19    2.49
   6   9  -7   82.92   10.24
  -6  -9   7   90.73   12.19
  -6  -9   7   87.41   10.69
   6   9  -7  108.18    9.73
  -6  -9   6    5.89    3.69
   6   9  -6    1.25    1.52
  -6  -9   6    1.95    2.24
   6   9  -5   80.00    9.87
  -6  -9   5   82.22   11.60
  -6  -9   5   90.53   10.78
   6   9  -4   -1.07    1.78
   6   9  -4    3.65    2.96
  -6  -9   4    4.58    2.87
   6   9  -3    7.21    3.09
  -6  -9   3   15.17    5.07
  -6  -9   3    6.96    3.25
   6   9  -3   10.22    4.03
   6   9  -2   26.90    5.23
   6   9  -2   32.59    6.51
  -6  -9   2   25.39    6.43
  -6  -9   2   32.61    6.47
   6   9  -1   16.00    4.40
  -6  -9   1    7.20    3.52
  -6  -9   1   11.40    3.97
   6   9  -1    1.44    1.36
   6   9   0  116.16   11.53
  -6  -9   0  112.98   13.14
  -6  -9   0  108.72   11.88
   6   9   1    0.63    1.67
  -6  -9  -1   -0.82    2.69
   6   9   2   72.65    9.10
  -6  -9  -2   83.47   11.37
   6   9   3    8.78    3.32
   6  10  -6    3.97    2.18
   6  10  -5   11.76    4.28
   6  10  -5    9.78    3.70
   6  10  -4   41.31    7.37
   6  10  -4   56.98    8.52
   6  10  -3   51.62    7.93
   6  10  -3   47.69    7.94
   6  10  -2   23.16    5.60
   6  10  -1    1.71    2.32
   6  10   0    8.80    3.56
   7 -12   0   -0.43    4.63
   7 -12   1   -1.25    2.03
   7 -11  -5   32.72    6.80
   7 -11  -4   -0.11    2.27
   7 -11  -3    0.24    1.98
  -7  11   2   10.53    4.33
   7 -11  -2   13.27    4.21
   7 -11  -2    4.01    2.65
  -7  11   1   27.58    6.45
   7 -11  -1   23.16    5.69
   7 -11  -1   20.07    5.05
   7 -11   0    1.50    1.82
   7 -11   0    3.24    2.14
  -7  11  -1    2.69    1.83
   7 -11   1    3.86    2.71
  -7  11  -2   -0.87    2.62
  -7  11  -2   -6.04    3.33
   7 -11   2    4.18    2.96
  -7  11  -3    2.09    2.24
  -7  11  -3   -0.02    2.76
   7 -11   3    0.70    1.91
  -7  11  -4    5.65    3.50
  -7  11  -4   10.18    4.04
   7 -11   4   16.06    5.11
  -7  11  -5   16.25    5.36
   7 -11   5   18.65    5.25
  -7  11  -6   13.99    4.77
  -7  11  -7   33.75    7.13
   7 -10  -7   11.35    4.02
  -7  10   6   -1.08    3.15
   7 -10  -6   -0.13    1.60
  -7  10   5   49.68    8.57
   7 -10  -5   44.97    7.56
   7 -10  -4    5.00    2.87
  -7  10   4    3.81    2.95
   7 -10  -3   40.35    6.94
  -7  10   3   40.10    7.60
   7 -10  -3   49.77    7.58
  -7  10   2    4.79    3.51
   7 -10  -2    5.23    2.81
   7 -10  -2    1.00    1.53
  -7  10   1   10.84    4.26
   7 -10  -1   15.26    4.43
   7 -10  -1   12.56    3.88
  -7  10   0   30.43    6.48
   7 -10   0   34.02    6.56
   7 -10   0   44.67    6.71
   7 -10   1   53.71    8.23
   7 -10   1   62.93    7.90
  -7  10  -1   66.13    9.48
  -7  10  -2    7.37    3.51
   7 -10   2   -0.14    1.91
  -7  10  -3   15.09    4.66
  -7  10  -3   17.14    4.72
   7 -10   3   18.45    5.04
  -7  10  -4    1.90    2.02
  -7  10  -4    0.22    1.84
   7 -10   4    2.75    2.62
  -7  10  -5   42.60    8.07
  -7  10  -5   53.70    8.49
   7 -10   5   48.54    8.19
  -7  10  -6   39.61    7.61
  -7  10  -6   39.48    7.25
   7 -10   6   36.77    7.24
  -7  10  -7  117.49   12.73
   7 -10   7  128.27   13.67
  -7  10  -7  147.10   14.04
  -7  10  -8   -1.51    1.95
  -7  10  -8    1.13    2.42
   7 -10   8    2.25    2.36
  -7   9   9   27.79    5.58
   7  -9  -9   21.62    5.60
  -7   9   8   18.74    4.50
  -7   9   8   22.36    6.05
   7  -9  -8   18.65    5.27
  -7   9   7   24.56    4.94
  -7   9   7   15.55    4.92
   7  -9  -7   20.78    5.38
  -7   9   6   54.76    8.83
   7  -9  -6   55.64    7.84
   7  -9  -6   53.99    8.07
   7  -9  -5    0.43    2.17
  -7   9   5    2.94    1.58
   7  -9  -5    5.67    2.85
   7  -9  -4  238.50   15.96
  -7   9   4  218.31   17.13
   7  -9  -4  221.08   15.40
   7  -9  -3  280.23   17.32
   7  -9  -3  304.27   17.58
  -7   9   3  297.93   19.62
   7  -9  -2  100.08   10.32
   7  -9  -2   95.78    9.68
  -7   9   2   84.08   10.42
   7  -9  -1  122.39   11.37
   7  -9  -1  125.94   10.67
  -7   9   1  125.00   12.62
  -7   9   0   -1.85    2.53
   7  -9   0    4.21    2.75
   7  -9   0   -0.87    1.95
  -7   9  -1    3.25    2.63
   7  -9   1    4.93    3.48
   7  -9   1    5.04    2.57
   7  -9   2  115.86   11.60
   7  -9   2  113.55    9.78
  -7   9  -2  113.43   11.74
   7  -9   3  102.22   11.04
   7  -9   3  109.76    9.94
  -7   9  -3  121.42   12.08
  -7   9  -4  114.97   12.27
   7  -9   4  152.14   13.64
   7  -9   4  140.13   11.56
  -7   9  -4  133.18   12.59
  -7   9  -5  177.36   14.97
   7  -9   5  176.96   14.99
  -7   9  -5  179.38   14.66
  -7   9  -6   35.38    6.86
  -7   9  -6   43.96    7.42
  -7   9  -6   47.51    7.19
   7  -9   6   40.21    7.29
  -7   9  -7   68.66    9.17
  -7   9  -7   84.72    9.96
   7  -9   7   88.17   11.03
  -7   9  -7   66.44    9.05
  -7   9  -8   -0.89    1.89
  -7   9  -8    5.03    3.15
   7  -9   8   -1.44    2.58
  -7   9  -8    2.96    2.35
  -7   9  -9    1.91    2.65
  -7   9  -9   -1.97    2.28
   7  -9   9   -1.01    1.84
  -7   9 -10    9.08    4.11
  -7   9 -10    6.37    3.52
  -7   9 -11    2.30    2.41
   7  -8 -11   15.31    4.80
  -7   8  10    2.65    1.61
   7  -8 -10    0.07    1.49
  -7   8   9    5.18    2.64
   7  -8  -9    0.95    2.05
  -7   8   8   24.35    5.05
   7  -8  -8   27.69    5.50
   7  -8  -8   22.96    5.43
   7  -8  -7   87.07    9.55
   7  -8  -7   84.79    9.79
  -7   8   7   72.72    8.22
  -7   8   6    4.14    2.08
   7  -8  -6    6.02    2.66
  -7   8   6    5.18    3.09
   7  -8  -6    9.87    3.43
   7  -8  -5   64.71    8.09
   7  -8  -5   66.59    8.17
  -7   8   5   82.21   10.26
  -7   8   5   71.23    7.61
   7  -8  -4   39.12    6.39
  -7   8   4   37.82    6.83
   7  -8  -4   38.06    6.04
  -7   8   4   36.45    5.32
  -7   8   3   12.69    3.16
   7  -8  -3   11.06    3.41
  -7   8   3   12.79    4.14
   7  -8  -3   10.12    3.05
   7  -8  -2    2.03    2.14
  -7   8   2    2.34    2.08
   7  -8  -2    1.58    1.71
  -7   8   1    2.08    2.34
   7  -8  -1    1.86    1.24
   7  -8  -1    0.75    1.50
   7  -8   0  133.13   11.45
   7  -8   0  134.80    9.99
  -7   8   0  143.40   12.66
  -7   8  -1    1.42    1.82
   7  -8   1    0.55    1.56
   7  -8   1    4.09    2.06
   7  -8   1    3.43    1.85
  -7   8  -2   29.34    5.70
  -7   8  -2   36.81    5.56
   7  -8   2   25.29    5.27
   7  -8   2   29.63    4.88
  -7   8  -3   48.30    6.64
   7  -8   3   49.51    7.45
   7  -8   3   44.68    6.16
  -7   8  -3   57.05    7.86
  -7   8  -4   29.74    5.70
  -7   8  -4   30.75    5.52
   7  -8   4   21.82    5.13
   7  -8   4   23.94    4.79
  -7   8  -5   80.05    9.52
   7  -8   5   71.02    9.15
   7  -8   5   72.51    8.30
  -7   8  -5   77.67    8.83
  -7   8  -5   70.94    8.77
  -7   8  -6    0.49    1.34
  -7   8  -6    3.54    2.33
   7  -8   6    5.86    3.01
   7  -8   6    3.52    2.26
  -7   8  -6    2.25    1.85
  -7   8  -7   95.10   10.12
   7  -8   7   98.23   11.03
  -7   8  -7  106.35   11.02
   7  -8   7   99.02   10.15
  -7   8  -7   97.22   10.40
  -7   8  -8    0.40    1.72
  -7   8  -8   -0.42    2.08
   7  -8   8   -1.31    1.96
   7  -8   8   -1.25    2.30
   7  -8   8    0.63    1.47
  -7   8  -9   -0.68    2.00
  -7   8  -9   -1.30    1.94
   7  -8   9   -0.31    1.87
   7  -8   9    0.88    1.60
   7  -8   9   -0.28    1.53
  -7   8 -10    4.90    2.69
  -7   8 -10    2.11    2.35
   7  -8  10    8.76    3.95
   7  -8  10    7.58    3.03
  -7   8 -11   15.43    4.58
  -7   8 -11   22.97    5.87
   7  -8  11   11.19    4.32
   7  -8  11   13.98    4.07
   7  -8  12   36.54    6.64
  -7   7  12    8.48    3.50
   7  -7 -12    1.81    1.58
  -7   7  11    5.03    2.34
   7  -7 -11    5.77    2.89
  -7   7  10   31.48    5.93
   7  -7 -10   23.46    5.01
   7  -7 -10   36.71    6.78
  -7   7   9    0.78    1.38
   7  -7  -9   -0.17    1.62
   7  -7  -9    4.18    2.28
   7  -7  -8   58.62    7.83
   7  -7  -8   46.26    7.07
  -7   7   8   51.53    6.92
  -7   7   7   -1.27    1.84
   7  -7  -7   -0.07    1.58
   7  -7  -7    1.28    1.49
   7  -7  -6   85.45    9.11
   7  -7  -6   93.12    9.28
  -7   7   6  102.17    9.15
  -7   7   5    7.50    2.38
   7  -7  -5   11.27    3.48
  -7   7   5   16.55    4.59
   7  -7  -5   15.70    3.81
   7  -7  -4  240.59   14.82
   7  -7  -4  250.53   14.14
  -7   7   4  224.35   15.58
  -7   7   4  257.58   13.64
   7  -7  -3   47.05    6.60
  -7   7   3   43.09    6.78
   7  -7  -3   56.73    6.58
  -7   7   3   46.20    5.80
  -7   7   2   18.07    3.56
  -7   7   2   15.17    3.44
   7  -7  -2   21.30    4.51
  -7   7   2   15.90    4.23
   7  -7  -2   14.01    3.32
   7  -7  -1   50.22    6.81
  -7   7   1   58.31    6.51
   7  -7  -1   65.85    6.31
   7  -7  -1   63.45    6.52
  -7   7   1   59.07    7.78
  -7   7   1   59.05    6.12
  -7   7   0  332.40   15.86
   7  -7   0  329.48   17.44
   7  -7   0  336.78   14.63
   7  -7   0  339.12   14.46
  -7   7   0  325.45   17.80
  -7   7   0  330.11   13.96
   7  -7   1  176.71   12.84
  -7   7  -1  172.87   11.67
   7  -7   1  185.84   11.26
   7  -7   1  192.91   10.74
  -7   7  -1  177.54   13.06
   7  -7   2  179.04   13.17
   7  -7   2  191.74   11.82
  -7   7  -2  194.42   12.70
  -7   7  -2  195.98   13.65
   7  -7   3  205.53   14.24
  -7   7  -3  194.58   13.04
   7  -7   3  183.69   11.83
  -7   7  -3  205.43   13.86
  -7   7  -4   32.06    5.67
  -7   7  -4   41.87    6.33
   7  -7   4   37.12    6.29
   7  -7   4   40.98    5.92
  -7   7  -5   33.62    5.83
  -7   7  -5   28.70    5.36
  -7   7  -5   36.46    6.20
   7  -7   5   47.93    7.24
   7  -7   5   37.95    5.83
  -7   7  -6   57.28    7.44
  -7   7  -6   47.00    6.80
  -7   7  -6   49.67    7.30
   7  -7   6   56.92    8.01
   7  -7   6   38.59    5.99
   7  -7   6   58.95    6.33
   7  -7   7  126.50   12.14
  -7   7  -7  126.08   11.79
   7  -7   7  122.83   10.94
   7  -7   7  132.61    9.71
  -7   7  -7  124.15   11.21
  -7   7  -8   -0.31    1.51
  -7   7  -8    0.85    2.07
   7  -7   8   -1.43    2.27
   7  -7   8   -0.38    1.57
   7  -7   8    0.03    1.35
   7  -7   9  136.99   13.22
  -7   7  -9  154.87   13.81
   7  -7   9  128.07   11.84
  -7   7  -9  124.79   11.57
   7  -7   9  119.02   10.12
  -7   7 -10   74.63    9.88
   7  -7  10   77.92   10.16
   7  -7  10   66.02    8.83
  -7   7 -10   67.98    8.66
   7  -7  10   66.33    7.91
  -7   7 -11   14.94    4.42
  -7   7 -11   15.43    5.00
   7  -7  11   12.85    4.48
   7  -7  11   18.86    4.94
   7  -7  11   17.23    4.46
  -7   7 -12    8.41    3.62
  -7   7 -12    8.05    3.96
   7  -7  12    6.62    2.98
   7  -7  12    5.75    2.77
   7  -6 -13    6.53    3.23
   7  -6 -12   84.08   10.58
  -7   6  12   78.97    9.53
  -7   6  11    9.12    3.42
   7  -6 -11    4.23    2.23
  -7   6  10    5.30    2.67
   7  -6 -10    2.26    1.66
  -7   6  10    0.65    1.60
   7  -6 -10    2.17    2.23
   7  -6  -9  401.46   20.03
  -7   6   9  423.37   19.19
   7  -6  -9  446.58   21.34
  -7   6   9  393.28   19.04
  -7   6   8   30.64    5.22
   7  -6  -8   40.93    6.37
  -7   6   8   40.02    5.79
   7  -6  -8   40.19    6.26
   7  -6  -7  330.04   17.49
  -7   6   7  346.03   16.08
   7  -6  -7  393.08   18.42
  -7   6   7  341.95   16.73
  -7   6   6    2.18    1.65
  -7   6   6    3.13    1.87
   7  -6  -6    1.96    1.30
  -7   6   6    1.83    1.26
   7  -6  -6    2.73    1.61
   7  -6  -5   44.97    6.40
  -7   6   5   53.87    6.19
  -7   6   5   42.45    5.28
   7  -6  -5   41.77    5.57
  -7   6   5   55.33    6.41
  -7   6   4    8.07    2.67
  -7   6   4    1.06    1.64
   7  -6  -4    5.35    2.59
  -7   6   4    6.93    2.78
  -7   6   4    3.81    1.64
   7  -6  -4    7.72    2.43
  -7   6   3   -0.17    1.34
  -7   6   3   -1.24    1.65
   7  -6  -3   -0.78    1.60
  -7   6   3   -1.55    2.09
  -7   6   3    0.53    0.66
   7  -6  -3    0.10    0.75
   7  -6  -3    1.61    1.34
  -7   6   2   36.44    5.26
   7  -6  -2   30.59    5.19
  -7   6   2   26.62    5.03
  -7   6   2   26.82    3.89
   7  -6  -2   32.41    4.18
   7  -6  -2   26.73    4.00
  -7   6   2   34.48    4.80
  -7   6   1    3.82    1.92
  -7   6   1    1.46    1.13
  -7   6   1   -0.59    1.73
   7  -6  -1    2.17    1.65
  -7   6   1    0.08    0.88
   7  -6  -1    3.22    1.62
   7  -6  -1    2.47    1.60
   7  -6   0  135.18   10.76
  -7   6   0  169.14   11.36
   7  -6   0  162.71    9.76
   7  -6   0  164.10    9.09
  -7   6   0  161.93   11.86
  -7   6   0  152.07    9.53
  -7   6  -1   14.56    3.01
  -7   6  -1   11.94    3.20
  -7   6  -1    9.96    3.06
   7  -6   1   10.44    3.20
   7  -6   1   13.14    3.15
   7  -6   1   14.64    2.83
  -7   6  -2   14.42    2.88
  -7   6  -2   12.05    3.30
  -7   6  -2   10.71    3.11
   7  -6   2   13.28    3.48
   7  -6   2   15.70    3.27
  -7   6  -3   -0.62    1.37
  -7   6  -3   -0.36    1.57
   7  -6   3    0.61    1.46
   7  -6   3    1.70    1.59
  -7   6  -4    4.92    2.37
  -7   6  -4    1.22    1.42
   7  -6   4    4.76    2.50
   7  -6   4    3.25    1.76
   7  -6   4    1.69    0.96
  -7   6  -5   23.31    4.51
  -7   6  -5   19.18    4.16
  -7   6  -5   12.33    3.70
   7  -6   5   19.08    4.37
   7  -6   5   14.54    3.54
   7  -6   5   15.37    2.95
  -7   6  -6    8.52    2.87
  -7   6  -6   12.56    3.54
  -7   6  -6    4.67    2.62
   7  -6   6   15.70    4.15
   7  -6   6    7.73    2.71
   7  -6   6    9.85    2.59
   7  -6   7  543.22   23.87
  -7   6  -7  531.29   23.60
   7  -6   7  504.46   21.28
   7  -6   7  532.56   18.77
  -7   6  -7  526.54   21.73
  -7   6  -8   -0.40    1.54
  -7   6  -8    0.28    1.81
   7  -6   8   -2.31    2.34
   7  -6   8    0.13    1.54
  -7   6  -9   24.61    5.10
  -7   6  -9   32.87    6.54
   7  -6   9   36.60    6.58
   7  -6   9   32.67    6.11
  -7   6 -10   -1.29    2.41
  -7   6 -10    0.34    2.16
   7  -6  10    2.73    2.30
   7  -6  10    0.76    1.74
  -7   6 -11    5.90    2.91
   7  -6  11    8.31    3.53
   7  -6  11    2.53    1.80
  -7   6 -12   19.97    4.87
  -7   6 -12   27.32    6.46
   7  -6  12   25.20    5.77
   7  -6  12   19.80    4.87
   7  -6  12   31.34    5.73
   7  -6  13   69.38    9.73
  -7   6 -13   73.96    9.40
   7  -6  13   70.85    8.77
  -7   5  14    0.47    2.29
   7  -5 -14    0.60    1.66
  -7   5  13   11.79    3.99
   7  -5 -13    6.89    3.23
  -7   5  13    2.55    1.52
   7  -5 -13    7.22    3.21
  -7   5  12   39.73    6.76
   7  -5 -12   42.99    7.03
  -7   5  12   37.66    6.50
   7  -5 -12   32.95    6.12
  -7   5  11    0.61    1.74
   7  -5 -11    4.22    2.40
  -7   5  11    3.96    1.90
   7  -5 -11    5.73    2.54
  -7   5  10    8.00    3.09
   7  -5 -10    2.27    1.79
  -7   5  10    5.48    2.60
   7  -5 -10    7.18    2.91
   7  -5  -9   74.93    8.64
  -7   5   9   75.20    8.05
  -7   5   9   77.59    8.39
   7  -5  -9   81.61    8.57
  -7   5   9   77.81    8.44
  -7   5   8   34.08    5.24
   7  -5  -8   36.19    5.88
  -7   5   8   35.63    5.52
   7  -5  -8   43.16    6.12
  -7   5   8   45.67    6.18
  -7   5   7    2.42    1.62
  -7   5   7    1.83    1.56
   7  -5  -7    3.82    2.14
  -7   5   7    1.84    1.57
   7  -5  -7    2.60    1.50
   7  -5  -6   79.64    8.35
  -7   5   6   85.70    7.85
  -7   5   6   79.19    7.84
   7  -5  -6   74.75    7.24
  -7   5   6   86.57    8.01
  -7   5   5    3.94    1.89
  -7   5   5    4.51    2.18
   7  -5  -5    4.80    2.24
  -7   5   5    6.46    2.46
   7  -5  -5    4.50    1.73
  -7   5   4  175.53   11.21
   7  -5  -4  174.83   11.80
  -7   5   4  180.22   10.79
   7  -5  -4  182.65    8.97
   7  -5  -4  188.08   10.34
  -7   5   4  187.15   11.18
   7  -5  -3    0.65    0.76
  -7   5   3   -1.09    1.72
  -7   5   3    0.68    1.21
   7  -5  -3   -1.54    1.78
  -7   5   3   -1.37    1.94
  -7   5   3   -0.58    1.06
   7  -5  -3   -1.23    1.04
   7  -5  -2   55.43    6.59
  -7   5   2   56.65    6.44
  -7   5   2   57.53    5.93
   7  -5  -2   61.40    5.59
   7  -5  -2   54.58    5.17
  -7   5   2   46.54    6.26
  -7   5   2   59.59    6.09
  -7   5   1   51.65    6.21
   7  -5  -1   60.26    6.97
  -7   5   1   54.68    5.61
   7  -5  -1   63.52    5.83
   7  -5  -1   64.75    5.28
  -7   5   1   64.91    7.15
  -7   5   1   64.95    6.33
  -7   5   0    7.94    2.44
  -7   5   0   13.15    3.36
  -7   5   0   10.89    3.05
   7  -5   0    7.23    2.47
  -7   5   0    8.99    2.37
   7  -5   0   10.25    2.55
   7  -5   1  305.85   15.65
  -7   5  -1  324.21   13.69
  -7   5  -1  290.06   14.84
   7  -5   1  303.69   13.36
  -7   5  -1  301.46   15.11
  -7   5  -1  313.33   13.58
  -7   5  -2   26.96    4.48
   7  -5   2   24.67    4.68
  -7   5  -2   24.24    3.86
  -7   5  -2   19.17    4.15
   7  -5   2   21.68    3.76
  -7   5  -2   20.27    3.48
   7  -5   3  389.40   17.93
  -7   5  -3  377.07   17.73
  -7   5  -3  394.99   15.53
   7  -5   3  352.62   15.29
  -7   5  -3  365.62   16.58
  -7   5  -4    9.22    2.89
   7  -5   4    9.38    3.13
  -7   5  -4    8.14    2.96
  -7   5  -4    8.79    2.46
   7  -5   4   11.12    2.92
  -7   5  -5   20.82    3.90
  -7   5  -5   18.47    3.84
  -7   5  -5   18.97    4.35
   7  -5   5   24.22    4.74
  -7   5  -5   17.61    3.55
   7  -5   5   19.15    3.85
   7  -5   6  444.27   20.20
  -7   5  -6  497.28   21.96
  -7   5  -6  470.91   18.46
   7  -5   6  487.73   19.75
  -7   5  -6  454.55   18.84
   7  -5   7   84.80    9.11
  -7   5  -7   89.00    9.63
  -7   5  -7   71.33    7.54
   7  -5   7   81.02    8.39
  -7   5  -7   82.87    8.31
   7  -5   8  410.11   20.40
  -7   5  -8  424.53   21.57
  -7   5  -8  415.75   18.65
   7  -5   8  386.39   18.78
  -7   5  -8  380.07   17.85
  -7   5  -9   45.29    7.43
  -7   5  -9   57.51    7.37
   7  -5   9   51.77    7.24
  -7   5  -9   51.82    6.81
   7  -5   9   37.84    6.50
  -7   5 -10   33.09    5.65
  -7   5 -10   29.73    6.32
   7  -5  10   33.97    6.29
  -7   5 -10   34.42    5.98
   7  -5  10   26.42    5.38
  -7   5 -11   -2.91    2.09
  -7   5 -11   -1.08    2.54
   7  -5  11   -5.01    2.72
  -7   5 -11    1.28    1.95
   7  -5  11   -5.75    2.81
  -7   5 -12    2.76    2.14
  -7   5 -12    3.73    3.47
   7  -5  12    1.25    1.48
  -7   5 -12   -1.35    2.66
   7  -5  12   -4.59    2.58
  -7   5 -13   11.88    3.79
   7  -5  13   12.23    3.96
   7  -5  13    6.91    3.42
  -7   4  15   46.93    8.09
   7  -4 -15   49.58    8.14
  -7   4  14   44.81    7.42
   7  -4 -14   40.93    7.05
  -7   4  14   32.73    6.42
   7  -4 -14   31.56    6.33
  -7   4  13   -1.83    3.01
   7  -4 -13   -0.80    1.22
  -7   4  13   -4.50    2.63
   7  -4 -13   -1.34    1.56
  -7   4  12    4.94    2.41
  -7   4  12    6.83    3.14
   7  -4 -12    0.87    1.36
  -7   4  12    3.82    2.18
   7  -4 -12    6.46    2.77
  -7   4  11  188.00   13.64
   7  -4 -11  197.55   14.34
  -7   4  11  202.67   14.38
   7  -4 -11  212.19   14.23
  -7   4  11  185.72   13.44
  -7   4  10   -0.23    1.81
  -7   4  10    0.66    1.99
   7  -4 -10    4.99    2.66
  -7   4  10    0.91    1.17
   7  -4 -10    5.88    2.84
   7  -4  -9  440.83   20.26
  -7   4   9  426.46   19.24
  -7   4   9  429.82   19.41
   7  -4  -9  440.71   18.85
  -7   4   9  420.53   18.91
  -7   4   8   51.50    6.69
   7  -4  -8   48.95    6.68
  -7   4   8   58.16    6.97
   7  -4  -8   53.61    6.31
  -7   4   8   50.12    6.43
  -7   4   7  266.26   14.60
   7  -4  -7  268.81   15.10
  -7   4   7  268.23   14.37
   7  -4  -7  273.27   13.48
  -7   4   7  266.46   14.20
   7  -4  -6    6.91    1.91
  -7   4   6    7.22    2.62
  -7   4   6    7.15    2.61
   7  -4  -6    7.22    2.57
  -7   4   6    6.26    2.36
   7  -4  -6   11.09    2.67
  -7   4   5  110.86    9.10
   7  -4  -5  118.64    9.70
  -7   4   5  119.15    9.07
   7  -4  -5  118.89    7.24
   7  -4  -5  118.46    7.95
  -7   4   5  120.00    9.15
  -7   4   4  165.65   10.96
   7  -4  -4  170.44   11.44
  -7   4   4  159.32   10.24
   7  -4  -4  167.22    8.73
   7  -4  -4  163.89    8.84
  -7   4   4  174.12   10.63
  -7   4   3   59.77    6.61
   7  -4  -3   56.19    6.64
  -7   4   3   62.92    6.31
   7  -4  -3   45.13    4.59
   7  -4  -3   61.02    5.12
  -7   4   3   48.37    6.01
  -7   4   3   55.20    6.05
  -7   4   2 1037.44   26.98
   7  -4  -2 1067.26   27.95
  -7   4   2 1056.30   25.34
   7  -4  -2 1036.76   22.61
   7  -4  -2 1090.85   20.13
  -7   4   2 1026.71   27.08
  -7   4   2 1081.68   25.71
  -7   4   1   38.58    5.39
  -7   4   1   40.66    4.95
   7  -4  -1   40.80    4.62
  -7   4   1   40.99    5.44
  -7   4   1   43.22    5.25
   7  -4  -1   36.67    5.35
  -7   4   0  378.79   16.68
   7  -4   0  391.77   16.92
  -7   4   0  370.76   14.92
   7  -4   0  384.42   14.29
  -7   4   0  369.13   15.74
  -7   4   0  399.42   15.47
  -7   4  -1   41.42    5.75
   7  -4   1   38.75    5.36
  -7   4  -1   33.01    4.55
   7  -4   1   36.15    4.60
  -7   4  -1   41.59    5.28
  -7   4  -1   37.77    4.84
  -7   4  -2    7.31    2.32
  -7   4  -2    6.77    2.70
   7  -4   2    2.70    1.98
  -7   4  -2    4.51    1.90
   7  -4   2    3.26    1.53
  -7   4  -3   31.13    4.63
  -7   4  -3   31.59    5.21
   7  -4   3   32.81    5.13
  -7   4  -3   32.16    4.70
   7  -4   3   28.44    4.34
  -7   4  -4   36.95    4.96
  -7   4  -4   40.82    5.99
   7  -4   4   35.56    5.43
  -7   4  -4   47.70    5.75
   7  -4   4   38.82    5.25
   7  -4   5  310.52   15.86
  -7   4  -5  304.90   16.49
  -7   4  -5  337.80   15.52
   7  -4   5  302.31   14.63
  -7   4  -5  315.23   14.49
   7  -4   6  330.22   16.79
  -7   4  -6  326.27   17.66
  -7   4  -6  348.56   16.40
   7  -4   6  307.68   15.27
  -7   4  -6  336.66   15.26
  -7   4  -7   45.72    6.84
   7  -4   7   38.95    6.02
  -7   4  -7   64.36    7.38
   7  -4   7   50.83    6.52
  -7   4  -7   53.67    6.30
  -7   4  -8    0.05    1.29
  -7   4  -8   -1.22    1.92
   7  -4   8   -0.28    1.58
  -7   4  -8    0.33    1.52
   7  -4   8    2.09    1.74
  -7   4  -9    1.82    1.51
  -7   4  -9    7.53    3.55
   7  -4   9    5.60    2.73
  -7   4  -9    2.02    1.64
   7  -4   9    2.87    2.10
  -7   4 -10    0.68    1.23
  -7   4 -10   -0.83    2.11
   7  -4  10   -2.68    2.02
  -7   4 -10    0.38    1.59
   7  -4  10   -2.90    2.46
   7  -4  11  160.42   13.14
  -7   4 -11  149.57   13.88
  -7   4 -11  134.50   12.31
   7  -4  11  144.59   12.59
  -7   4 -11  143.14   11.40
  -7   4 -12    5.46    2.39
  -7   4 -12    8.02    3.87
   7  -4  12    8.11    3.54
  -7   4 -12    6.58    3.54
   7  -4  12    7.11    3.04
  -7   4 -13    6.52    3.27
  -7   4 -13   -0.02    1.68
   7  -4  13    6.41    3.04
   7  -3 -16   -0.17    1.75
  -7   3  15   -0.19    1.68
  -7   3  15   -2.00    3.34
   7  -3 -15    2.51    2.43
  -7   3  15    0.02    1.63
   7  -3 -15    4.63    2.66
  -7   3  14   21.80    5.19
  -7   3  14   13.01    4.13
   7  -3 -14   11.36    4.07
  -7   3  14   21.85    5.36
   7  -3 -14   20.69    4.95
  -7   3  13    6.60    2.97
  -7   3  13    8.98    3.66
   7  -3 -13   10.54    3.72
  -7   3  13   13.62    4.17
   7  -3 -13    7.09    2.95
  -7   3  12   49.99    7.49
   7  -3 -12   59.62    8.02
  -7   3  12   48.23    7.37
   7  -3 -12   50.14    6.89
  -7   3  12   60.35    7.88
  -7   3  11   94.43    9.86
   7  -3 -11   92.71    9.68
  -7   3  11   93.92    9.74
   7  -3 -11  114.47    9.86
  -7   3  11   99.86    9.86
  -7   3  10   41.13    6.08
  -7   3  10   41.11    6.38
   7  -3 -10   41.20    6.31
  -7   3  10   43.48    6.46
   7  -3 -10   45.86    5.94
  -7   3   9   27.31    4.80
  -7   3   9   27.78    5.16
   7  -3  -9   35.62    5.89
  -7   3   9   26.70    4.96
   7  -3  -9   33.58    4.87
  -7   3   8    0.38    1.60
  -7   3   8    1.43    1.90
   7  -3  -8    1.95    1.70
  -7   3   8   -0.18    1.32
   7  -3  -8   -0.11    0.98
  -7   3   7   10.38    3.09
  -7   3   7    4.03    2.13
   7  -3  -7   10.43    3.09
   7  -3  -7    2.32    1.48
  -7   3   7    5.33    2.33
   7  -3  -7    6.11    1.90
  -7   3   6   30.81    4.95
   7  -3  -6   35.52    5.35
  -7   3   6   29.01    4.69
   7  -3  -6   30.35    4.07
   7  -3  -6   33.29    4.01
  -7   3   6   40.64    5.45
   7  -3  -5  285.42   14.75
  -7   3   5  319.57   15.36
  -7   3   5  306.75   14.58
   7  -3  -5  322.73   11.95
   7  -3  -5  324.68   12.33
  -7   3   5  307.49   14.31
  -7   3   4 1144.16   28.67
   7  -3  -4 1162.88   29.00
  -7   3   4 1142.58   27.77
   7  -3  -4 1195.65   21.30
  -7   3   4 1110.63   26.59
  -7   3   3  359.93   16.05
   7  -3  -3  343.65   15.67
  -7   3   3  345.88   14.95
   7  -3  -3  347.75   10.60
   7  -3  -3  362.39   13.38
  -7   3   3  367.38   15.20
  -7   3   2   62.15    6.73
   7  -3  -2   79.97    7.47
  -7   3   2   69.93    6.67
   7  -3  -2   80.75    6.35
  -7   3   2   53.25    5.82
  -7   3   2   77.82    6.97
  -7   3   1   -1.09    1.17
   7  -3  -1   -1.09    1.26
  -7   3   1   -1.06    1.38
  -7   3   1    1.60    1.37
   7  -3  -1   -0.51    1.02
  -7   3   1    0.31    1.11
  -7   3   0   21.31    3.70
   7  -3   0   20.50    3.44
  -7   3   0   22.52    4.19
  -7   3   0    9.28    2.77
   7  -3   0   26.97    4.38
  -7   3   0   13.73    3.08
  -7   3  -1   56.78    6.08
  -7   3  -1   59.77    6.75
   7  -3   1   56.21    6.29
   7  -3   1   52.86    5.46
  -7   3  -1   52.70    5.55
  -7   3  -1   59.89    6.13
   7  -3   2  172.68   11.01
  -7   3  -2  174.19   11.62
  -7   3  -2  171.86   10.64
   7  -3   2  149.76    9.36
  -7   3  -2  160.81    9.52
   7  -3   3    1.10    1.25
  -7   3  -3    0.61    1.18
  -7   3  -3    1.85    1.81
   7  -3   3    0.24    1.12
  -7   3  -3   -0.28    1.00
  -7   3  -4   11.49    3.41
   7  -3   4   13.75    3.25
  -7   3  -4   14.04    2.90
  -7   3  -4   14.32    3.47
   7  -3   4   12.49    3.01
   7  -3   5   53.63    6.44
  -7   3  -5   49.00    6.69
  -7   3  -5   52.07    6.42
   7  -3   5   47.73    5.85
  -7   3  -5   53.40    5.62
   7  -3   6  117.41    9.63
  -7   3  -6  118.91    9.80
   7  -3   6  112.95    9.15
  -7   3  -6  121.70    8.65
  -7   3  -6  121.04   10.81
   7  -3   7   70.70    7.64
  -7   3  -7   63.28    7.98
  -7   3  -7   65.27    7.70
   7  -3   7   88.18    8.36
  -7   3  -7   87.26    7.49
   7  -3   8  101.11    9.40
  -7   3  -8   89.97    9.80
  -7   3  -8  102.40    9.90
   7  -3   8  100.33    9.21
  -7   3  -8  106.08    8.52
   7  -3   9   52.93    7.02
  -7   3  -9   49.78    7.72
  -7   3  -9   51.94    7.26
   7  -3   9   54.83    7.04
  -7   3  -9   46.62    5.89
  -7   3 -10   29.79    4.84
  -7   3 -10   25.13    5.73
   7  -3  10   22.79    4.78
   7  -3  10   37.34    6.24
  -7   3 -10   31.76    6.05
   7  -3  10   31.92    5.65
  -7   3 -11   -0.88    2.20
  -7   3 -11   -1.77    2.33
   7  -3  11    0.73    1.42
  -7   3 -12   73.92   10.50
  -7   3 -12   64.65    9.27
   7  -3  12   64.64    8.52
  -7   3 -13   21.39    5.92
  -7   3 -13   26.08    6.27
   7  -3  13   25.43    5.63
  -7   2  16    0.49    1.71
   7  -2 -16   -0.73    2.40
  -7   2  15   55.29    8.86
  -7   2  15   61.69    9.24
   7  -2 -15   65.36    8.56
  -7   2  15   71.30    9.31
  -7   2  14   20.63    5.08
  -7   2  14   18.83    5.17
  -7   2  14   26.44    5.91
   7  -2 -14   16.76    4.22
  -7   2  13    2.62    2.12
  -7   2  13    0.48    1.87
  -7   2  13   -0.37    1.50
   7  -2 -13    1.30    1.62
  -7   2  12    1.80    1.90
  -7   2  12    5.96    2.78
  -7   2  12    2.41    1.87
   7  -2 -12    3.38    2.03
  -7   2  11   52.10    7.39
  -7   2  11   55.17    7.48
   7  -2 -11   58.21    6.72
  -7   2  11   56.07    7.11
  -7   2  10   72.83    8.41
   7  -2 -10   74.93    8.45
  -7   2  10   74.82    8.48
   7  -2 -10   86.41    7.71
  -7   2  10   85.25    8.52
  -7   2   9   20.21    4.05
  -7   2   9   17.78    4.27
   7  -2  -9   26.64    5.04
  -7   2   9   18.37    4.10
   7  -2  -9   18.23    3.44
  -7   2   8  126.87   10.45
   7  -2  -8  133.24   10.65
  -7   2   8  120.00   10.01
   7  -2  -8  141.82    8.86
  -7   2   8  116.03    9.37
   7  -2  -8  132.36    8.34
  -7   2   7   14.87    3.72
   7  -2  -7   13.96    3.50
  -7   2   7   21.73    4.20
   7  -2  -7   15.15    2.80
  -7   2   7   17.57    3.74
   7  -2  -7   15.71    2.94
  -7   2   6   11.44    3.14
  -7   2   6    4.20    2.30
   7  -2  -6    9.28    2.99
  -7   2   6    6.23    2.25
   7  -2  -6   11.85    2.59
   7  -2  -6    8.07    1.97
  -7   2   5  481.71   18.93
   7  -2  -5  515.30   19.44
  -7   2   5  481.15   18.44
   7  -2  -5  508.90   13.61
  -7   2   5  499.66   18.17
   7  -2  -5  486.23   15.91
   7  -2  -4 1567.01   33.02
  -7   2   4 1536.83   32.32
  -7   2   4 1482.65   32.93
   7  -2  -4 1497.97   27.65
  -7   2   4 1524.30   31.16
  -7   2   3  392.51   16.74
   7  -2  -3  412.75   16.73
  -7   2   3  401.64   16.35
   7  -2  -3  397.30   14.31
  -7   2   3  430.17   16.44
  -7   2   2  503.23   18.85
   7  -2  -2  490.69   17.98
  -7   2   2  480.66   17.74
   7  -2  -2  489.11   15.93
  -7   2   2  498.06   16.29
  -7   2   2  485.62   17.39
  -7   2   1   42.56    5.57
   7  -2  -1   45.19    5.45
  -7   2   1   40.27    5.20
   7  -2  -1   34.51    4.42
  -7   2   1   38.25    4.51
  -7   2   1   42.17    5.21
   7  -2   0    0.04    0.87
  -7   2   0   -0.57    1.79
  -7   2   0   -0.60    1.09
   7  -2   0    0.31    0.94
  -7   2   0   -1.30    1.72
  -7   2  -1   97.28    8.53
   7  -2   1  106.23    8.31
  -7   2  -1   90.15    7.86
   7  -2   1   91.94    7.21
  -7   2  -1   89.30    6.45
   7  -2   2   13.66    3.05
  -7   2  -2    9.16    2.33
  -7   2  -2   19.17    4.11
   7  -2   2   12.76    2.99
  -7   2  -2   15.49    3.44
   7  -2   3  647.67   20.53
  -7   2  -3  615.56   22.22
  -7   2  -3  648.29   21.66
  -7   2  -3  612.58   16.75
   7  -2   3  620.37   19.55
   7  -2   4    1.75    1.54
  -7   2  -4   -0.62    1.07
  -7   2  -4   -0.76    1.80
   7  -2   4    1.31    1.28
  -7   2  -4   -2.08    1.63
   7  -2   5  167.06   10.76
  -7   2  -5  141.00   11.11
  -7   2  -5  160.66   11.28
  -7   2  -5  173.95    9.21
   7  -2   5  177.51   11.02
   7  -2   6  107.82    8.86
  -7   2  -6  118.98   10.57
  -7   2  -6  105.65    9.54
  -7   2  -6  109.79    7.62
   7  -2   6  106.71    8.87
   7  -2   7   82.51    7.90
  -7   2  -7   71.28    8.51
  -7   2  -7   87.45    8.93
  -7   2  -7   88.10    7.06
   7  -2   7   70.28    7.44
  -7   2  -8    1.13    1.21
   7  -2   8    0.93    1.19
  -7   2  -8   -0.23    1.31
   7  -2   8    1.17    1.53
  -7   2  -9   -1.37    1.96
   7  -2   9    0.50    1.31
  -7   2  -9   -1.45    2.21
   7  -2   9    0.16    1.25
   7  -2  10  120.89   11.63
  -7   2 -10  103.07   11.14
  -7   2 -10  118.26   11.74
   7  -2  10  106.37   10.13
  -7   2 -11   14.61    4.41
   7  -2  11   21.09    5.08
  -7   2 -11   14.68    4.53
   7  -2  11   12.70    3.82
   7  -2  12  100.84   11.16
  -7   2 -12  105.11   12.09
  -7   2 -12  100.80   11.81
   7  -2  12  104.71   10.70
  -7   2 -13    9.39    3.97
  -7   2 -13    8.31    3.95
   7  -2  13    8.06    3.43
  -7   1  16   22.00    5.40
  -7   1  16   26.93    6.73
   7  -1 -16   25.33    5.53
  -7   1  15    2.64    2.07
  -7   1  15    0.71    1.98
  -7   1  15    0.16    2.14
   7  -1 -15    3.45    2.28
  -7   1  14  117.25   12.40
  -7   1  14  129.98   12.77
   7  -1 -14  107.05   10.02
  -7   1  14  104.38   10.71
  -7   1  13  290.55   18.82
  -7   1  13  298.01   18.62
   7  -1 -13  305.32   16.04
  -7   1  13  298.20   17.45
  -7   1  12   44.70    6.61
  -7   1  12   29.14    6.08
  -7   1  12   49.64    7.48
   7  -1 -12   40.61    5.66
  -7   1  11   42.06    6.74
  -7   1  11   47.21    6.98
   7  -1 -11   43.42    5.63
  -7   1  11   46.27    6.53
   7  -1 -10   56.36    5.92
  -7   1  10   45.76    6.80
  -7   1  10   47.50    6.65
   7  -1 -10   41.80    5.08
  -7   1  10   51.66    6.70
   7  -1  -9   29.16    4.22
  -7   1   9   34.61    5.36
  -7   1   9   21.69    4.62
  -7   1   9   26.93    4.95
   7  -1  -9   26.71    3.95
   7  -1  -8   44.07    5.17
  -7   1   8   38.13    5.92
  -7   1   8   48.74    6.34
   7  -1  -8   37.37    4.28
  -7   1   8   39.81    5.65
   7  -1  -7  334.53   13.97
  -7   1   7  315.60   16.21
   7  -1  -7  352.05   16.54
  -7   1   7  321.56   15.86
   7  -1  -7  329.83   11.78
  -7   1   7  320.00   15.01
   7  -1  -6  310.88   13.39
  -7   1   6  289.16   15.10
   7  -1  -6  331.42   15.72
  -7   1   6  305.11   15.18
   7  -1  -6  327.16   10.94
  -7   1   6  326.67   14.87
  -7   1   5   19.79    3.83
  -7   1   5   29.07    4.85
   7  -1  -5   27.28    4.60
  -7   1   5   19.63    3.82
   7  -1  -5   17.16    3.19
  -7   1   4   56.48    6.54
   7  -1  -4   57.17    6.34
  -7   1   4   58.37    6.50
  -7   1   4   51.48    5.82
   7  -1  -4   48.34    5.28
  -7   1   3   13.47    3.25
  -7   1   3   22.30    4.10
   7  -1  -3   20.89    3.74
  -7   1   3   13.47    3.17
   7  -1  -3   21.82    3.56
   7  -1  -2  103.08    8.03
  -7   1   2   84.58    7.93
  -7   1   2   88.03    7.78
  -7   1   2   76.21    5.93
  -7   1   2   91.17    7.68
   7  -1  -2   81.02    6.85
  -7   1   1    5.29    1.95
  -7   1   1    2.52    1.72
  -7   1   1    0.99    1.00
   7  -1  -1    1.53    1.16
   7  -1  -1    3.11    1.64
  -7   1   1    3.29    2.01
  -7   1   0  567.75   20.21
   7  -1   0  556.26   18.37
  -7   1   0  559.49   19.73
  -7   1   0  566.13   14.60
   7  -1   0  540.12   17.55
  -7   1   0  555.82   19.04
  -7   1  -1    0.03    0.71
   7  -1   1   -0.76    1.26
  -7   1  -1   -0.18    1.37
   7  -1   1    4.19    1.83
  -7   1  -1    2.85    1.45
  -7   1  -1    1.87    1.38
  -7   1  -2  272.30   14.49
   7  -1   2  274.61   12.87
  -7   1  -2  268.44   13.97
  -7   1  -2  277.92    9.92
   7  -1   2  276.85   12.94
  -7   1  -3   10.48    2.12
   7  -1   3   18.64    3.54
  -7   1  -3   10.54    3.13
   7  -1   3   13.71    3.02
  -7   1  -3   19.57    3.99
   7  -1   4    3.44    1.91
  -7   1  -4    0.59    1.81
   7  -1   4    2.29    1.34
  -7   1  -4    1.78    1.99
   7  -1   5  129.70    9.09
  -7   1  -5  105.59    9.67
  -7   1  -5  122.78   10.17
   7  -1   5  129.05    9.41
   7  -1   6   75.27    7.10
  -7   1  -6   72.19    8.34
  -7   1  -6   72.16    8.06
   7  -1   6   77.45    7.60
   7  -1   7   72.72    7.03
  -7   1  -7   57.63    7.64
  -7   1  -7   64.00    7.79
   7  -1   7   64.19    7.08
  -7   1  -8   -1.22    2.57
  -7   1  -8   -0.48    1.94
   7  -1   8   -1.26    1.74
  -7   1  -9   25.27    5.45
   7  -1   9   26.75    5.51
  -7   1  -9   38.52    6.57
   7  -1   9   27.39    5.04
  -7   1 -10    4.12    2.04
   7  -1  10    1.91    1.48
  -7   1 -10    0.20    2.60
   7  -1  10    3.55    2.29
  -7   1 -11   50.74    8.13
   7  -1  11   46.42    7.84
  -7   1 -11   42.65    7.64
   7  -1  11   35.85    6.15
  -7   1 -12    3.29    2.52
   7  -1  12    9.63    4.14
  -7   1 -12    5.91    3.21
   7  -1  12    8.12    3.28
   7  -1  13   79.59   10.46
  -7   1 -13   76.14   10.51
  -7   1 -13   78.33   10.97
   7  -1  13   88.80    9.95
  -7   0  16  176.46   16.54
   7   0 -16  155.28   12.90
  -7   0  16  163.16   13.95
  -7   0  15   35.49    6.58
  -7   0  15   41.49    7.79
  -7   0  15   41.08    7.82
   7   0 -15   31.40    5.61
  -7   0  14  147.56   14.11
  -7   0  14  148.70   13.75
   7   0 -14  158.82   11.89
  -7   0  14  144.21   12.52
  -7   0  13    6.92    3.27
  -7   0  13   10.77    3.32
  -7   0  13   17.14    4.53
   7   0 -13   17.63    3.84
  -7   0  12   -1.09    1.35
  -7   0  12    1.05    1.54
  -7   0  12    0.31    1.58
   7   0 -12    1.47    1.09
  -7   0  11    2.36    1.72
   7   0 -11    4.08    1.99
  -7   0  11    5.80    2.88
  -7   0  11    4.52    2.54
   7   0 -11    6.20    2.26
  -7   0  10   17.64    4.06
   7   0 -10   21.68    3.94
  -7   0  10   21.60    4.87
  -7   0  10   18.80    4.30
   7   0 -10   18.28    3.26
   7   0  -9   95.40    8.08
  -7   0   9  101.28    9.88
  -7   0   9   98.41    9.46
   7   0  -9  113.28    7.51
  -7   0   9  115.61    9.46
   7   0  -8   11.45    2.79
  -7   0   8   10.66    2.98
  -7   0   8   12.20    3.61
  -7   0   8   16.04    4.07
   7   0  -8    5.46    1.69
   7   0  -7    5.85    2.08
  -7   0   7    5.46    2.29
  -7   0   7    6.76    2.66
  -7   0   7    6.16    2.55
   7   0  -7    4.55    1.49
  -7   0   6   -0.25    1.49
  -7   0   6   -0.10    1.28
  -7   0   6    0.63    1.72
   7   0  -6   -0.59    1.59
   7   0  -5  117.07    8.54
  -7   0   5  107.85    9.31
   7   0  -5  106.83    8.70
  -7   0   5  107.43    8.98
  -7   0   5  116.51    8.83
  -7   0   4   20.63    3.91
  -7   0   4   14.17    3.55
   7   0  -4   25.09    4.15
  -7   0   4   19.27    3.94
   7   0  -4   22.28    3.77
  -7   0   3   41.86    5.63
   7   0  -3   55.80    5.99
  -7   0   3   49.08    6.05
  -7   0   3   60.26    6.43
   7   0  -3   55.99    5.84
  -7   0   2  183.43   11.61
   7   0  -2  181.42   10.48
  -7   0   2  160.83   10.83
  -7   0   2  184.94    7.84
  -7   0   2  167.84   10.63
   7   0  -2  171.24   10.05
  -7   0   1  108.03    8.94
   7   0  -1  124.78    8.60
  -7   0   1  124.18    9.42
  -7   0   1  121.30    5.96
  -7   0   1  119.78    9.10
   7   0  -1  118.76    8.43
  -7   0   0   16.11    3.59
   7   0   0   23.61    3.85
   7   0   0   19.06    3.57
  -7   0   0   15.29    3.05
  -7   0   0   16.14    3.77
  -7   0  -1  561.68   20.44
   7   0   1  533.77   17.32
  -7   0  -1  560.00   17.45
  -7   0  -1  561.28   20.60
   7   0   1  545.12   18.22
  -7   0  -2    0.13    1.34
   7   0   2    1.16    1.12
   7   0   2    0.33    1.02
  -7   0  -2   -0.48    1.57
  -7   0  -2    1.21    1.17
   7   0   3  280.48   12.56
  -7   0  -3  275.45   14.79
  -7   0  -3  298.53   15.55
  -7   0  -3  282.10   11.90
   7   0   3  299.02   13.84
   7   0   4  125.15    8.38
  -7   0  -4  124.43   10.25
  -7   0  -4  129.39   10.50
   7   0   4  132.21    9.39
   7   0   5  428.34   15.73
  -7   0  -5  375.69   18.13
  -7   0  -5  405.23   18.95
   7   0   5  431.89   17.29
  -7   0  -6   10.23    3.37
  -7   0  -6    8.39    3.04
  -7   0  -7    1.41    1.79
   7   0   7    5.45    2.38
  -7   0  -8   27.65    5.42
  -7   0  -8   26.72    5.55
   7   0   8   23.48    4.51
  -7   0  -9    1.18    2.00
   7   0   9    0.86    1.70
  -7   0  -9   -0.23    1.88
   7   0   9   -0.23    1.38
  -7   0 -10    8.52    3.41
   7   0  10    5.28    2.73
  -7   0 -10    7.44    3.73
   7   0  10   10.99    3.35
  -7   0 -11   -0.84    1.88
   7   0  11   -0.49    1.70
  -7   0 -11    3.84    2.77
   7   0  11   -1.48    1.77
  -7   0 -12   61.42    9.42
   7   0  12   60.31    9.26
  -7   0 -12   65.38    9.78
   7   0  12   60.71    7.96
  -7   0 -13   39.12    7.49
   7   0  13   31.42    6.87
  -7  -1  16   10.02    3.64
  -7  -1  16    8.40    4.04
   7   1 -16   11.73    3.64
  -7  -1  15  550.08   28.48
  -7  -1  15  527.00   26.84
   7   1 -15  542.35   22.43
  -7  -1  15  481.38   22.98
  -7  -1  14   19.06    4.61
  -7  -1  14   19.11    5.33
  -7  -1  14   17.32    5.06
   7   1 -14   24.00    4.67
   7   1 -13  111.58    9.85
  -7  -1  13  104.93   11.69
  -7  -1  13  111.79   11.69
   7   1 -13   99.13    8.75
  -7  -1  13  108.50   10.38
  -7  -1  12   21.84    4.60
  -7  -1  12   25.98    5.81
   7   1 -12   16.69    3.83
  -7  -1  12   21.08    4.95
   7   1 -12   20.75    3.84
  -7  -1  11    5.14    2.23
  -7  -1  11   10.09    3.53
   7   1 -11    7.97    2.69
  -7  -1  11    2.93    2.26
   7   1 -10   78.76    7.96
  -7  -1  10   74.31    8.93
  -7  -1  10   75.25    8.51
  -7  -1  10   70.71    7.65
   7   1  -9  219.74   12.93
  -7  -1   9  226.75   14.89
  -7  -1   9  217.04   14.06
  -7  -1   9  186.08   12.01
   7   1  -8  419.03   17.49
  -7  -1   8  446.99   20.22
  -7  -1   8  416.45   18.92
  -7  -1   8  415.35   17.45
   7   1  -7  202.92   11.96
  -7  -1   7  199.44   13.19
  -7  -1   7  201.65   12.97
  -7  -1   7  208.37   12.15
   7   1  -6   70.18    7.00
  -7  -1   6   78.04    8.07
  -7  -1   6   70.13    7.58
  -7  -1   6   80.18    5.58
  -7  -1   6   67.10    6.87
   7   1  -5  491.21   18.07
  -7  -1   5  524.01   20.35
  -7  -1   5  514.23   19.86
  -7  -1   5  535.96   14.51
  -7  -1   5  515.45   18.75
  -7  -1   4   24.51    4.32
  -7  -1   4   21.92    4.23
   7   1  -4   26.76    4.31
  -7  -1   4   27.54    4.65
  -7  -1   4   21.45    3.00
   7   1  -4   30.36    4.51
   7   1  -3   46.53    5.48
  -7  -1   3   56.24    6.59
   7   1  -3   51.31    5.67
  -7  -1   3   53.36    6.52
  -7  -1   3   59.13    4.93
  -7  -1   3   55.74    6.29
  -7  -1   2   73.23    7.42
   7   1  -2   67.36    6.41
  -7  -1   2   77.39    7.28
  -7  -1   2   83.21    7.95
  -7  -1   2   70.69    7.11
   7   1  -2   72.95    6.96
   7   1  -1  363.74   14.38
  -7  -1   1  357.70   16.20
  -7  -1   1  324.55   14.49
  -7  -1   1  346.88   16.13
   7   1  -1  343.08   14.76
  -7  -1   0   47.85    6.02
   7   1   0   48.13    5.13
  -7  -1   0   49.45    5.75
  -7  -1   0   61.00    6.97
   7   1   0   49.90    5.78
  -7  -1  -1  789.65   24.42
   7   1   1  760.84   20.03
  -7  -1  -1  728.66   21.50
  -7  -1  -1  785.70   24.77
   7   1   1  770.31   22.23
  -7  -1  -2  183.28   11.94
   7   1   2  180.63    9.70
  -7  -1  -2  189.73   12.45
  -7  -1  -2  160.12   10.02
   7   1   2  182.07   10.87
   7   1   3   85.05    6.60
  -7  -1  -3   80.34    7.97
  -7  -1  -3  101.80    9.30
  -7  -1  -3   90.45    7.51
   7   1   3   93.32    7.88
   7   1   4   15.49    3.26
  -7  -1  -4    9.88    2.95
  -7  -1  -4   12.76    3.64
  -7  -1  -4    4.97    1.90
  -7  -1  -4   12.55    2.76
   7   1   5    0.62    1.49
  -7  -1  -5    1.65    1.86
  -7  -1  -5    7.19    3.09
  -7  -1  -5    3.96    2.05
  -7  -1  -6  197.88   13.51
  -7  -1  -6  237.20   15.39
  -7  -1  -6  223.98   12.75
   7   1   6  223.64   12.84
   7   1   7   32.76    5.16
  -7  -1  -7   34.21    5.88
  -7  -1  -7   36.38    6.35
  -7  -1  -7   34.72    5.34
  -7  -1  -8  257.59   16.38
  -7  -1  -8  277.02   17.68
  -7  -1  -8  248.96   15.08
   7   1   8  252.23   14.32
   7   1   9  230.91   17.24
  -7  -1  -9  253.42   17.46
  -7  -1  -9  229.77   15.97
  -7  -1  -9  263.96   16.62
   7   1   9  247.16   14.55
  -7  -1 -10   -1.50    2.56
   7   1  10    2.12    2.69
  -7  -1 -10    0.65    2.00
  -7  -1 -10   -1.56    1.72
   7   1  10   -1.24    1.56
  -7  -1 -11    3.00    2.12
   7   1  11    0.95    1.93
  -7  -1 -11    1.80    2.59
   7   1  11    4.02    1.39
  -7  -1 -12   29.63    6.57
   7   1  12   26.93    6.34
  -7  -1 -12   26.89    6.54
  -7  -1 -12   27.20    6.40
  -7  -1 -13   43.00    8.11
  -7  -2  16    0.02    1.36
   7   2 -16   -1.67    1.85
  -7  -2  15    5.16    2.53
  -7  -2  15    4.49    2.11
  -7  -2  15    4.71    2.88
  -7  -2  14   29.73    5.60
  -7  -2  14   32.24    6.75
  -7  -2  14   32.46    6.50
   7   2 -14   20.57    4.59
  -7  -2  13   -0.27    1.57
  -7  -2  13    1.59    2.04
  -7  -2  13   -0.18    2.08
   7   2 -13   -0.99    1.49
  -7  -2  12   18.64    4.26
  -7  -2  12   25.56    5.77
  -7  -2  12   22.71    5.07
   7   2 -12   17.83    4.27
   7   2 -11  192.87   13.21
  -7  -2  11  196.08   14.48
  -7  -2  11  194.81   15.12
  -7  -2  11  219.64   13.65
  -7  -2  10   37.94    5.75
  -7  -2  10   26.51    5.46
   7   2 -10   34.61    5.55
  -7  -2  10   28.29    5.68
   7   2  -9  277.26   15.14
  -7  -2   9  267.37   16.58
  -7  -2   9  297.47   16.53
  -7  -2   9  285.39   14.89
  -7  -2   8    0.30    1.65
  -7  -2   8    1.28    1.82
   7   2  -8   -0.80    1.77
  -7  -2   8    0.23    1.69
  -7  -2   7   27.83    4.63
   7   2  -7   36.37    5.45
  -7  -2   7   35.72    5.80
  -7  -2   7   24.36    4.84
  -7  -2   7   27.13    3.65
  -7  -2   6   28.23    4.66
   7   2  -6   29.92    4.87
  -7  -2   6   26.16    4.99
  -7  -2   6   29.25    5.17
  -7  -2   6   26.74    3.69
   7   2  -5   15.08    3.60
  -7  -2   5   14.97    3.46
  -7  -2   5   13.58    3.44
  -7  -2   5   15.24    3.70
  -7  -2   5   18.62    3.20
   7   2  -4   69.29    7.11
  -7  -2   4   56.57    6.70
  -7  -2   4   53.69    6.55
  -7  -2   4   47.26    4.83
  -7  -2   4   67.55    7.09
  -7  -2   3    2.72    2.05
   7   2  -3    0.42    0.93
  -7  -2   3    0.57    1.59
  -7  -2   3   -0.87    1.72
  -7  -2   3    2.99    1.79
  -7  -2   3    1.50    1.62
   7   2  -3    1.52    1.58
   7   2  -2  559.74   19.60
  -7  -2   2  578.44   20.88
   7   2  -2  600.82   18.68
  -7  -2   2  581.22   20.95
  -7  -2   2  564.27   21.07
  -7  -2   2  594.74   17.60
  -7  -2   1    0.97    1.40
   7   2  -1    3.34    1.69
  -7  -2   1    1.65    1.82
  -7  -2   1    2.95    1.96
   7   2  -1    1.59    1.23
  -7  -2   0    4.98    2.42
   7   2   0    6.11    1.96
  -7  -2   0    6.18    2.55
  -7  -2   0    5.57    2.48
   7   2   0    9.94    2.80
  -7  -2  -1    8.40    2.79
   7   2   1    8.12    2.16
   7   2   1    8.94    2.63
  -7  -2  -1    8.33    2.89
  -7  -2  -1    5.42    2.40
  -7  -2  -2  230.20   13.47
   7   2   2  249.74   10.87
  -7  -2  -2  234.19   14.19
  -7  -2  -2  226.69   12.78
   7   2   2  240.14   12.84
  -7  -2  -3   43.19    6.04
  -7  -2  -3   55.33    7.07
  -7  -2  -3   53.42    6.32
   7   2   3   57.91    6.37
  -7  -2  -4   36.09    5.68
  -7  -2  -4   37.68    6.01
  -7  -2  -4   38.35    5.28
  -7  -2  -4   35.18    4.74
   7   2   4   45.89    5.77
   7   2   5    0.99    1.57
  -7  -2  -5   -0.43    1.64
  -7  -2  -5    1.57    1.51
  -7  -2  -5    0.34    0.93
  -7  -2  -5    3.36    1.95
   7   2   6    0.68    1.62
  -7  -2  -6   -0.29    1.21
  -7  -2  -6    0.47    1.71
  -7  -2  -6    0.13    1.13
   7   2   7   12.39    3.27
  -7  -2  -7    9.29    3.51
  -7  -2  -7   15.96    4.52
  -7  -2  -7    9.86    3.09
   7   2   8  225.72   17.08
  -7  -2  -8  247.65   15.96
  -7  -2  -8  237.70   16.89
  -7  -2  -8  241.53   15.61
   7   2   8  214.71   13.33
  -7  -2  -9   -1.11    1.52
   7   2   9    0.86    2.01
  -7  -2  -9   -0.80    1.70
  -7  -2  -9    1.75    2.89
   7   2   9    2.16    1.84
   7   2  10  214.49   17.59
  -7  -2 -10  226.77   17.57
  -7  -2 -10  205.74   16.08
  -7  -2 -10  168.60   14.05
  -7  -2 -11    1.77    1.71
   7   2  11   -1.31    1.82
  -7  -2 -11    3.95    2.29
  -7  -2 -11   -2.40    2.45
  -7  -2 -12    1.08    2.72
  -7  -3  15    5.39    2.63
   7   3 -15    2.09    1.76
  -7  -3  14    7.40    2.96
  -7  -3  14   12.12    4.63
  -7  -3  14    8.53    3.40
   7   3 -14    7.08    2.88
  -7  -3  13    2.36    1.98
  -7  -3  13    3.01    2.99
  -7  -3  13    1.04    1.70
   7   3 -13    1.09    1.53
  -7  -3  12   -1.15    2.04
  -7  -3  12   -0.11    1.60
  -7  -3  12    0.13    1.98
   7   3 -12   -0.45    1.60
   7   3 -11   61.51    7.87
  -7  -3  11   64.12    8.91
  -7  -3  11   54.06    7.66
  -7  -3  11   62.05    7.32
   7   3 -10  110.33   10.25
  -7  -3  10   96.91   10.46
  -7  -3  10  108.74   10.50
  -7  -3  10  120.13    9.92
   7   3 -10  110.00    9.04
   7   3  -9   17.38    3.61
  -7  -3   9   17.70    3.95
  -7  -3   9   19.54    4.96
  -7  -3   9   17.10    4.19
   7   3  -9   17.85    4.16
  -7  -3   9   21.14    3.83
   7   3  -8  144.07   11.28
  -7  -3   8  145.39   12.06
  -7  -3   8  138.55   11.31
  -7  -3   8  134.09    9.13
  -7  -3   8  131.31   10.07
   7   3  -8  130.47    9.02
   7   3  -7   19.89    3.53
  -7  -3   7   16.28    3.68
  -7  -3   7   17.31    4.18
   7   3  -7   22.13    4.54
  -7  -3   7   17.20    3.95
  -7  -3   7   16.75    3.36
   7   3  -6  217.22   13.41
  -7  -3   6  221.81   14.01
  -7  -3   6  238.95   14.29
  -7  -3   6  250.17   12.32
  -7  -3   6  227.51   12.99
   7   3  -6  248.33   11.52
   7   3  -5    6.64    1.97
  -7  -3   5    6.34    2.42
   7   3  -5    6.96    2.79
  -7  -3   5    2.87    1.65
  -7  -3   5    4.44    2.79
  -7  -3   5    6.19    2.57
  -7  -3   5    4.52    1.87
   7   3  -4    3.11    1.52
   7   3  -4    2.91    2.17
  -7  -3   4    1.18    1.20
  -7  -3   4    1.02    1.72
  -7  -3   4    0.64    1.46
  -7  -3   4    2.66    1.50
   7   3  -3   47.72    6.12
   7   3  -3   53.41    5.66
  -7  -3   3   41.07    5.80
  -7  -3   3   45.04    6.55
  -7  -3   3   55.47    6.85
  -7  -3   3   55.15    5.83
   7   3  -2  103.55    8.67
  -7  -3   2   94.28    8.63
   7   3  -2   99.96    7.58
  -7  -3   2   91.18    8.99
  -7  -3   2  104.58    9.34
  -7  -3   2   98.54    7.82
   7   3  -1   74.73    7.48
  -7  -3   1   65.27    7.13
   7   3  -1   70.71    6.05
  -7  -3   1   68.01    7.70
  -7  -3   1   72.69    7.85
  -7  -3   1   78.08    7.03
  -7  -3   0  261.99   14.12
   7   3   0  269.53   11.44
  -7  -3   0  279.99   15.39
  -7  -3   0  238.17   14.21
   7   3   0  270.05   13.94
  -7  -3  -1    1.96    1.62
  -7  -3  -1    6.06    2.61
  -7  -3  -1    2.18    1.86
   7   3   1    8.43    2.70
  -7  -3  -2    5.28    2.30
   7   3   2    8.16    2.62
  -7  -3  -2    2.40    1.90
  -7  -3  -2   -0.32    1.06
  -7  -3  -3    4.27    2.11
   7   3   3    9.24    2.83
  -7  -3  -3    5.80    2.69
  -7  -3  -3    4.03    2.17
  -7  -3  -4    1.02    1.13
   7   3   4   -4.12    1.98
  -7  -3  -4   -2.96    2.07
  -7  -3  -4    0.07    1.22
  -7  -3  -5   50.41    6.79
  -7  -3  -5   41.87    6.75
  -7  -3  -5   39.66    5.81
  -7  -3  -5   57.91    6.83
   7   3   5   48.94    6.10
  -7  -3  -6  134.86   11.21
  -7  -3  -6  158.07   13.27
  -7  -3  -6  159.27   11.93
   7   3   6  156.36   11.06
   7   3   7  154.83   14.20
  -7  -3  -7  173.60   14.36
  -7  -3  -7  175.10   13.01
  -7  -3  -7  175.18   13.23
   7   3   7  158.51   11.26
   7   3   8   74.21   10.04
  -7  -3  -8   80.39    9.16
  -7  -3  -8   73.02    9.67
  -7  -3  -8   79.30    9.38
   7   3   8   85.21    8.51
   7   3   9    5.32    2.97
  -7  -3  -9    0.91    1.91
  -7  -3  -9    7.14    3.26
   7   3  10    3.13    3.06
  -7  -3 -10   -0.66    2.82
  -7  -3 -10   -2.24    3.76
  -7  -3 -11   -8.78    3.83
   7   4 -16   53.82    8.54
  -7  -4  15   -2.42    3.31
  -7  -4  15   -0.19    1.70
   7   4 -15   -0.19    1.69
  -7  -4  14    2.70    2.45
  -7  -4  14    5.16    2.93
   7   4 -14    4.43    2.69
   7   4 -13   68.32    9.15
  -7  -4  13   72.26   10.01
  -7  -4  13   58.94    8.76
   7   4 -13   77.00    8.53
   7   4 -12   23.76    4.70
  -7  -4  12   21.79    4.47
  -7  -4  12   21.24    5.59
  -7  -4  12   24.66    5.47
   7   4 -12   24.07    5.52
   7   4 -11  183.82   14.16
  -7  -4  11  167.72   14.22
  -7  -4  11  183.12   14.24
  -7  -4  11  181.92   12.55
   7   4 -11  188.36   12.52
   7   4 -10   86.65    9.49
  -7  -4  10   83.63   10.02
  -7  -4  10   86.89    9.59
  -7  -4  10  101.15    8.94
  -7  -4  10   83.50    8.37
   7   4 -10   77.00    7.81
  -7  -4   9   38.91    5.76
  -7  -4   9   45.95    7.20
  -7  -4   9   52.94    7.42
  -7  -4   9   45.86    5.96
   7   4  -9   42.06    6.58
   7   4  -9   42.86    5.64
   7   4  -8   16.01    3.34
  -7  -4   8   11.98    3.28
  -7  -4   8    7.29    2.78
  -7  -4   8    6.05    2.65
   7   4  -8    8.51    3.04
  -7  -4   8   12.51    3.19
   7   4  -7    5.73    2.00
  -7  -4   7    7.70    2.97
  -7  -4   7    2.25    1.73
   7   4  -7    2.67    1.99
  -7  -4   7    6.92    3.18
  -7  -4   7    6.84    2.81
  -7  -4   7    5.14    2.44
   7   4  -6   47.26    6.65
  -7  -4   6   61.54    7.61
  -7  -4   6   57.52    7.78
  -7  -4   6   38.63    6.01
  -7  -4   6   57.98    6.43
   7   4  -6   59.92    5.88
   7   4  -5   83.16    8.49
  -7  -4   5   88.37    8.84
  -7  -4   5   82.12    9.21
  -7  -4   5   89.28    8.84
  -7  -4   5   93.62    8.24
   7   4  -5   86.68    6.76
   7   4  -4  606.55   22.69
  -7  -4   4  553.09   21.50
  -7  -4   4  603.02   24.58
  -7  -4   4  611.17   22.97
  -7  -4   4  612.64   20.86
   7   4  -4  626.36   17.21
   7   4  -3  105.34    9.38
  -7  -4   3   90.25    8.64
  -7  -4   3   89.55    9.49
  -7  -4   3  108.63    9.78
  -7  -4   3  101.20    8.61
   7   4  -3  116.11    7.02
   7   4  -2  311.50   15.89
  -7  -4   2  302.74   15.47
   7   4  -2  324.89   13.44
  -7  -4   2  286.89   16.81
  -7  -4   2  300.59   16.13
  -7  -4   2  307.64   15.04
  -7  -4   1   -4.90    2.19
  -7  -4   1    1.45    1.85
  -7  -4   1   -0.67    1.56
  -7  -4   1    0.09    1.21
   7   4  -1    0.26    1.73
  -7  -4   0    6.02    2.40
  -7  -4   0   10.83    3.19
  -7  -4   0    9.70    3.41
   7   4   0   13.37    3.47
  -7  -4  -1   24.81    4.55
  -7  -4  -1   36.55    5.99
  -7  -4  -1   27.75    5.43
   7   4   1   29.87    4.89
  -7  -4  -2   31.20    5.27
  -7  -4  -2   36.27    5.97
  -7  -4  -2   35.38    5.97
   7   4   2   38.65    5.75
  -7  -4  -3  134.20   10.60
  -7  -4  -3  129.71   11.40
  -7  -4  -3  119.84   10.76
   7   4   3  148.31   10.78
  -7  -4  -4   69.91    7.69
  -7  -4  -4   75.93    8.95
  -7  -4  -4   89.85    9.31
   7   4   4   89.45    8.43
   7   4   5    7.08    2.49
  -7  -4  -5    4.85    2.56
  -7  -4  -5    4.32    2.34
   7   4   6   42.03    5.95
  -7  -4  -6   49.46    7.65
  -7  -4  -6   31.02    5.70
  -7  -4  -6   43.73    6.80
   7   4   7    2.91    1.76
   7   4   7    4.65    3.09
  -7  -4  -7    0.80    1.83
  -7  -4  -7    2.64    2.31
   7   4   8   10.18    4.56
  -7  -4  -8   13.28    4.36
  -7  -4  -8   12.02    4.04
   7   4   9    0.80    1.71
  -7  -4  -9    6.24    3.08
  -7  -4 -10   14.28    4.87
  -7  -5  15   -2.42    2.90
   7   5 -15    0.76    2.37
   7   5 -14   28.61    5.54
  -7  -5  14   33.14    7.28
  -7  -5  14   39.42    7.35
   7   5 -14   37.88    7.31
   7   5 -13   98.12   11.36
  -7  -5  13   87.78   11.14
  -7  -5  13   99.85   11.29
   7   5 -13   95.37    9.70
   7   5 -12   -0.02    1.78
  -7  -5  12    0.50    2.06
  -7  -5  12    1.39    2.25
   7   5 -12   -0.95    2.21
   7   5 -11   -0.29    1.23
  -7  -5  11   -3.39    2.55
  -7  -5  11   -2.37    3.33
  -7  -5  11   -1.32    2.25
  -7  -5  11    5.13    2.45
   7   5 -11   -5.21    2.83
   7   5 -10    0.67    1.48
  -7  -5  10    4.57    2.88
  -7  -5  10    2.36    2.34
  -7  -5  10    6.24    3.17
  -7  -5  10    0.46    0.99
   7   5 -10    6.09    3.14
   7   5  -9   11.29    3.21
  -7  -5   9   14.72    3.69
  -7  -5   9   14.84    4.49
  -7  -5   9   16.26    4.98
  -7  -5   9   13.26    3.87
   7   5  -9   12.67    4.06
  -7  -5   9    8.83    2.96
   7   5  -8   19.76    3.89
  -7  -5   8   18.45    4.67
  -7  -5   8    8.69    3.11
  -7  -5   8   14.44    4.01
   7   5  -8   14.76    4.26
  -7  -5   8   11.32    3.32
   7   5  -7   99.15   10.04
  -7  -5   7   87.28    9.41
  -7  -5   7   87.41   10.27
  -7  -5   7  100.16    9.83
  -7  -5   7   81.70    8.27
   7   5  -7   80.19    7.27
   7   5  -6    6.23    2.22
  -7  -5   6    1.40    1.78
   7   5  -6    3.27    2.01
  -7  -5   6    3.71    2.23
  -7  -5   6    4.30    2.22
  -7  -5   6    4.37    2.03
   7   5  -5    6.20    2.11
   7   5  -5   12.90    3.75
  -7  -5   5   11.35    3.61
  -7  -5   5    8.00    3.59
  -7  -5   5   10.79    3.25
  -7  -5   5    8.03    2.80
   7   5  -4   20.70    3.35
   7   5  -4   18.10    4.26
  -7  -5   4   11.84    3.45
  -7  -5   4   18.70    4.92
  -7  -5   4   16.98    4.15
  -7  -5   4   15.90    3.90
   7   5  -3  438.99   19.70
   7   5  -3  381.73   16.17
  -7  -5   3  409.37   18.46
  -7  -5   3  408.32   21.38
  -7  -5   3  390.67   18.94
  -7  -5   3  412.11   18.30
   7   5  -2  296.45   16.08
   7   5  -2  303.83   14.37
  -7  -5   2  291.33   15.35
  -7  -5   2  316.80   16.98
  -7  -5   2  296.30   18.11
  -7  -5   2  297.25   15.72
   7   5  -1  202.53   13.09
   7   5  -1  204.63   11.68
  -7  -5   1  198.16   12.54
  -7  -5   1  212.71   14.06
  -7  -5   1  191.77   14.48
  -7  -5   1  210.67   13.31
  -7  -5   0    1.76    1.17
  -7  -5   0    4.87    2.55
  -7  -5   0    8.81    3.61
   7   5   0    4.26    2.05
  -7  -5  -1   -2.32    1.60
  -7  -5  -1    0.77    1.45
  -7  -5  -1   -0.27    1.80
   7   5   1   -0.03    1.20
  -7  -5  -2   16.25    4.32
   7   5   2   13.23    3.48
  -7  -5  -2    6.19    2.92
  -7  -5  -3  213.39   14.97
  -7  -5  -3  220.52   15.48
   7   5   3  221.01   13.48
  -7  -5  -4  302.73   18.20
  -7  -5  -4  304.87   18.31
   7   5   4  312.86   15.96
  -7  -5  -5   50.11    7.80
  -7  -5  -5   46.44    7.23
   7   5   5   47.91    6.37
   7   5   6  192.88   16.30
  -7  -5  -6  224.98   16.60
  -7  -5  -6  198.72   14.73
   7   5   7   14.39    4.65
  -7  -5  -7   14.73    4.59
   7   5   8   15.40    4.99
  -7  -5  -8   20.09    5.47
  -7  -6  14    1.26    2.19
   7   6 -13   49.13    7.16
  -7  -6  13   59.89    9.50
  -7  -6  13   55.70    9.23
  -7  -6  13   53.28    8.35
   7   6 -13   45.48    8.09
   7   6 -12    0.27    1.83
  -7  -6  12   -1.52    2.26
  -7  -6  12    0.83    1.69
  -7  -6  12   -1.18    2.32
   7   6 -12   -1.58    1.75
   7   6 -11   95.53   11.08
  -7  -6  11   96.46   11.23
  -7  -6  11   86.88   11.45
  -7  -6  11   95.19   10.59
  -7  -6  11   91.21    9.82
   7   6 -11   92.93    9.27
   7   6 -10   43.82    6.24
  -7  -6  10   29.79    6.41
  -7  -6  10   46.47    8.10
  -7  -6  10   42.69    6.99
  -7  -6  10   45.65    6.94
   7   6 -10   30.19    6.14
   7   6  -9    4.70    2.27
  -7  -6   9    3.00    2.51
  -7  -6   9    5.14    3.32
  -7  -6   9    2.38    1.94
   7   6  -9    5.17    2.90
   7   6  -8   64.24    8.63
  -7  -6   8   62.68    8.33
  -7  -6   8   67.17    9.72
  -7  -6   8   74.03    8.71
  -7  -6   8   63.06    7.83
   7   6  -8   63.72    6.94
   7   6  -7   30.97    4.73
  -7  -6   7   34.26    6.19
   7   6  -7   27.21    5.70
  -7  -6   7   28.95    6.43
  -7  -6   7   27.91    5.49
  -7  -6   7   33.86    5.75
   7   6  -6  234.94   15.74
  -7  -6   6  227.07   14.96
  -7  -6   6  222.11   17.18
  -7  -6   6  251.91   15.66
  -7  -6   6  216.74   14.31
   7   6  -6  253.16   12.84
   7   6  -5    1.35    1.65
   7   6  -5   -0.17    1.53
  -7  -6   5    0.23    1.30
  -7  -6   5    1.19    1.66
  -7  -6   5   -1.09    1.83
  -7  -6   5    0.62    1.86
   7   6  -4  162.24   12.74
  -7  -6   4  177.72   12.48
  -7  -6   4  164.01   14.54
  -7  -6   4  178.75   13.20
  -7  -6   4  175.23   12.77
   7   6  -3   61.74    7.84
   7   6  -3   57.71    6.93
  -7  -6   3   58.71    7.13
  -7  -6   3   64.99    7.95
  -7  -6   3   58.52    8.80
  -7  -6   3   54.73    7.11
   7   6  -2   19.74    4.44
   7   6  -2   19.13    4.06
  -7  -6   2   19.04    4.40
  -7  -6   2   13.42    4.58
  -7  -6   2   14.91    3.83
   7   6  -1    0.89    1.73
  -7  -6   1    0.84    1.42
  -7  -6   1    5.69    2.86
  -7  -6   1    1.49    1.91
   7   6  -1    0.46    1.37
   7   6   0   -0.25    1.13
  -7  -6   0    5.13    2.63
  -7  -6   0    0.49    1.70
  -7  -6   0    1.03    1.64
   7   6   0    0.20    1.12
  -7  -6  -1  159.81   12.82
  -7  -6  -1  163.97   14.20
   7   6   1  177.00   12.54
  -7  -6  -2   -0.09    2.18
   7   6   2    0.23    1.26
  -7  -6  -2    0.45    2.08
  -7  -6  -3  105.36   10.83
  -7  -6  -3   89.86   10.74
   7   6   3  111.67    9.96
   7   6   4   78.75   10.20
  -7  -6  -4   86.16   10.09
  -7  -6  -4   78.82   10.11
   7   6   4   74.93    8.07
   7   6   5   32.60    6.81
  -7  -6  -5   23.63    5.63
  -7  -6  -5   38.01    6.94
   7   6   6    3.56    3.29
  -7  -6  -6    3.16    2.67
  -7  -6  -6   -4.53    2.62
   7   6   7    7.58    2.65
  -7  -6  -7    5.77    2.64
  -7  -7  13    8.75    3.89
   7   7 -12   -1.30    2.71
  -7  -7  12    1.65    1.95
  -7  -7  12    6.50    4.12
  -7  -7  12    2.25    2.04
   7   7 -12    2.86    2.43
   7   7 -11    5.16    2.88
  -7  -7  11   -0.43    2.44
  -7  -7  11   -1.16    3.04
  -7  -7  11    2.77    1.88
   7   7 -11    0.41    1.78
   7   7 -10   10.99    3.29
  -7  -7  10   10.75    3.94
  -7  -7  10    4.87    3.86
   7   7 -10    5.34    3.26
  -7  -7  10    6.73    2.97
  -7  -7   9   40.45    7.11
  -7  -7   9   36.91    7.76
  -7  -7   9   39.13    6.62
   7   7  -9   46.82    7.65
  -7  -7   9   34.26    6.17
   7   7  -9   48.75    6.60
   7   7  -8   63.37    9.01
  -7  -7   8   54.14    7.92
  -7  -7   8   82.79   11.24
  -7  -7   8   73.70    9.05
  -7  -7   8   59.86    8.16
   7   7  -8   67.96    7.49
   7   7  -7  118.87   11.84
  -7  -7   7  117.84   11.40
  -7  -7   7  119.89   13.29
  -7  -7   7  137.32   11.95
  -7  -7   7  115.72   11.28
   7   7  -7  127.38    9.72
   7   7  -6   23.90    4.30
   7   7  -6   15.18    4.30
  -7  -7   6   20.04    5.88
  -7  -7   6   26.72    5.49
  -7  -7   6   21.01    4.73
   7   7  -5    1.86    1.81
  -7  -7   5   -1.06    2.71
  -7  -7   5   -1.11    2.21
  -7  -7   5    1.12    1.40
   7   7  -4    4.24    2.84
  -7  -7   4    2.35    2.12
  -7  -7   4    0.33    2.01
  -7  -7   4   -1.22    1.81
   7   7  -4    2.69    2.33
   7   7  -3   10.53    3.53
   7   7  -3    5.10    2.41
  -7  -7   3    5.04    2.50
  -7  -7   3   -1.30    2.52
  -7  -7   3    5.98    2.68
   7   7  -2   16.57    4.45
   7   7  -2   12.70    3.58
  -7  -7   2   13.26    3.72
  -7  -7   2    8.99    4.17
  -7  -7   2   20.23    4.82
   7   7  -1   44.41    6.40
  -7  -7   1   40.16    6.59
  -7  -7   1   42.04    7.73
  -7  -7   1   52.18    7.59
   7   7  -1   45.88    6.82
   7   7   0    4.96    2.39
  -7  -7   0    8.51    3.08
  -7  -7   0    3.09    2.68
  -7  -7   0    8.85    3.54
   7   7   0    4.81    1.78
  -7  -7  -1   91.68    9.92
  -7  -7  -1   90.37   11.04
   7   7   1   97.80    9.71
  -7  -7  -2   15.23    4.50
   7   7   2   14.60    3.85
  -7  -7  -2   11.43    4.33
   7   7   3    3.22    2.40
  -7  -7  -3    2.90    2.17
  -7  -7  -3    2.53    2.16
   7   7   4   31.51    6.61
  -7  -7  -4   25.42    5.66
  -7  -7  -4   29.02    6.25
   7   7   5   10.20    4.00
  -7  -7  -5    7.65    3.47
  -7  -7  -5    0.98    1.46
  -7  -7  -6    2.74    2.64
  -7  -7  -6   -0.83    1.92
   7   8 -11    1.03    2.08
  -7  -8  11    3.27    2.49
   7   8 -10   -1.65    1.72
  -7  -8  10    0.76    1.91
   7   8  -9    2.62    1.81
  -7  -8   9   -0.17    2.84
   7   8  -9    0.68    1.56
  -7  -8   9    5.14    2.93
   7   8  -8  247.84   18.01
  -7  -8   8  297.13   22.10
  -7  -8   8  256.86   17.84
   7   8  -8  280.22   15.53
   7   8  -7   14.77    4.49
  -7  -8   7    8.72    4.47
  -7  -8   7   14.81    4.60
   7   8  -6  228.14   16.68
  -7  -8   6  245.98   20.01
  -7  -8   6  237.49   16.97
   7   8  -5   45.13    7.51
  -7  -8   5   44.62    8.73
  -7  -8   5   42.77    7.30
   7   8  -4   -1.22    1.85
   7   8  -4    1.06    1.95
  -7  -8   4   -0.66    1.94
  -7  -8   4    5.78    3.18
   7   8  -3    0.99    1.68
   7   8  -3    0.71    1.53
  -7  -8   3    4.95    3.50
  -7  -8   3    2.03    2.32
   7   8  -2   14.91    4.28
  -7  -8   2   16.29    5.22
  -7  -8   2   17.46    4.81
   7   8  -2   11.56    3.70
  -7  -8   1   22.10    6.02
  -7  -8   1   24.24    5.44
   7   8  -1   19.66    4.69
  -7  -8   0    2.00    2.66
  -7  -8   0   12.48    4.13
   7   8   0    9.73    3.59
   7   8   1   56.15    8.34
  -7  -8  -1   56.75    9.22
   7   8   2    9.64    3.82
  -7  -8  -2   13.35    4.66
   7   8   3    1.41    1.99
  -7  -8  -3   -2.20    2.94
   7   9  -6   26.60    6.03
  -7  -9   6   11.13    4.22
   7   9  -5    2.70    2.60
   7   9  -5    1.06    2.24
  -7  -9   5   -0.71    1.98
   7   9  -4    4.78    2.76
   7   9  -4    1.43    1.84
  -7  -9   4    3.41    2.77
   7   9  -3   39.06    7.04
  -7  -9   3   37.16    7.16
   7   9  -2   56.71    8.21
   8 -11  -2    7.29    3.51
   8 -11  -1    0.34    0.95
   8 -11   0    2.87    2.94
   8 -11   1   33.82    7.15
   8 -11   2   -5.76    3.26
   8 -10  -5    0.80    1.63
   8 -10  -4    1.11    2.06
  -8  10   4    0.15    1.73
  -8  10   3   -0.58    2.41
   8 -10  -3    5.08    2.76
  -8  10   2    8.24    3.30
   8 -10  -2   19.82    5.05
  -8  10   1    9.19    3.98
   8 -10  -1    6.71    3.09
  -8  10   0   23.86    5.79
   8 -10   0   25.08    5.91
  -8  10  -1   42.54    7.80
   8 -10   1   45.81    7.92
   8 -10   2   88.72   10.99
  -8  10  -2   86.57   11.02
  -8  10  -3   11.77    4.39
   8 -10   3    6.94    3.35
  -8  10  -4   37.79    7.74
  -8  10  -4   39.24    7.57
   8 -10   4   49.09    8.49
  -8  10  -5   14.74    4.80
  -8  10  -5    8.36    3.77
   8 -10   5    5.67    3.20
  -8  10  -6   37.48    7.45
  -8  10  -6   41.44    7.77
   8  -9  -8  128.95   13.21
  -8   9   8  135.39   12.19
   8  -9  -7    0.14    2.02
  -8   9   7   -0.03    2.10
   8  -9  -7   -2.08    2.28
   8  -9  -6  199.40   15.52
  -8   9   6  190.53   16.87
   8  -9  -5    1.31    2.48
  -8   9   5    0.61    1.77
   8  -9  -4   92.12   10.60
  -8   9   4   87.81   11.19
   8  -9  -3   15.87    4.49
  -8   9   3   14.57    4.95
  -8   9   2    5.34    3.01
   8  -9  -2    4.52    2.59
   8  -9  -1   83.64   10.11
  -8   9   1   96.61   11.41
  -8   9   0   -1.28    2.52
   8  -9   0    0.04    2.02
   8  -9   1  235.83   17.07
  -8   9  -1  227.23   17.14
  -8   9  -2    8.24    3.49
   8  -9   2    7.04    3.51
   8  -9   3   87.27   10.71
   8  -9   3   79.20    8.85
  -8   9  -3   95.82   11.02
  -8   9  -4   40.20    7.58
  -8   9  -4   44.69    7.61
   8  -9   4   49.26    8.06
   8  -9   4   40.72    6.67
  -8   9  -5   54.93    8.56
  -8   9  -5   60.06    8.79
   8  -9   5   53.34    8.59
   8  -9   5   47.37    7.28
  -8   9  -6  131.00   12.94
   8  -9   6  121.11   13.17
  -8   9  -6  110.37   11.61
   8  -9   6  118.65   11.67
  -8   9  -6  126.65   12.71
   8  -9   7   67.56    9.99
  -8   9  -7   57.01    8.73
   8  -9   7   64.17    8.81
  -8   9  -7   67.64    9.43
  -8   9  -8  172.70   15.23
  -8   9  -8  171.79   14.98
  -8   9  -9    8.58    3.66
  -8   8  10    4.99    2.43
   8  -8 -10   11.20    4.27
  -8   8   9   21.66    5.26
   8  -8  -9   10.53    3.79
   8  -8  -9   16.18    4.56
  -8   8   8   49.20    7.20
   8  -8  -8   39.78    7.03
   8  -8  -8   54.85    8.13
  -8   8   7   14.32    3.82
   8  -8  -7   17.81    4.79
  -8   8   7    8.48    3.72
   8  -8  -7   12.36    3.87
  -8   8   6    2.32    1.70
   8  -8  -6    3.14    2.04
  -8   8   6   -0.66    2.21
  -8   8   5    2.55    1.99
   8  -8  -5    5.33    2.87
  -8   8   5    2.48    2.01
  -8   8   4   25.20    4.82
   8  -8  -4   27.28    5.62
  -8   8   4   33.36    6.77
   8  -8  -3   19.24    4.82
  -8   8   3   25.63    5.86
   8  -8  -2   91.15    9.98
  -8   8   2   92.43   10.66
  -8   8   1    1.53    1.94
   8  -8  -1    2.47    2.21
  -8   8   0    6.04    3.24
   8  -8   0    3.48    2.73
  -8   8  -1    4.40    2.80
  -8   8  -1    2.74    1.85
   8  -8   1    3.27    2.62
   8  -8   1    2.28    1.91
  -8   8  -2   49.36    7.63
  -8   8  -2   50.24    7.20
   8  -8   2   53.66    8.00
   8  -8   2   53.95    6.95
  -8   8  -3   39.92    6.92
  -8   8  -3   43.87    6.82
   8  -8   3   31.68    6.18
   8  -8   3   44.10    6.51
  -8   8  -4    4.11    1.99
  -8   8  -4    6.71    2.96
   8  -8   4    9.44    3.57
   8  -8   4    5.80    2.50
  -8   8  -5    2.29    1.69
   8  -8   5    0.27    1.52
  -8   8  -5   -0.23    1.62
   8  -8   5    1.13    1.60
  -8   8  -6   19.13    4.92
  -8   8  -6   20.93    5.20
   8  -8   6   26.85    6.08
   8  -8   6   13.63    4.06
  -8   8  -7   45.72    7.46
  -8   8  -7   56.75    8.75
   8  -8   7   61.32    9.15
   8  -8   7   59.35    8.20
  -8   8  -8    2.51    2.39
  -8   8  -8    3.25    2.74
   8  -8   8   -0.93    2.47
   8  -8   8    6.03    3.06
   8  -8   9   97.20   11.98
  -8   8  -9  109.55   12.44
   8  -8   9  112.89   11.89
  -8   8  -9  117.68   11.93
  -8   8 -10   14.72    4.77
  -8   8 -10   10.24    4.02
  -8   7  11    0.63    1.82
   8  -7 -11    3.61    2.71
   8  -7 -10   57.38    8.42
   8  -7 -10   62.48    8.66
  -8   7  10   53.93    7.90
  -8   7   9   22.01    4.92
   8  -7  -9   20.43    5.06
   8  -7  -9   23.24    5.20
   8  -7  -8   55.90    8.11
   8  -7  -8   59.93    8.07
  -8   7   8   53.08    7.50
  -8   7   7   38.35    6.18
   8  -7  -7   34.65    6.42
   8  -7  -7   30.16    5.53
  -8   7   6   36.28    5.87
   8  -7  -6   37.08    6.40
  -8   7   6   36.17    6.95
  -8   7   5    9.97    3.21
   8  -7  -5   16.18    4.33
  -8   7   5   10.92    4.02
  -8   7   4   -0.03    1.22
   8  -7  -4    0.64    1.56
   8  -7  -3  200.25   14.40
  -8   7   3  184.35   12.30
  -8   7   3  187.78   14.54
  -8   7   3  202.10   12.61
  -8   7   2    1.90    1.84
  -8   7   2   -0.06    1.39
  -8   7   2    3.64    2.08
   8  -7  -2   -1.86    1.83
   8  -7  -1  509.98   22.80
  -8   7   1  560.31   22.06
   8  -7  -1  562.98   19.46
  -8   7   1  529.65   23.74
  -8   7   1  557.86   20.17
  -8   7   0    9.63    2.86
  -8   7   0    2.21    1.28
  -8   7   0    2.92    2.36
   8  -7   0    3.53    2.01
   8  -7   0    6.38    2.43
   8  -7   1   84.30    9.46
  -8   7  -1   79.18    8.67
   8  -7   1   81.64    7.90
  -8   7  -1   75.15    8.88
  -8   7  -2    5.29    2.81
  -8   7  -2    4.19    2.37
   8  -7   2    2.89    2.55
   8  -7   2    1.31    1.60
  -8   7  -3    9.42    3.23
  -8   7  -3    9.23    3.15
   8  -7   3   13.37    3.77
   8  -7   3    7.63    2.85
   8  -7   4  105.92   11.12
  -8   7  -4  102.48   10.53
   8  -7   4  105.23    9.68
  -8   7  -4  103.83   10.34
  -8   7  -5   13.82    4.20
  -8   7  -5    9.80    2.90
  -8   7  -5   10.96    3.67
   8  -7   5   14.02    4.13
   8  -7   5   12.40    3.60
   8  -7   6  181.88   14.78
  -8   7  -6  213.66   15.90
   8  -7   6  209.24   14.43
  -8   7  -6  186.13   13.87
  -8   7  -7   13.77    4.06
  -8   7  -7   12.49    4.11
   8  -7   7   22.06    5.32
   8  -7   7   10.84    3.68
  -8   7  -8   13.13    3.99
  -8   7  -8   26.49    6.11
   8  -7   8   19.05    5.23
   8  -7   8   15.50    4.49
  -8   7  -9   14.26    4.20
  -8   7  -9   11.43    4.23
   8  -7   9    7.17    3.46
   8  -7   9    9.15    3.18
  -8   7 -10    3.30    2.41
  -8   7 -10    0.82    1.84
   8  -7  10    3.73    2.65
   8  -7  10    5.39    3.21
   8  -7  10    5.38    2.62
  -8   7 -11    0.08    2.13
   8  -7  11    4.90    2.41
  -8   6  12    6.73    3.16
   8  -6 -12    9.78    3.48
   8  -6 -12   12.37    4.17
   8  -6 -11   72.80    9.53
   8  -6 -11   78.45    9.66
  -8   6  11   85.06    9.90
   8  -6 -10   99.13   10.99
   8  -6 -10  114.73   11.24
  -8   6  10  103.71   10.58
  -8   6   9    9.35    3.53
   8  -6  -9    3.36    1.96
   8  -6  -9    7.66    2.99
  -8   6   8   27.50    5.18
   8  -6  -8   33.74    6.33
   8  -6  -8   22.26    4.62
   8  -6  -7   63.14    8.31
  -8   6   7   70.09    8.06
   8  -6  -6  185.08   13.68
  -8   6   6  165.11   11.93
  -8   6   6  170.23   12.16
  -8   6   5   29.25    5.08
  -8   6   5   26.75    4.85
   8  -6  -5   17.34    4.24
  -8   6   5   19.31    4.75
   8  -6  -4  453.61   20.97
  -8   6   4  489.67   20.35
  -8   6   4  486.00   22.48
  -8   6   4  457.64   19.09
   8  -6  -3  251.04   15.56
  -8   6   3  244.74   14.42
  -8   6   3  238.45   15.51
  -8   6   3  278.28   14.65
  -8   6   2   -0.37    1.30
  -8   6   2    0.49    1.64
   8  -6  -2   -0.06    1.72
  -8   6   2    0.25    1.53
   8  -6  -2   -1.17    1.46
   8  -6  -1  141.85   11.67
  -8   6   1  164.54   12.03
   8  -6  -1  161.61   10.20
  -8   6   1  163.82   12.62
  -8   6   1  178.79   11.39
  -8   6   0    4.33    2.27
  -8   6   0    0.57    1.16
  -8   6   0    2.98    2.00
   8  -6   0    2.39    2.07
   8  -6   0    4.25    1.74
  -8   6  -1   30.59    5.44
  -8   6  -1   42.68    6.27
   8  -6   1   23.93    4.90
   8  -6   1   30.66    4.81
  -8   6  -1   37.46    5.22
  -8   6  -2    9.67    3.20
  -8   6  -2   14.73    4.02
   8  -6   2   12.21    3.76
   8  -6   2   15.18    3.39
   8  -6   3   62.33    8.07
  -8   6  -3   74.63    8.68
   8  -6   3   68.41    7.39
  -8   6  -3   66.05    7.94
  -8   6  -4   18.06    4.29
  -8   6  -4   17.47    4.68
   8  -6   4   13.33    3.92
   8  -6   4   17.29    4.03
  -8   6  -5   12.47    3.74
  -8   6  -5   18.07    4.71
   8  -6   5   14.04    4.23
   8  -6   5   13.29    3.51
  -8   6  -6   11.15    3.49
  -8   6  -6   14.95    4.47
   8  -6   6    8.41    3.11
   8  -6   6   17.04    4.24
  -8   6  -7    2.33    2.11
  -8   6  -7    0.30    2.26
   8  -6   7    0.02    1.53
   8  -6   7    6.42    2.65
  -8   6  -8    3.52    2.15
  -8   6  -8    4.12    2.58
   8  -6   8    3.71    2.56
   8  -6   8    4.46    2.34
  -8   6  -9   -0.63    1.74
  -8   6  -9    0.11    1.81
   8  -6   9   -0.77    1.43
   8  -6   9    4.90    3.04
  -8   6 -10   75.47   10.40
   8  -6  10   59.04    8.94
   8  -6  10   76.90    9.73
  -8   6 -10   68.93    8.54
  -8   6 -11    7.88    3.23
  -8   6 -11    3.10    2.95
   8  -6  11    6.88    3.61
   8  -6  11    0.70    1.48
  -8   6 -12   -0.61    2.27
   8  -6  12   12.56    4.14
   8  -5 -13   23.15    5.71
  -8   5  13   28.59    6.07
   8  -5 -13   29.48    6.20
  -8   5  12   -0.74    2.71
   8  -5 -12    1.05    2.20
  -8   5  12   -0.16    1.47
   8  -5 -12   -0.10    1.62
  -8   5  11    0.05    1.60
   8  -5 -11    0.08    1.89
  -8   5  11   -2.27    2.12
   8  -5 -11   -0.59    1.39
  -8   5  10    3.29    2.29
   8  -5 -10    1.82    1.99
  -8   5  10    8.08    3.36
   8  -5 -10    6.39    2.69
  -8   5   9   31.53    5.72
  -8   5   9   35.38    6.08
   8  -5  -9   33.42    6.22
  -8   5   9   38.07    6.19
   8  -5  -9   45.33    6.53
  -8   5   8   29.41    5.32
  -8   5   8   28.83    5.40
   8  -5  -8   29.83    5.83
  -8   5   8   28.56    5.22
  -8   5   7   -0.59    1.27
  -8   5   7    1.48    1.36
   8  -5  -7    0.55    1.62
  -8   5   7    1.94    1.76
  -8   5   6   14.81    3.84
  -8   5   6   14.93    3.88
   8  -5  -6   14.49    3.82
  -8   5   6   12.81    3.43
  -8   5   5  168.11   12.10
   8  -5  -5  164.89   12.57
  -8   5   5  162.57   11.20
  -8   5   5  170.66   11.79
   8  -5  -4    1.16    1.28
  -8   5   4    1.86    1.74
  -8   5   4    2.72    1.69
   8  -5  -4    1.73    1.52
  -8   5   4    1.40    1.43
  -8   5   4    1.24    1.69
   8  -5  -3  203.15   13.67
  -8   5   3  230.94   13.98
  -8   5   3  229.58   12.94
   8  -5  -3  238.33   11.58
  -8   5   3  203.79   13.70
  -8   5   3  230.04   13.25
   8  -5  -2  101.57    9.52
  -8   5   2  109.53    9.73
  -8   5   2   97.08    8.32
   8  -5  -2  107.00    8.03
  -8   5   2  101.99    9.56
  -8   5   2  107.73    8.93
   8  -5  -1   97.16    9.44
  -8   5   1  108.09    9.74
  -8   5   1  114.58    9.00
   8  -5  -1  104.27    8.08
  -8   5   1  116.84   10.05
  -8   5   1  111.68    8.99
   8  -5   0   65.23    7.74
  -8   5   0   61.30    7.41
  -8   5   0   64.70    6.75
   8  -5   0   66.53    6.70
  -8   5   0   65.42    7.58
  -8   5   0   57.22    6.49
   8  -5   1   55.62    7.24
  -8   5  -1   56.04    7.15
  -8   5  -1   61.71    6.67
   8  -5   1   47.95    5.76
  -8   5  -1   55.38    6.85
  -8   5  -1   62.25    6.78
   8  -5   2   72.02    8.20
  -8   5  -2   54.32    7.21
  -8   5  -2   59.99    6.64
   8  -5   2   60.78    6.59
  -8   5  -2   66.44    7.40
  -8   5  -3   19.61    4.09
  -8   5  -3   14.99    4.23
   8  -5   3   17.48    4.35
  -8   5  -3   25.13    4.37
   8  -5   3   19.35    3.97
   8  -5   4  211.44   14.39
  -8   5  -4  205.37   14.41
  -8   5  -4  227.83   13.27
   8  -5   4  207.09   12.93
  -8   5  -4  191.02   12.29
  -8   5  -5   16.63    3.91
  -8   5  -5   12.93    3.88
   8  -5   5   12.74    3.64
  -8   5  -5   12.61    3.23
   8  -5   5   10.57    3.10
   8  -5   6   58.20    7.81
  -8   5  -6   80.87    9.57
  -8   5  -6   71.86    7.90
   8  -5   6   63.42    7.64
  -8   5  -6   58.84    7.10
  -8   5  -7    3.15    2.22
  -8   5  -7    8.04    3.51
   8  -5   7   10.42    3.66
  -8   5  -7    6.50    2.79
   8  -5   7    1.08    1.28
   8  -5   8  302.74   18.49
  -8   5  -8  329.05   20.19
  -8   5  -8  296.30   16.84
   8  -5   8  320.90   18.10
  -8   5  -8  310.11   16.54
  -8   5  -9   27.77    5.13
  -8   5  -9   35.83    6.95
   8  -5   9   29.55    5.94
  -8   5  -9   28.15    5.44
   8  -5   9   28.86    5.70
  -8   5 -10   17.66    4.36
  -8   5 -10   25.34    6.12
   8  -5  10   20.01    5.20
  -8   5 -10   19.42    4.61
   8  -5  10   22.38    5.18
   8  -5  11  192.77   15.71
  -8   5 -11  210.87   17.55
   8  -5  11  181.39   15.02
   8  -5  12    2.38    1.87
   8  -4 -14   15.76    4.67
  -8   4  14   18.95    5.40
   8  -4 -14   27.04    5.93
   8  -4 -13  115.61   12.04
  -8   4  13   96.11   11.13
   8  -4 -13  115.19   11.46
  -8   4  13  129.73   12.56
   8  -4 -12  204.03   15.87
  -8   4  12  193.78   15.07
  -8   4  12  186.79   14.91
   8  -4 -12  197.55   14.40
  -8   4  12  209.63   15.51
  -8   4  11   22.35    4.99
  -8   4  11   39.22    6.78
   8  -4 -11   33.36    6.41
  -8   4  11   27.15    5.59
   8  -4 -11   29.01    5.42
  -8   4  10    4.48    2.47
  -8   4  10    2.66    2.14
   8  -4 -10   -0.50    2.54
  -8   4  10    6.09    2.80
   8  -4 -10    7.80    3.02
  -8   4   9    3.06    2.34
  -8   4   9   -1.07    2.40
   8  -4  -9   -0.96    2.15
  -8   4   9   -0.33    1.46
  -8   4   8   32.17    5.56
  -8   4   8   37.35    6.15
   8  -4  -8   41.81    6.67
  -8   4   8   34.32    5.73
   8  -4  -7   59.85    7.82
  -8   4   7   42.69    6.41
  -8   4   7   45.73    6.39
  -8   4   7   47.52    6.52
  -8   4   6  179.60   12.72
   8  -4  -6  199.71   13.79
  -8   4   6  216.75   13.46
  -8   4   6  191.81   12.61
  -8   4   5  263.52   15.25
   8  -4  -5  270.64   15.73
  -8   4   5  260.13   14.49
   8  -4  -5  285.97   12.41
  -8   4   5  283.13   14.86
   8  -4  -4    1.74    1.38
  -8   4   4    3.08    1.74
  -8   4   4   -0.55    1.28
   8  -4  -4    0.94    1.31
  -8   4   4    0.17    1.21
  -8   4   4    1.75    1.55
   8  -4  -3   28.13    4.10
  -8   4   3   26.53    4.63
  -8   4   3   26.78    4.83
   8  -4  -3   32.02    5.39
  -8   4   3   33.95    5.32
  -8   4   3   27.58    4.63
   8  -4  -2    0.30    1.20
  -8   4   2   -0.43    1.32
  -8   4   2    0.27    1.30
   8  -4  -2    0.99    1.44
  -8   4   2    1.35    1.49
  -8   4   2    0.36    1.07
   8  -4  -1   11.44    2.63
  -8   4   1   10.55    2.99
  -8   4   1   14.55    3.71
  -8   4   1   14.96    3.50
   8  -4  -1   11.42    3.22
  -8   4   1    6.84    2.48
   8  -4   0   18.32    3.53
  -8   4   0   12.75    3.18
  -8   4   0   10.56    3.36
  -8   4   0   10.76    2.89
   8  -4   0   11.75    3.33
  -8   4   0   17.15    3.66
   8  -4   1  105.13    9.48
  -8   4  -1  111.96   10.09
  -8   4  -1  100.32    8.66
   8  -4   1  103.14    8.23
  -8   4  -1  109.16    8.89
  -8   4  -1  110.34    9.02
   8  -4   2  170.05   12.14
  -8   4  -2  166.86   12.48
  -8   4  -2  175.19   11.50
   8  -4   2  163.14   10.62
  -8   4  -2  173.85   11.07
   8  -4   3   59.10    7.26
  -8   4  -3   57.62    7.50
  -8   4  -3   66.40    7.29
   8  -4   3   67.49    7.04
  -8   4  -3   58.07    6.38
   8  -4   4   59.82    7.42
  -8   4  -4   63.59    8.04
  -8   4  -4   64.88    7.32
   8  -4   4   64.18    7.10
  -8   4  -4   72.04    7.16
   8  -4   5  133.04   11.17
  -8   4  -5  145.71   12.41
  -8   4  -5  138.62   10.88
   8  -4   5  135.21   10.51
  -8   4  -5  149.17   10.37
  -8   4  -6   -0.29    1.13
  -8   4  -6   -0.29    2.11
   8  -4   6   -0.42    1.57
  -8   4  -6    2.94    1.78
   8  -4   6   -4.57    2.24
  -8   4  -7   14.27    3.50
  -8   4  -7   12.52    4.17
   8  -4   7   19.10    4.57
  -8   4  -7   21.14    4.64
   8  -4   7   18.57    4.28
  -8   4  -8   58.57    8.49
   8  -4   8   48.63    7.10
  -8   4  -8   54.22    7.58
   8  -4   8   53.66    7.32
  -8   4  -8   66.81    7.37
  -8   4  -9    1.08    2.65
   8  -4   9    1.39    1.53
  -8   4  -9    5.13    3.01
   8  -4   9    0.46    1.70
  -8   4 -10    3.28    3.02
   8  -4  10    3.67    2.35
  -8   4 -10    5.04    3.02
   8  -4  10    1.98    1.86
  -8   4 -11   29.99    6.65
  -8   4 -11   33.15    6.65
   8  -4  11   20.69    5.01
  -8   4 -12   -0.38    2.10
  -8   3  15  138.79   14.16
  -8   3  14    1.66    2.18
  -8   3  14    8.32    3.89
   8  -3 -14    1.69    1.76
  -8   3  14    7.63    3.61
   8  -3 -14    4.59    2.78
  -8   3  13    4.75    2.73
  -8   3  13    1.79    1.66
   8  -3 -13   -0.06    1.71
  -8   3  13    6.62    3.16
   8  -3 -13    0.21    1.91
  -8   3  12   47.93    7.35
  -8   3  12   36.07    6.79
   8  -3 -12   40.03    7.03
  -8   3  12   43.87    7.34
  -8   3  11    0.02    1.78
  -8   3  11   -0.09    1.54
   8  -3 -11    1.10    1.68
  -8   3  11   -1.28    2.04
  -8   3  10    2.78    1.97
  -8   3  10    4.29    2.34
   8  -3 -10    6.47    3.06
  -8   3  10    7.96    3.36
  -8   3   9    1.92    1.86
  -8   3   9    2.25    2.24
   8  -3  -9    1.51    1.76
  -8   3   9   -0.64    2.06
  -8   3   8  110.76   10.46
   8  -3  -8  119.68   10.92
  -8   3   8  113.59   10.29
  -8   3   8  116.54   10.18
  -8   3   7    5.22    2.31
  -8   3   7    3.94    2.17
   8  -3  -7    2.35    1.68
   8  -3  -7    3.67    1.51
  -8   3   7    3.46    2.30
  -8   3   6   11.86    3.40
  -8   3   6    9.48    3.16
   8  -3  -6   11.26    2.54
   8  -3  -6   17.78    4.24
  -8   3   6   11.30    3.33
  -8   3   5   39.57    5.62
  -8   3   5   37.11    5.79
   8  -3  -5   38.44    5.94
  -8   3   5   38.05    5.85
   8  -3  -5   37.59    4.68
  -8   3   4   28.63    4.80
   8  -3  -4   28.30    4.18
  -8   3   4   26.12    4.80
   8  -3  -4   26.72    4.88
  -8   3   4   32.65    5.20
  -8   3   3   12.90    3.17
   8  -3  -3   14.35    3.06
  -8   3   3   19.44    4.16
   8  -3  -3   17.70    4.00
  -8   3   3   12.68    3.13
  -8   3   3   16.46    3.68
  -8   3   2   75.16    8.09
   8  -3  -2   78.02    8.04
  -8   3   2   80.57    7.86
   8  -3  -2   83.40    7.15
  -8   3   2   86.06    7.70
  -8   3   2   76.83    7.62
  -8   3   1   70.23    7.83
   8  -3  -1   63.09    7.10
  -8   3   1   72.75    7.47
   8  -3  -1   63.40    6.36
  -8   3   1   57.57    6.17
  -8   3   1   64.39    6.94
  -8   3   0   51.97    6.80
   8  -3   0   57.96    6.82
  -8   3   0   68.41    7.22
   8  -3   0   59.40    6.18
  -8   3   0   58.68    6.25
  -8   3   0   66.65    7.04
   8  -3   1   65.27    7.29
  -8   3  -1   65.46    7.69
  -8   3  -1   58.38    6.86
   8  -3   1   61.45    6.44
  -8   3  -1   60.29    6.10
  -8   3  -2  272.06   15.80
   8  -3   2  253.64   14.34
  -8   3  -2  278.80   14.94
   8  -3   2  273.92   13.71
  -8   3  -2  257.50   12.36
   8  -3   3    1.89    1.88
  -8   3  -3    2.02    1.40
  -8   3  -3    5.10    2.80
   8  -3   3    5.62    2.58
  -8   3  -3    1.51    1.32
   8  -3   4  175.12   12.11
  -8   3  -4  186.54   13.60
  -8   3  -4  185.12   12.63
   8  -3   4  179.81   11.61
  -8   3  -4  169.34   10.11
   8  -3   5   49.61    6.51
  -8   3  -5   64.70    8.12
  -8   3  -5   59.41    7.40
   8  -3   5   79.44    8.04
  -8   3  -5   62.76    6.26
  -8   3  -6   11.79    3.86
   8  -3   6   14.62    3.75
  -8   3  -6    7.90    3.12
   8  -3   6   11.80    3.59
  -8   3  -7   34.58    6.40
   8  -3   7   36.26    5.93
  -8   3  -7   27.18    5.43
   8  -3   7   26.58    5.06
  -8   3  -8    7.54    3.71
   8  -3   8   12.23    3.51
  -8   3  -8    8.27    3.17
   8  -3   8    9.92    3.25
  -8   3  -9    6.57    3.55
   8  -3   9    2.64    1.96
  -8   3  -9    7.48    3.36
   8  -3   9    9.23    3.16
  -8   3 -10   23.76    5.85
   8  -3  10   18.82    4.84
  -8   3 -10   15.70    4.64
   8  -3  10   24.09    5.29
  -8   3 -11   29.13    6.38
  -8   3 -11   21.45    5.38
   8  -3  11   24.31    5.33
  -8   3 -12   -1.12    2.65
   8  -3  12   -3.05    2.11
  -8   2  15   35.87    7.46
   8  -2 -15   29.18    6.59
  -8   2  14  117.60   12.85
   8  -2 -14  138.20   13.35
  -8   2  14  140.45   13.77
  -8   2  14  144.21   13.28
  -8   2  13   10.18    3.87
  -8   2  13   16.31    5.01
   8  -2 -13   15.65    4.56
  -8   2  13   16.55    4.56
  -8   2  12   30.05    6.07
  -8   2  12   25.95    5.83
   8  -2 -12   34.63    6.59
  -8   2  12   25.03    5.42
  -8   2  11   18.57    4.62
  -8   2  11   20.34    4.90
   8  -2 -11   14.58    4.11
  -8   2  11   24.21    5.20
  -8   2  10   40.63    6.36
  -8   2  10   29.42    5.82
   8  -2 -10   39.32    6.71
  -8   2  10   35.37    6.12
  -8   2   9   54.62    7.64
   8  -2  -9   46.52    6.95
  -8   2   9   52.11    7.23
  -8   2   9   71.17    8.13
  -8   2   8  128.39   11.33
   8  -2  -8  132.93   11.33
  -8   2   8  134.58   11.16
  -8   2   8  134.47   10.81
   8  -2  -8  148.36    9.56
  -8   2   7  208.01   14.10
   8  -2  -7  226.78   14.51
  -8   2   7  206.19   13.56
  -8   2   7  207.19   13.08
   8  -2  -7  229.30   11.91
  -8   2   6   99.99    9.69
   8  -2  -6  102.05    9.53
  -8   2   6   89.77    8.90
   8  -2  -6  109.58    8.25
  -8   2   6  100.66    9.00
  -8   2   5   18.40    4.01
  -8   2   5   21.12    4.55
   8  -2  -5   25.80    4.71
  -8   2   5   26.54    4.83
   8  -2  -5   30.22    4.41
  -8   2   4  218.28   13.81
   8  -2  -4  238.53   13.98
  -8   2   4  235.65   13.76
   8  -2  -4  223.07   11.73
  -8   2   4  230.36   13.19
  -8   2   3  145.87   11.14
   8  -2  -3  129.74   10.20
  -8   2   3  134.09   10.26
   8  -2  -3  139.88    9.37
  -8   2   3  127.24    8.90
  -8   2   3  134.98   10.09
  -8   2   2  320.01   16.40
   8  -2  -2  312.65   15.48
  -8   2   2  326.10   15.91
   8  -2  -2  333.76   14.49
  -8   2   2  326.01   13.75
  -8   2   2  329.67   15.62
  -8   2   1   96.91    9.20
   8  -2  -1   86.95    8.14
  -8   2   1   97.76    8.81
   8  -2  -1   99.55    8.00
  -8   2   1   82.00    6.84
  -8   2   1   76.04    7.68
  -8   2   0  435.02   19.37
   8  -2   0  437.49   18.08
  -8   2   0  421.97   18.24
   8  -2   0  426.28   16.69
  -8   2   0  419.29   14.83
  -8   2   0  433.73   18.24
  -8   2  -1   56.73    7.28
   8  -2   1   52.16    6.35
  -8   2  -1   58.44    6.95
  -8   2  -1   41.90    4.66
   8  -2   1   56.71    6.31
   8  -2   2  267.02   14.19
  -8   2  -2  304.02   16.69
  -8   2  -2  289.13   15.47
  -8   2  -2  296.30   11.96
   8  -2   2  287.10   14.12
   8  -2   3  110.53    9.28
  -8   2  -3  100.48    9.72
  -8   2  -3  108.74    9.69
   8  -2   3   95.63    8.33
   8  -2   4   72.56    7.65
  -8   2  -4   67.48    8.17
  -8   2  -4   69.15    7.92
   8  -2   4   60.98    6.90
   8  -2   5   19.68    3.94
  -8   2  -5   14.53    4.09
   8  -2   5   18.39    4.05
  -8   2  -5   15.79    3.84
   8  -2   6   55.09    6.84
  -8   2  -6   52.33    7.69
  -8   2  -6   54.42    7.45
   8  -2   6   55.39    6.87
  -8   2  -7    4.74    2.64
   8  -2   7    4.52    2.03
  -8   2  -7    1.71    1.87
   8  -2   7    5.43    2.56
  -8   2  -8   69.67    9.16
  -8   2  -8   52.77    7.74
   8  -2   8   72.88    8.39
  -8   2  -9    0.28    1.88
  -8   2  -9   -0.14    1.49
  -8   2 -10   40.71    7.57
   8  -2  10   31.08    6.37
  -8   2 -10   25.29    5.81
   8  -2  10   23.81    5.18
  -8   2 -11   78.50   10.63
  -8   2 -11   79.49   10.47
   8  -2  11   68.88    9.50
   8  -2  11   63.15    8.48
  -8   2 -12    3.55    2.82
   8  -2  12    1.05    1.47
  -8   1  15   -0.92    2.26
  -8   1  15    8.99    4.00
  -8   1  14   13.09    4.18
  -8   1  14    7.73    3.63
  -8   1  14   10.31    3.93
  -8   1  13   15.96    4.45
  -8   1  13   17.04    4.89
  -8   1  13   17.84    4.95
  -8   1  12   81.54   10.32
  -8   1  12   60.23    8.51
  -8   1  12   62.76    8.29
  -8   1  11   40.34    6.48
  -8   1  11   34.95    6.64
  -8   1  11   31.72    6.17
   8  -1 -10  262.47   13.58
  -8   1  10  249.04   16.68
   8  -1 -10  242.82   15.88
  -8   1  10  233.75   15.56
  -8   1  10  257.12   15.63
  -8   1   9    1.95    1.93
  -8   1   9    4.26    2.83
   8  -1  -9    1.99    1.87
  -8   1   9    1.60    1.70
   8  -1  -9   -0.82    1.79
   8  -1  -8  151.12   10.23
  -8   1   8  128.17   11.40
   8  -1  -8  158.21   12.34
  -8   1   8  145.52   11.82
  -8   1   8  148.66   11.41
  -8   1   7   37.77    5.66
  -8   1   7   34.61    5.96
   8  -1  -7   33.04    5.69
  -8   1   7   34.95    5.86
   8  -1  -7   32.39    4.82
  -8   1   6  213.81   14.11
   8  -1  -6  223.72   14.01
  -8   1   6  208.31   13.49
  -8   1   6  228.15   13.47
   8  -1  -6  231.99   12.52
  -8   1   5    5.68    2.41
  -8   1   5    5.03    2.29
   8  -1  -5    8.58    2.73
  -8   1   5    8.47    2.88
   8  -1  -5   11.90    3.01
  -8   1   4   52.81    6.81
   8  -1  -4   61.72    7.08
  -8   1   4   52.99    6.74
  -8   1   4   54.33    6.60
   8  -1  -4   50.29    5.82
  -8   1   3   93.71    9.05
   8  -1  -3  111.28    9.26
  -8   1   3  104.99    9.21
  -8   1   3   94.69    7.11
  -8   1   3  113.74    9.43
   8  -1  -3  105.62    8.37
   8  -1  -2   61.59    6.85
  -8   1   2   44.50    6.26
  -8   1   2   67.73    7.52
   8  -1  -2   59.92    6.37
  -8   1   2   61.65    6.89
  -8   1   1   77.42    8.22
   8  -1  -1   73.79    7.23
  -8   1   1   74.12    7.80
   8  -1  -1   73.76    7.07
  -8   1   1   88.45    8.37
  -8   1   0  134.03   10.77
   8  -1   0  146.68   10.19
  -8   1   0  143.57    9.09
  -8   1   0  144.22   11.03
   8  -1   0  150.50   10.18
   8  -1   1   11.66    3.08
  -8   1  -1    1.35    1.66
   8  -1   1    4.50    1.96
  -8   1  -1    5.01    1.79
  -8   1  -1    8.24    2.80
   8  -1   2   92.67    8.13
  -8   1  -2   78.80    8.56
  -8   1  -2   90.24    8.89
   8  -1   2   82.85    7.61
   8  -1   3    1.67    1.57
  -8   1  -3    1.92    1.67
   8  -1   3    3.88    1.90
  -8   1  -3    4.73    2.26
   8  -1   4    1.27    1.55
  -8   1  -4    0.25    1.80
   8  -1   4    1.47    1.59
  -8   1  -4    0.96    1.31
   8  -1   5    3.64    1.97
  -8   1  -5    6.91    3.13
   8  -1   5    2.61    1.58
  -8   1  -5    8.50    3.31
   8  -1   6    7.67    2.70
  -8   1  -6    6.89    3.12
   8  -1   6   11.59    3.24
  -8   1  -6    9.68    3.35
  -8   1  -7   44.77    7.29
  -8   1  -7   41.29    6.90
   8  -1   7   49.48    6.73
  -8   1  -8    3.29    2.97
  -8   1  -8    0.02    2.14
   8  -1   8   -2.54    2.06
  -8   1  -9   91.81   10.86
  -8   1  -9   98.62   11.06
   8  -1   9   88.38    9.33
  -8   1 -10    0.76    1.74
   8  -1  10   -1.06    2.23
  -8   1 -10   -0.90    2.37
   8  -1  10   -1.29    1.63
  -8   1 -11   18.75    5.28
   8  -1  11   14.22    4.51
  -8   1 -11   17.76    5.22
   8  -1  11    7.34    3.01
   8  -1  12   10.54    3.93
   8  -1  12   12.10    3.99
  -8   0  15   -3.27    2.96
  -8   0  15    2.26    2.99
  -8   0  14   45.15    7.31
  -8   0  14   34.18    7.29
  -8   0  14   40.73    7.66
  -8   0  13   90.05   11.09
  -8   0  13  104.56   11.64
  -8   0  13   99.13   10.68
  -8   0  12    0.37    1.71
  -8   0  12    3.22    2.41
  -8   0  12    1.62    1.84
   8   0 -11   70.48    7.67
  -8   0  11   51.62    8.10
  -8   0  11   50.42    7.66
  -8   0  11   71.36    8.49
   8   0 -10  110.64    9.44
  -8   0  10  112.17   11.41
  -8   0  10  100.61   10.42
  -8   0  10  112.16   10.36
   8   0  -9   47.44    6.15
  -8   0   9   44.29    6.38
  -8   0   9   51.14    7.50
  -8   0   9   45.38    6.83
  -8   0   8   34.90    5.71
  -8   0   8   28.86    5.64
  -8   0   8   31.82    5.55
   8   0  -8   25.70    4.53
   8   0  -7   99.62    8.59
  -8   0   7   79.57    8.83
   8   0  -7  108.83    9.88
  -8   0   7  106.78    9.92
  -8   0   7   86.17    8.54
  -8   0   6    1.15    1.77
  -8   0   6    0.71    1.72
   8   0  -6   -0.24    1.36
  -8   0   6    2.64    1.89
   8   0  -6   -1.15    1.35
   8   0  -5   51.97    6.17
  -8   0   5   54.86    7.31
   8   0  -5   53.66    6.56
  -8   0   5   61.01    7.50
  -8   0   5   51.66    6.48
  -8   0   4    2.80    2.21
  -8   0   4    1.64    1.70
   8   0  -4    1.79    1.57
  -8   0   4    2.51    1.49
   8   0  -4    1.12    1.47
  -8   0   3  215.28   13.65
   8   0  -3  235.74   13.27
  -8   0   3  230.30   14.02
  -8   0   3  220.67   13.32
   8   0  -3  216.25   12.28
  -8   0   2   47.75    6.52
   8   0  -2   60.54    6.64
  -8   0   2   65.95    7.61
  -8   0   2   57.91    6.86
   8   0  -2   59.74    6.58
  -8   0   1  108.25    9.69
   8   0  -1  107.81    8.69
  -8   0   1  115.81    8.87
  -8   0   1  105.83    9.56
   8   0  -1  114.29    9.03
  -8   0   0   59.25    7.23
   8   0   0   64.72    6.72
  -8   0   0   47.73    5.68
  -8   0   0   64.26    7.47
   8   0   0   75.42    7.36
  -8   0  -1   72.75    8.09
   8   0   1   80.06    7.34
  -8   0  -1   73.55    6.89
  -8   0  -1   85.31    8.80
   8   0   1   75.72    7.43
   8   0   2   27.30    4.55
  -8   0  -2   20.75    4.51
   8   0   2   17.99    3.62
  -8   0  -2   20.68    4.39
  -8   0  -2   11.22    2.89
  -8   0  -3   -0.95    1.77
   8   0   3   -0.01    0.96
  -8   0  -3    2.93    2.30
   8   0   4   36.71    5.37
   8   0   4   49.20    5.73
  -8   0  -4   49.70    7.04
  -8   0  -4   47.09    6.90
   8   0   5   -0.52    1.16
  -8   0  -5    0.27    1.72
  -8   0  -5   -0.09    1.96
  -8   0  -6  267.72   16.89
  -8   0  -6  281.26   17.45
   8   0   6  294.01   15.79
  -8   0  -7   10.37    3.36
  -8   0  -7   14.98    4.26
   8   0   7   14.51    3.68
  -8   0  -8   36.90    6.86
  -8   0  -8   50.23    7.99
   8   0   8   49.56    6.91
   8   0   9  133.96   13.55
  -8   0  -9  143.38   13.48
  -8   0  -9  158.56   14.40
   8   0   9  138.88   11.76
  -8   0 -10    2.24    2.52
   8   0  10    5.62    3.19
  -8   0 -10    3.25    1.86
   8   0  10    3.13    2.16
  -8   0 -11    3.08    1.99
   8   0  11    2.35    2.40
  -8   0 -11    0.86    2.38
   8   0  11    1.39    1.78
  -8  -1  15  126.76   14.22
  -8  -1  15  127.93   12.44
  -8  -1  14   24.58    5.53
  -8  -1  14   34.91    7.35
  -8  -1  14   21.82    5.86
  -8  -1  13   35.91    6.49
  -8  -1  13   19.30    5.21
  -8  -1  13   22.99    5.71
   8   1 -12  201.46   13.63
  -8  -1  12  204.60   16.44
  -8  -1  12  200.46   15.77
  -8  -1  12  193.64   14.17
  -8  -1  11    2.66    1.87
   8   1 -11    8.57    3.07
  -8  -1  11    2.50    2.48
  -8  -1  11    6.28    3.16
   8   1 -10   91.72    9.06
  -8  -1  10  104.34   11.20
  -8  -1  10   91.73   10.09
  -8  -1  10   84.73    8.97
   8   1  -9   52.28    6.72
  -8  -1   9   42.33    6.26
  -8  -1   9   51.49    7.64
  -8  -1   9   37.72    6.44
   8   1  -8  160.34   11.61
  -8  -1   8  172.93   13.49
  -8  -1   8  156.67   12.51
  -8  -1   8  146.49   11.16
   8   1  -7   10.04    2.95
  -8  -1   7   14.10    3.63
  -8  -1   7    8.30    3.19
  -8  -1   7   12.14    3.48
  -8  -1   6   23.00    4.47
  -8  -1   6   22.97    4.88
   8   1  -6   24.55    4.67
  -8  -1   6   33.04    5.73
   8   1  -6   26.48    4.68
   8   1  -5  191.08   12.16
  -8  -1   5  191.90   13.35
   8   1  -5  186.45   12.37
  -8  -1   5  195.86   13.30
  -8  -1   5  185.10   12.30
   8   1  -4  127.34    9.81
  -8  -1   4  128.34   10.78
   8   1  -4  133.83   10.15
  -8  -1   4  129.30   10.76
  -8  -1   4  131.62   10.48
  -8  -1   3  209.11   13.69
   8   1  -3  212.41   12.45
  -8  -1   3  201.66   13.33
  -8  -1   3  209.76   13.24
   8   1  -3  205.89   12.51
  -8  -1   2    2.01    1.82
   8   1  -2    4.03    1.92
  -8  -1   2    2.24    1.73
  -8  -1   2    7.21    2.82
   8   1  -2    9.65    2.92
  -8  -1   1  168.46   12.26
   8   1  -1  161.72   10.36
  -8  -1   1  136.26   10.25
  -8  -1   1  159.64   11.96
   8   1  -1  159.41   10.96
  -8  -1   0   19.87    4.23
   8   1   0   20.16    3.74
   8   1   0   28.33    4.70
  -8  -1   0   18.02    3.84
  -8  -1   0   26.09    4.97
   8   1   1   42.64    5.27
  -8  -1  -1   38.79    6.07
   8   1   1   36.84    5.35
  -8  -1  -1   37.54    5.44
  -8  -1  -1   38.71    6.11
  -8  -1  -2    6.19    2.64
   8   1   2    8.20    2.69
   8   1   2    7.65    2.21
  -8  -1  -2   11.31    3.61
  -8  -1  -2    0.81    1.10
  -8  -1  -3   22.32    4.72
  -8  -1  -3   33.59    5.78
   8   1   3   40.20    5.68
  -8  -1  -4  173.99   13.09
  -8  -1  -4  176.70   13.57
   8   1   4  149.14   10.99
   8   1   5    6.05    2.65
  -8  -1  -5    0.82    1.36
  -8  -1  -5    7.67    3.10
  -8  -1  -6  100.27   10.49
  -8  -1  -6  119.01   11.70
   8   1   6  114.10    9.90
   8   1   7   34.48    5.70
  -8  -1  -7   32.40    6.03
  -8  -1  -7   37.16    6.83
  -8  -1  -8    3.22    2.59
  -8  -1  -8   -0.34    1.42
   8   1   8   -0.39    1.48
  -8  -1  -9   14.75    4.39
   8   1   9    7.62    3.48
  -8  -1  -9   12.78    4.41
   8   1   9   16.04    4.24
  -8  -1 -10   25.66    6.00
   8   1  10   12.22    4.44
  -8  -1 -10   29.04    6.51
   8   1  10   21.45    4.81
  -8  -1 -11    6.93    3.41
   8   1  11    8.97    3.37
  -8  -2  15   29.93    6.15
  -8  -2  14    7.40    2.99
  -8  -2  14    7.54    3.84
  -8  -2  14    2.55    1.68
  -8  -2  13   42.96    6.89
  -8  -2  13   45.36    8.08
   8   2 -13   48.22    7.06
  -8  -2  13   50.41    8.25
  -8  -2  12   50.61    7.37
   8   2 -12   45.03    6.92
  -8  -2  12   52.10    8.61
  -8  -2  12   44.87    7.57
  -8  -2  11    3.92    2.52
   8   2 -11    7.90    3.05
  -8  -2  11    4.38    2.74
  -8  -2  11    8.34    3.38
  -8  -2  10    6.03    2.65
   8   2 -10   15.39    4.17
  -8  -2  10   12.74    4.08
  -8  -2  10    4.58    2.94
   8   2  -9   52.31    7.13
  -8  -2   9   51.54    7.82
  -8  -2   9   55.08    7.80
  -8  -2   9   50.78    6.74
  -8  -2   8   18.64    4.13
   8   2  -8   19.61    4.43
  -8  -2   8   12.05    4.00
  -8  -2   8   15.25    4.22
   8   2  -7    0.43    1.51
  -8  -2   7    0.04    1.41
  -8  -2   7    0.60    1.46
   8   2  -6    0.07    1.78
  -8  -2   6    2.77    1.83
  -8  -2   6   -0.98    2.12
  -8  -2   6   -0.13    1.74
   8   2  -5  168.35   11.89
  -8  -2   5  142.26   11.68
   8   2  -5  182.93   12.10
  -8  -2   5  156.17   12.12
  -8  -2   5  171.73    9.63
  -8  -2   5  156.23   11.69
  -8  -2   4   12.53    3.50
   8   2  -4   16.76    3.86
  -8  -2   4   13.90    3.93
  -8  -2   4   17.29    4.14
  -8  -2   4   18.99    3.37
  -8  -2   4   15.76    3.99
   8   2  -4   20.16    4.12
  -8  -2   3   24.46    4.79
   8   2  -3   24.54    4.32
  -8  -2   3   17.72    4.15
  -8  -2   3   24.90    4.92
   8   2  -3   21.35    4.37
  -8  -2   2  144.72   11.50
   8   2  -2  174.67   10.85
  -8  -2   2  160.37   11.95
  -8  -2   2  153.58   11.98
   8   2  -2  149.52   10.87
  -8  -2   1   -1.79    2.05
   8   2  -1    2.72    1.48
  -8  -2   1   -0.58    1.45
  -8  -2   1    0.66    2.00
   8   2  -1    1.47    1.55
  -8  -2   0  167.14   12.33
   8   2   0  202.94   11.10
  -8  -2   0  152.88   11.44
  -8  -2   0  165.35   12.57
   8   2   0  196.13   12.43
  -8  -2  -1    0.72    1.92
   8   2   1    3.68    1.98
  -8  -2  -1   -0.38    1.87
  -8  -2  -1   -0.06    1.31
  -8  -2  -2    1.33    1.55
   8   2   2    2.92    1.96
  -8  -2  -2    2.68    2.07
  -8  -2  -2    2.69    2.25
  -8  -2  -3   13.04    3.87
   8   2   3   15.58    3.59
  -8  -2  -3    9.91    3.37
  -8  -2  -3   10.66    3.15
  -8  -2  -4  181.22   13.47
  -8  -2  -4  230.35   15.84
   8   2   4  218.55   13.39
  -8  -2  -5   88.98    9.66
  -8  -2  -5   93.39   10.21
   8   2   5  109.20    9.66
   8   2   6    2.41    1.81
  -8  -2  -6    3.92    2.85
  -8  -2  -6    1.82    2.52
  -8  -2  -7  188.17   14.49
  -8  -2  -7  193.36   15.70
   8   2   7  207.73   13.70
  -8  -2  -8    0.43    1.86
   8   2   8    1.74    1.92
  -8  -2  -8    0.78    1.44
   8   2   8    0.35    1.43
  -8  -2  -9   33.45    6.50
   8   2   9   31.11    6.91
  -8  -2  -9   35.94    7.28
   8   2   9   28.30    5.37
  -8  -2 -10   45.87    7.87
   8   2  10   35.05    7.66
  -8  -3  14   31.23    6.15
  -8  -3  14   35.97    7.72
   8   3 -14   32.09    6.23
  -8  -3  14   33.89    6.99
  -8  -3  13    2.61    2.08
   8   3 -13    1.80    2.06
  -8  -3  13   -0.96    1.64
   8   3 -12   90.21   10.12
  -8  -3  12  117.57   12.79
  -8  -3  12   95.17   11.06
  -8  -3  12   90.48    9.70
  -8  -3  11    0.39    1.39
  -8  -3  11   -2.09    3.02
   8   3 -11    0.27    1.63
  -8  -3  11    1.97    2.44
   8   3 -10   80.53    9.31
  -8  -3  10   86.25   10.30
  -8  -3  10   86.77   10.09
  -8  -3  10   64.42    7.86
  -8  -3   9    3.37    2.25
   8   3  -9    2.14    1.87
  -8  -3   9    6.09    3.13
  -8  -3   9    2.87    2.22
  -8  -3   8    1.33    1.44
   8   3  -8    1.51    2.17
  -8  -3   8   -3.11    2.20
  -8  -3   8   -1.35    2.46
  -8  -3   7   43.47    6.29
   8   3  -7   47.47    6.87
  -8  -3   7   42.63    6.80
  -8  -3   7   47.08    6.88
   8   3  -6   33.23    5.73
  -8  -3   6   31.39    5.41
  -8  -3   6   20.26    4.85
  -8  -3   6   23.60    5.45
  -8  -3   6   24.42    5.11
  -8  -3   6   35.72    4.84
   8   3  -5  582.95   22.83
  -8  -3   5  557.77   23.53
  -8  -3   5  572.17   24.31
  -8  -3   5  557.73   23.39
  -8  -3   5  602.70   19.76
  -8  -3   4   29.37    5.35
   8   3  -4   38.93    5.55
  -8  -3   4   35.24    6.19
  -8  -3   4   30.56    5.64
  -8  -3   4   41.62    5.30
   8   3  -4   39.05    6.06
   8   3  -3  342.87   17.25
  -8  -3   3  329.95   17.61
   8   3  -3  357.70   15.82
  -8  -3   3  300.03   17.48
  -8  -3   3  338.97   18.15
  -8  -3   3  349.37   15.36
   8   3  -2   56.55    7.00
   8   3  -2   51.58    5.83
  -8  -3   2   50.01    6.85
  -8  -3   2   46.26    6.82
  -8  -3   2   53.18    7.16
  -8  -3   1    3.12    2.09
  -8  -3   1    3.20    2.31
  -8  -3   1    2.70    1.41
   8   3  -1    4.39    2.43
  -8  -3   0    0.25    1.24
  -8  -3   0   -4.03    2.36
  -8  -3   0   -0.41    1.97
   8   3   0   -0.90    1.68
  -8  -3  -1   -0.72    1.66
   8   3   1    4.14    2.24
  -8  -3  -1    0.72    1.90
  -8  -3  -1    1.96    2.42
  -8  -3  -2  467.08   21.00
  -8  -3  -2  484.51   22.66
  -8  -3  -2  463.44   21.02
   8   3   2  467.19   19.69
  -8  -3  -3    6.77    2.97
   8   3   3   14.57    3.65
  -8  -3  -3   15.98    4.34
  -8  -3  -3   13.43    3.77
  -8  -3  -4  194.31   13.85
  -8  -3  -4  227.63   16.17
  -8  -3  -4  240.70   14.88
   8   3   4  217.41   13.70
   8   3   5   29.84    5.20
  -8  -3  -5   32.74    5.83
  -8  -3  -5   29.45    6.12
   8   3   6   27.96    5.24
  -8  -3  -6   34.03    6.24
  -8  -3  -6   40.50    7.28
   8   3   7    6.18    2.71
  -8  -3  -7    5.03    2.80
  -8  -3  -7    8.37    3.62
  -8  -3  -8   78.83   10.65
   8   3   8   69.29   10.31
   8   3   8   83.61    8.97
  -8  -3  -9    4.82    3.02
   8   4 -14    7.59    3.00
  -8  -4  14   16.13    5.37
  -8  -4  13   25.50    6.26
   8   4 -13   27.10    6.06
  -8  -4  13   30.40    6.59
  -8  -4  12    4.08    2.25
  -8  -4  12    3.05    2.67
  -8  -4  12    5.04    3.07
  -8  -4  11    6.55    2.53
  -8  -4  11    5.06    3.21
   8   4 -11    3.67    2.06
  -8  -4  11    5.64    2.66
  -8  -4  10    1.49    1.39
  -8  -4  10   -1.14    1.72
   8   4 -10    2.69    2.38
  -8  -4  10    2.69    2.40
   8   4 -10    5.43    2.44
  -8  -4   9   42.48    7.26
   8   4  -9   57.75    8.04
  -8  -4   9   55.76    8.60
  -8  -4   9   57.41    8.16
  -8  -4   9   77.18    8.57
   8   4  -9   61.29    6.90
   8   4  -8  154.55   12.85
  -8  -4   8  133.31   12.43
  -8  -4   8  161.03   14.14
  -8  -4   8  150.33   12.71
  -8  -4   8  144.47   11.84
   8   4  -8  147.92   10.34
   8   4  -7  120.12   11.21
  -8  -4   7   82.38    9.45
  -8  -4   7   98.84   10.95
  -8  -4   7  111.14   10.90
  -8  -4   7  121.34    9.63
   8   4  -7  114.88    8.77
   8   4  -6   68.95    8.36
  -8  -4   6   55.15    7.80
  -8  -4   6   66.20    8.32
  -8  -4   6   55.75    8.16
  -8  -4   6   62.84    7.00
   8   4  -6   78.27    6.99
   8   4  -5  130.73   11.30
  -8  -4   5  119.43   11.03
  -8  -4   5  131.35   12.38
  -8  -4   5  137.42   11.96
  -8  -4   5  130.03   10.02
   8   4  -5  166.38    9.71
   8   4  -4    2.48    1.65
  -8  -4   4    1.69    1.82
   8   4  -4    1.80    1.04
  -8  -4   4    1.53    1.93
  -8  -4   4   -0.31    2.08
  -8  -4   4   -0.72    1.50
  -8  -4   3    0.37    1.20
  -8  -4   3   -1.29    2.29
  -8  -4   3   -1.53    2.12
  -8  -4   3    1.21    1.41
   8   4  -3   -0.36    1.24
  -8  -4   2   23.94    5.13
  -8  -4   2   26.83    5.53
  -8  -4   2   25.68    5.26
  -8  -4   2   31.35    5.09
   8   4  -2   30.53    5.42
  -8  -4   1  189.61   13.30
  -8  -4   1  204.29   14.53
  -8  -4   1  182.62   14.40
   8   4  -1  205.38   13.67
  -8  -4   0    1.97    1.85
  -8  -4   0    1.87    1.89
  -8  -4   0    5.52    2.86
   8   4   0    4.94    2.37
  -8  -4  -1   -1.17    2.06
  -8  -4  -1    3.98    2.54
   8   4   1    3.18    2.31
  -8  -4  -1   -3.78    2.32
  -8  -4  -2   52.35    7.29
  -8  -4  -2   81.09    9.55
  -8  -4  -2   72.94    8.85
   8   4   2   76.94    8.38
  -8  -4  -3   26.57    5.15
   8   4   3   34.09    5.64
  -8  -4  -3   39.24    6.86
  -8  -4  -3   28.57    5.70
   8   4   4   35.17    5.81
  -8  -4  -4   25.13    4.97
  -8  -4  -4   36.21    6.76
  -8  -4  -4   28.79    5.64
   8   4   5    2.61    1.87
  -8  -4  -5   -1.26    2.39
   8   4   6   -0.12    1.40
  -8  -4  -6   -0.13    2.52
   8   4   7    6.65    4.24
  -8  -4  -7    1.09    1.93
  -8  -4  -8   30.14    6.85
  -8  -5  13    9.79    4.26
  -8  -5  13    9.37    3.79
  -8  -5  13    7.61    3.48
   8   5 -13    7.74    3.27
   8   5 -13    6.09    2.43
  -8  -5  12    0.32    1.83
  -8  -5  12    0.99    2.22
   8   5 -12    1.60    2.17
  -8  -5  12    2.55    2.96
   8   5 -12   -1.10    2.44
   8   5 -11  150.53   13.86
  -8  -5  11  145.10   14.24
  -8  -5  11  155.43   15.32
  -8  -5  11  137.37   13.28
   8   5 -11  164.83   12.37
   8   5 -10    1.15    1.86
   8   5 -10    0.99    1.56
  -8  -5  10    0.07    2.32
  -8  -5  10   -0.97    1.79
   8   5  -9    1.56    1.56
  -8  -5   9    0.93    2.34
   8   5  -9   -1.71    2.30
  -8  -5   9    2.54    3.31
  -8  -5   9    4.17    2.58
   8   5  -8    5.03    2.19
   8   5  -8    2.42    1.97
  -8  -5   8   -1.65    1.50
  -8  -5   8    3.00    2.65
  -8  -5   8    2.15    2.05
  -8  -5   8    6.56    2.69
   8   5  -7  283.57   17.82
  -8  -5   7  268.35   17.37
  -8  -5   7  264.35   18.85
  -8  -5   7  256.92   16.92
  -8  -5   7  288.18   16.00
   8   5  -7  297.03   14.46
   8   5  -6   -4.13    1.90
   8   5  -6    0.72    1.60
  -8  -5   6    0.43    1.50
  -8  -5   6    2.35    2.59
  -8  -5   6   -1.06    2.06
  -8  -5   6    0.54    1.56
   8   5  -5   70.94    8.74
  -8  -5   5   72.18    8.74
  -8  -5   5   72.83    9.83
  -8  -5   5   63.85    8.43
  -8  -5   5   65.56    7.61
   8   5  -4  173.45   13.38
  -8  -5   4  144.35   12.02
  -8  -5   4  153.75   14.07
  -8  -5   4  160.94   13.18
  -8  -5   4  153.64   11.76
  -8  -5   3   25.79    5.18
  -8  -5   3   24.52    5.66
  -8  -5   3   26.66    5.53
  -8  -5   3   23.86    4.83
   8   5  -3   28.46    5.41
  -8  -5   2   18.17    4.48
  -8  -5   2   26.56    5.42
  -8  -5   2   21.23    5.44
  -8  -5   2   31.14    5.42
   8   5  -2   20.30    4.64
  -8  -5   1    4.29    2.27
  -8  -5   1    1.06    1.72
  -8  -5   1    4.01    3.00
  -8  -5   0  332.89   17.58
  -8  -5   0  354.13   19.81
  -8  -5   0  338.45   20.43
   8   5   0  351.37   18.36
  -8  -5  -1    4.06    2.23
   8   5   1    1.49    1.86
  -8  -5  -1    0.79    1.63
  -8  -5  -2   83.05   10.04
  -8  -5  -2   82.58   10.07
   8   5   2   89.55    9.25
   8   5   3    8.63    3.13
  -8  -5  -3    5.38    3.03
  -8  -5  -3   15.30    4.55
   8   5   4    9.08    3.11
  -8  -5  -4    4.56    2.45
  -8  -5  -4    7.94    3.73
  -8  -5  -5  103.14   11.73
   8   5   5  100.77    9.73
   8   5   6    1.70    2.60
  -8  -5  -6    3.92    3.16
  -8  -5  -7  180.26   16.13
  -8  -6  13    2.99    2.77
   8   6 -12    1.25    1.51
  -8  -6  12   -1.41    1.81
  -8  -6  12    1.14    1.96
   8   6 -11    1.53    2.04
  -8  -6  11   -7.40    3.64
  -8  -6  11    3.23    3.31
   8   6 -11   -1.89    2.78
  -8  -6  11   -0.51    2.69
   8   6 -10  134.95   13.38
  -8  -6  10  128.37   13.26
  -8  -6  10  153.92   15.62
  -8  -6  10  120.78   12.30
   8   6 -10  126.75   10.78
   8   6  -9   72.05    9.59
  -8  -6   9   72.20    9.81
  -8  -6   9   76.13   11.01
  -8  -6   9   71.05    9.37
  -8  -6   9   61.98    8.02
   8   6  -9   78.82    8.32
   8   6  -8   16.90    3.76
  -8  -6   8   18.24    5.00
   8   6  -8   15.01    4.50
  -8  -6   8   10.77    4.53
  -8  -6   8   14.78    4.38
  -8  -6   8   12.69    3.92
   8   6  -7  246.01   17.03
  -8  -6   7  205.47   15.51
  -8  -6   7  239.48   18.89
  -8  -6   7  221.04   16.08
  -8  -6   7  200.97   14.18
   8   6  -7  221.60   12.81
   8   6  -6   -0.45    2.58
  -8  -6   6    3.06    2.43
  -8  -6   6    1.98    1.75
  -8  -6   6    4.20    2.66
  -8  -6   6   -4.85    2.46
   8   6  -5   33.82    6.35
  -8  -6   5   24.63    5.22
  -8  -6   5   33.91    7.17
  -8  -6   5   39.25    6.83
  -8  -6   5   32.87    5.89
   8   6  -4    0.74    1.19
  -8  -6   4    1.70    1.87
  -8  -6   4    0.79    2.80
  -8  -6   4    3.27    2.57
  -8  -6   4    1.80    1.83
   8   6  -3  245.31   16.43
  -8  -6   3  262.15   17.27
  -8  -6   3  252.67   18.88
  -8  -6   3  289.88   17.12
  -8  -6   2   18.94    4.92
  -8  -6   2    8.01    3.69
  -8  -6   2   16.80    4.26
   8   6  -2   18.79    4.75
  -8  -6   1   45.13    7.40
  -8  -6   1   36.52    7.48
   8   6  -1   38.04    6.46
  -8  -6   0   60.00    8.53
  -8  -6   0   47.82    8.17
   8   6   0   57.83    7.79
  -8  -6  -1    2.70    2.32
   8   6   1    2.19    2.17
  -8  -6  -1   -0.54    1.96
   8   6   2    5.22    2.52
  -8  -6  -2    1.26    1.86
  -8  -6  -2    2.74    2.43
  -8  -6  -3    1.18    2.46
  -8  -6  -3   -0.84    1.82
  -8  -6  -4    4.37    2.99
  -8  -6  -4    8.00    3.54
   8   6   5    9.79    4.33
  -8  -6  -5    8.81    3.78
  -8  -6  -5   13.71    4.40
   8   7 -11    2.93    1.83
  -8  -7  11    9.50    3.96
   8   7 -10   39.67    6.24
  -8  -7  10   35.55    6.99
  -8  -7  10   27.01    5.70
   8   7  -9   12.55    3.51
  -8  -7   9   22.18    5.71
   8   7  -9   12.87    4.48
  -8  -7   9   18.00    5.32
  -8  -7   9   17.66    4.66
   8   7  -8   -5.57    2.98
  -8  -7   8   -0.93    1.74
  -8  -7   8   -0.03    2.67
  -8  -7   8   -2.69    2.62
  -8  -7   8    1.17    1.30
   8   7  -7    4.88    2.61
  -8  -7   7    0.65    2.52
  -8  -7   7   -0.72    2.02
  -8  -7   7    2.88    2.19
   8   7  -6    5.02    2.62
  -8  -7   6    8.87    4.36
  -8  -7   6   15.90    4.50
  -8  -7   6    6.23    3.00
   8   7  -5   -0.87    2.02
  -8  -7   5    0.47    1.83
  -8  -7   5    5.79    3.55
  -8  -7   5    0.19    1.37
   8   7  -4   12.41    4.09
  -8  -7   4    8.60    3.64
  -8  -7   4    8.23    4.25
  -8  -7   4    1.27    1.69
  -8  -7   3   25.29    5.30
  -8  -7   3   26.17    6.61
  -8  -7   3   26.17    5.66
   8   7  -3   28.52    5.95
  -8  -7   2   23.47    5.48
  -8  -7   2   23.84    6.38
  -8  -7   2   29.04    6.00
   8   7  -2   20.83    5.08
  -8  -7   1   -1.71    2.74
  -8  -7   1    0.89    1.74
   8   7  -1   -0.89    1.59
  -8  -7   0   83.43   10.11
  -8  -7   0   70.95   10.44
   8   7   0   78.20    9.27
  -8  -7  -1   39.12    7.22
   8   7   1   45.87    7.15
  -8  -7  -1   29.68    6.98
   8   7   2   45.42    6.99
  -8  -7  -2   31.29    6.54
  -8  -7  -2   40.08    7.99
   8   7   3   -2.30    2.09
  -8  -7  -3    3.61    2.52
  -8  -7  -3    3.90    2.87
  -8  -7  -4    1.07    1.22
  -8  -8   8    2.54    2.14
  -8  -8   7    0.25    1.91
   8   8  -6   73.42    9.91
  -8  -8   6   63.69    8.89
   8   8  -5   71.78    9.65
  -8  -8   5   77.14    9.94
   8   8  -4   95.65   11.11
  -8  -8   4  102.88   13.38
  -8  -8   4  109.37   11.78
   8   8  -3   97.10   11.04
  -8  -8   3  114.72   14.03
  -8  -8   3  103.75   11.44
   8   8  -2  178.63   14.77
  -8  -8   2  207.59   16.26
   8   8  -1    4.60    2.74
   8   8   0   34.80    6.39
   9 -10  -4   19.64    5.14
   9 -10  -3   67.26    9.74
   9 -10  -2   19.13    5.21
   9 -10  -1   20.49    5.44
   9 -10   0   24.43    6.31
  -9  10  -1   -0.74    2.24
   9 -10   1    1.52    1.83
  -9  10  -3    0.37    1.83
  -9  10  -4   -4.88    3.10
   9  -9  -7    6.81    3.68
   9  -9  -6   -1.84    2.27
   9  -9  -5   21.07    5.58
  -9   9   5   13.03    4.76
   9  -9  -4   61.36    9.07
  -9   9   4   83.72   11.19
   9  -9  -3  105.11   11.86
  -9   9   3  121.58   13.44
   9  -9  -2  350.68   21.55
  -9   9   2  359.80   22.76
   9  -9  -1   89.29   10.92
  -9   9   1   75.40   10.51
  -9   9   0    1.65    2.93
   9  -9   0    0.11    1.87
  -9   9  -1    1.63    2.22
   9  -9   1   -0.38    1.29
  -9   9  -2   43.69    7.73
   9  -9   2   35.68    7.09
  -9   9  -3    4.59    2.61
   9  -9   3    0.45    1.54
  -9   9  -4   30.42    6.78
  -9   9  -4   24.58    5.77
   9  -9   4   40.20    7.76
   9  -9   4   35.93    6.51
  -9   9  -5   18.06    5.19
   9  -9   5   20.16    5.51
   9  -9   5   23.32    5.41
  -9   9  -6   -2.35    2.77
  -9   9  -6    1.17    1.92
   9  -9   6    2.26    1.90
  -9   9  -7   20.96    5.60
   9  -8  -9    1.52    2.65
  -9   8   8   13.82    4.13
   9  -8  -8   14.98    4.52
  -9   8   7   -0.71    1.43
   9  -8  -7    0.68    2.23
  -9   8   7    0.25    2.15
  -9   8   6    7.15    2.88
   9  -8  -6    2.18    1.61
  -9   8   6    2.62    2.11
  -9   8   5   23.42    4.80
   9  -8  -5   13.23    4.18
  -9   8   5   14.93    4.87
   9  -8  -4   55.72    8.54
  -9   8   4   56.40    8.93
  -9   8   4   64.00    7.90
  -9   8   3   19.14    5.33
   9  -8  -3   23.31    5.45
   9  -8  -2  217.28   16.30
  -9   8   2  215.16   16.87
  -9   8   1    1.94    2.22
   9  -8  -1    8.44    3.32
   9  -8   0   60.55    8.72
  -9   8   0   70.49    9.55
  -9   8  -1    0.02    1.62
  -9   8  -1    2.28    2.05
   9  -8   1   -3.40    2.50
   9  -8   1    1.20    1.66
  -9   8  -2    2.97    2.33
  -9   8  -2   -1.78    1.80
   9  -8   2    0.36    1.40
  -9   8  -3    0.70    1.80
  -9   8  -3   -0.76    2.08
   9  -8   3    3.96    3.26
   9  -8   3    0.90    1.30
  -9   8  -4   -0.38    1.72
  -9   8  -4    2.62    2.55
   9  -8   4    0.94    1.97
   9  -8   4    0.54    1.70
   9  -8   5  100.78   11.86
  -9   8  -5   99.20   11.39
   9  -8   5   78.15    9.41
  -9   8  -5  102.17   11.17
  -9   8  -6    1.64    1.94
  -9   8  -6    4.20    2.84
   9  -8   6    2.56    2.04
   9  -8   6    3.37    2.49
   9  -8   7  112.76   12.83
  -9   8  -7   85.36   11.01
   9  -8   7  115.79   11.98
  -9   8  -7  109.52   11.69
  -9   8  -8    5.77    3.19
  -9   8  -8    5.37    3.40
   9  -7 -10   17.04    4.91
  -9   7   9    4.11    3.07
   9  -7  -9   -2.75    2.52
  -9   7   8    5.15    2.76
   9  -7  -8    5.81    3.32
  -9   7   7   10.03    3.33
   9  -7  -7   10.39    3.79
  -9   7   7   10.31    4.68
  -9   7   6   17.54    4.39
   9  -7  -6   12.52    4.07
  -9   7   6   10.54    4.05
  -9   7   5   25.03    5.09
   9  -7  -5   28.50    6.19
  -9   7   5   22.25    5.27
   9  -7  -4  163.80   14.03
  -9   7   4  184.02   15.32
  -9   7   4  170.12   12.64
  -9   7   3   -1.14    1.76
  -9   7   3    0.61    1.24
  -9   7   3    3.12    2.57
   9  -7  -3   -0.49    1.52
  -9   7   2    0.99    1.14
  -9   7   2    0.90    2.07
  -9   7   2    1.82    1.63
   9  -7  -2    6.22    3.17
   9  -7  -1   63.34    8.61
  -9   7   1   56.39    7.50
  -9   7   1   52.65    7.97
  -9   7   1   60.71    7.26
  -9   7   0   28.47    5.71
  -9   7   0   34.95    6.19
   9  -7   0   44.14    7.12
   9  -7   0   44.48    6.17
  -9   7  -1   47.88    7.14
   9  -7   1   49.22    7.77
   9  -7   1   46.33    6.30
  -9   7  -1   64.12    8.54
   9  -7   2  296.97   18.91
  -9   7  -2  311.81   18.69
   9  -7   2  278.31   15.89
  -9   7  -2  285.94   17.69
  -9   7  -3   44.40    7.15
  -9   7  -3   41.18    7.11
   9  -7   3   41.50    7.28
   9  -7   3   40.93    6.26
   9  -7   4   83.25   10.34
  -9   7  -4   92.51   10.75
   9  -7   4   79.85    8.99
  -9   7  -4   72.01    8.94
  -9   7  -5   14.06    4.18
  -9   7  -5    8.12    3.72
   9  -7   5   14.32    4.54
   9  -7   5   11.37    3.70
  -9   7  -6   67.69    9.71
   9  -7   6   56.70    8.91
   9  -7   6   56.40    7.86
  -9   7  -6   66.53    8.71
  -9   7  -7    6.76    3.19
  -9   7  -7   10.02    4.21
   9  -7   7   -1.98    2.24
   9  -7   7    0.97    1.62
  -9   7  -8   -5.21    2.83
   9  -7   8    0.16    1.09
   9  -7   8   -2.00    2.79
  -9   7  -9    6.80    3.09
  -9   7  -9    7.44    3.14
   9  -7   9    5.01    2.82
   9  -6 -11    5.84    3.18
  -9   6  10    6.43    3.24
   9  -6 -10   10.75    4.15
   9  -6  -9   61.92    9.04
  -9   6   9   60.56    8.30
  -9   6   8   24.20    5.27
   9  -6  -8   38.67    6.99
   9  -6  -7  192.35   15.23
  -9   6   7  180.96   13.69
  -9   6   6   12.61    3.80
  -9   6   6   11.25    3.69
   9  -6  -6   24.11    5.70
  -9   6   6   14.31    4.29
  -9   6   5   -1.31    1.86
  -9   6   5    2.90    2.04
   9  -6  -5   -0.25    2.23
  -9   6   5    0.75    1.76
  -9   6   4   43.07    6.47
  -9   6   4   33.53    6.09
   9  -6  -4   39.77    6.90
  -9   6   4   21.79    5.21
  -9   6   3   13.13    3.81
  -9   6   3   14.23    4.10
   9  -6  -3   19.68    4.91
  -9   6   3   16.73    4.46
  -9   6   2   12.67    3.57
  -9   6   2   11.83    3.91
  -9   6   2    9.84    3.42
   9  -6  -2    6.60    2.80
   9  -6  -2   17.19    3.56
  -9   6   1   16.16    3.78
  -9   6   1   10.55    3.51
  -9   6   1   18.95    4.65
   9  -6  -1   14.06    4.01
   9  -6  -1   18.97    3.82
  -9   6   0   16.55    3.93
  -9   6   0    7.58    3.18
  -9   6   0   11.22    3.86
   9  -6   0    9.23    3.24
   9  -6   0    8.40    2.77
  -9   6  -1    6.25    2.78
  -9   6  -1    7.94    3.61
   9  -6   1    1.30    1.46
   9  -6   1    5.43    2.41
  -9   6  -1    8.04    2.53
  -9   6  -2   30.93    5.70
  -9   6  -2   23.85    5.14
   9  -6   2   18.97    4.70
   9  -6   2   29.42    5.07
   9  -6   3   73.13    9.21
  -9   6  -3   66.25    8.79
   9  -6   3   70.13    8.05
  -9   6  -3   63.36    7.95
  -9   6  -4    6.44    3.08
  -9   6  -4    6.13    3.05
   9  -6   4    0.59    1.74
   9  -6   4    1.92    2.03
  -9   6  -5   57.99    8.73
   9  -6   5   56.29    8.29
   9  -6   5   49.57    7.25
  -9   6  -5   64.26    7.95
  -9   6  -6    1.76    1.48
  -9   6  -6    1.98    1.78
   9  -6   6    4.02    2.88
   9  -6   6   -0.28    1.78
  -9   6  -7    2.00    1.69
  -9   6  -7    0.75    1.73
   9  -6   7   -0.38    1.40
   9  -6   7   -0.87    2.27
  -9   6  -8    2.97    1.76
  -9   6  -8   15.00    5.20
   9  -6   8   13.20    4.61
   9  -6   8    9.60    3.59
   9  -6   9   69.92    9.79
  -9   6  -9   79.06   10.96
   9  -6   9   82.31   10.23
   9  -6  10    4.22    2.90
   9  -5 -12   -0.87    2.41
  -9   5  12    3.39    2.03
  -9   5  11   43.44    7.24
   9  -5 -11   52.83    8.58
  -9   5  11   48.23    7.73
  -9   5  10    2.23    2.03
   9  -5 -10   -3.68    2.95
  -9   5  10    1.81    1.99
  -9   5   9    3.64    2.93
  -9   5   9    3.48    2.34
   9  -5  -9   10.78    4.13
  -9   5   9    7.71    3.08
  -9   5   8   -2.15    2.74
  -9   5   8    7.75    3.45
   9  -5  -8    7.78    3.41
  -9   5   8    5.15    2.59
  -9   5   7   47.98    7.30
   9  -5  -7   55.93    8.13
  -9   5   7   57.04    7.75
  -9   5   7   62.50    7.96
   9  -5  -6   86.28    9.84
  -9   5   6   77.39    9.08
  -9   5   6   78.79    8.77
  -9   5   6   91.82    9.47
  -9   5   5   49.01    7.17
   9  -5  -5   52.43    7.56
  -9   5   5   46.20    6.94
  -9   5   5   43.82    6.36
  -9   5   5   57.66    7.40
  -9   5   4   35.85    5.84
  -9   5   4   40.05    6.59
   9  -5  -4   32.32    5.96
  -9   5   4   39.29    6.49
  -9   5   4   39.72    6.02
   9  -5  -4   49.11    5.71
   9  -5  -3   88.46    9.70
  -9   5   3   73.97    8.78
  -9   5   3   90.54    8.84
   9  -5  -3   89.25    7.78
  -9   5   3   69.54    8.46
  -9   5   3   74.80    8.07
   9  -5  -2    2.17    1.74
  -9   5   2    1.70    1.80
  -9   5   2    2.48    2.15
  -9   5   2    0.14    1.82
   9  -5  -2    0.92    1.61
  -9   5   2    0.65    1.43
  -9   5   1   11.63    3.21
  -9   5   1   10.89    3.36
  -9   5   1   10.13    3.26
   9  -5  -1    9.90    3.24
  -9   5   1   15.43    3.74
   9  -5  -1   12.17    3.25
   9  -5   0  172.84   13.42
  -9   5   0  181.30   13.80
  -9   5   0  175.54   12.21
   9  -5   0  171.35   11.34
  -9   5   0  173.17   12.55
  -9   5   0  172.10   12.07
   9  -5   1  127.19   11.61
  -9   5  -1  144.99   12.47
  -9   5  -1  146.56   11.09
   9  -5   1  121.74    9.82
  -9   5  -1  132.99   10.87
  -9   5  -2   11.94    3.45
  -9   5  -2   18.44    4.70
   9  -5   2   18.59    4.80
  -9   5  -2   20.11    4.24
   9  -5   2   10.20    3.06
   9  -5   3  252.57   16.44
  -9   5  -3  268.79   17.35
  -9   5  -3  271.51   15.44
   9  -5   3  268.27   15.27
  -9   5  -3  268.80   15.20
  -9   5  -4   20.23    4.26
  -9   5  -4   12.91    3.96
   9  -5   4   13.63    4.15
  -9   5  -4   20.10    4.46
   9  -5   4   18.32    4.16
   9  -5   5   66.16    8.67
  -9   5  -5   65.43    9.11
  -9   5  -5   62.31    7.61
   9  -5   5   74.88    8.43
  -9   5  -5   63.53    7.47
  -9   5  -6   12.25    3.62
  -9   5  -6   10.28    3.53
   9  -5   6   11.09    3.86
  -9   5  -6    7.58    2.78
   9  -5   6   11.42    3.62
  -9   5  -7   20.03    5.71
   9  -5   7   29.67    6.12
  -9   5  -7   33.37    5.85
   9  -5   7   24.13    5.31
   9  -5   8   66.12    9.05
  -9   5  -8   73.19   10.32
  -9   5  -8   71.30    8.88
   9  -5   8   78.40    9.60
   9  -5   9  127.33   12.80
  -9   5  -9  126.53   13.75
   9  -5   9  106.04   11.22
   9  -5  10    5.72    3.38
   9  -4 -13    5.20    2.79
  -9   4  13    3.94    2.86
  -9   4  12   -4.02    2.55
  -9   4  12   -1.27    1.89
   9  -4 -12   -0.11    2.41
  -9   4  12    2.40    2.12
   9  -4 -11   92.06   10.93
  -9   4  11   64.47    9.12
  -9   4  11   86.99   10.34
  -9   4  11  101.92   11.07
  -9   4  10   24.55    5.47
  -9   4  10   17.67    4.87
   9  -4 -10   17.83    4.96
  -9   4  10   14.71    4.42
  -9   4   9  262.42   17.30
   9  -4  -9  261.68   17.82
  -9   4   9  240.01   16.26
  -9   4   9  264.17   16.79
  -9   4   8    4.37    2.64
  -9   4   8    0.98    1.50
   9  -4  -8    1.36    1.69
  -9   4   8   -0.59    1.74
  -9   4   7  122.38   11.45
   9  -4  -7  115.64   11.43
  -9   4   7  116.76   10.90
  -9   4   7  116.48   10.77
  -9   4   6    4.84    2.37
  -9   4   6    3.36    2.11
   9  -4  -6    7.95    3.27
  -9   4   6    0.85    1.13
  -9   4   5  147.65   12.26
   9  -4  -5  150.23   12.53
  -9   4   5  135.63   11.21
   9  -4  -5  151.15    9.89
  -9   4   5  121.97   10.91
  -9   4   5  139.68   11.26
  -9   4   4   23.30    4.75
   9  -4  -4   12.90    3.00
  -9   4   4   22.44    5.08
   9  -4  -4   19.15    4.58
  -9   4   4   18.47    4.23
  -9   4   4   23.99    4.71
   9  -4  -3    4.36    1.97
  -9   4   3    3.55    2.08
  -9   4   3    3.79    2.03
   9  -4  -3    3.58    2.41
  -9   4   3    6.50    2.70
  -9   4   3    8.31    3.07
   9  -4  -2   31.50    4.90
  -9   4   2   25.78    4.85
  -9   4   2   16.79    4.37
  -9   4   2   29.47    5.06
   9  -4  -2   20.42    4.67
  -9   4   2   29.23    5.07
   9  -4  -1    1.68    1.36
  -9   4   1    3.64    2.09
  -9   4   1   -0.71    1.32
   9  -4  -1   -0.05    1.49
  -9   4   1    0.64    1.51
   9  -4   0   59.69    7.73
  -9   4   0   59.03    7.91
  -9   4   0   57.42    7.14
   9  -4   0   71.25    7.38
  -9   4   0   75.44    7.73
  -9   4   0   69.27    7.81
   9  -4   1    7.00    2.49
  -9   4  -1    8.16    2.74
  -9   4  -1    6.84    2.53
   9  -4   1    8.83    3.29
  -9   4  -1    8.66    2.85
  -9   4  -2    0.54    1.27
   9  -4   2   -0.66    1.51
  -9   4  -2    0.06    1.29
   9  -4   2    2.76    1.89
  -9   4  -3   -0.84    1.53
  -9   4  -3    1.10    2.38
   9  -4   3    3.86    2.22
  -9   4  -3    1.76    1.63
   9  -4   3    2.63    1.63
   9  -4   4   54.14    7.51
  -9   4  -4   61.40    8.56
  -9   4  -4   62.15    7.87
   9  -4   4   46.50    6.59
  -9   4  -5   33.88    6.72
   9  -4   5   29.20    5.65
  -9   4  -5   27.42    5.34
   9  -4   5   23.09    4.79
  -9   4  -6   -2.02    2.69
   9  -4   6    3.38    2.54
  -9   4  -6   -1.82    1.83
   9  -4   6    0.67    1.84
  -9   4  -7    9.69    4.06
   9  -4   7    5.19    2.40
  -9   4  -7   11.95    3.73
   9  -4   7    8.26    3.49
  -9   4  -8    7.96    3.58
   9  -4   8    8.89    3.38
  -9   4  -8    5.42    2.85
   9  -4   8    2.68    1.56
  -9   4  -9   17.04    5.07
   9  -4   9    9.54    3.63
  -9   4  -9   13.77    4.30
   9  -4   9    8.76    3.43
  -9   4 -10   25.63    6.57
  -9   4 -10   31.46    6.59
   9  -4  10   28.11    6.08
  -9   4 -11   -1.81    3.10
  -9   3  14   41.60    7.78
  -9   3  13    3.96    2.72
  -9   3  13    1.66    1.75
   9  -3 -13   -3.18    3.27
  -9   3  13   -0.83    2.75
  -9   3  12   10.74    4.10
  -9   3  12   15.35    5.04
   9  -3 -12   13.85    4.50
  -9   3  12   14.68    4.59
  -9   3  11   10.36    3.88
  -9   3  11    9.61    3.68
   9  -3 -11   17.33    4.95
  -9   3  11    9.26    3.62
  -9   3  10   31.30    6.02
  -9   3  10   18.45    5.01
   9  -3 -10   24.06    5.65
  -9   3  10   29.61    6.06
  -9   3   9  121.88   11.95
   9  -3  -9  119.31   12.00
  -9   3   9   96.94   10.32
  -9   3   9  105.14   10.60
  -9   3   8    8.68    3.30
  -9   3   8    6.69    3.17
   9  -3  -8    4.84    2.71
  -9   3   8   10.06    3.34
  -9   3   7    3.10    2.64
  -9   3   7    0.89    1.98
   9  -3  -7    1.53    1.44
   9  -3  -7    2.52    2.50
  -9   3   7   -2.03    2.12
  -9   3   6  164.64   13.07
   9  -3  -6  157.99   12.82
  -9   3   6  173.97   13.06
   9  -3  -6  164.58   10.58
  -9   3   6  155.08   12.09
  -9   3   5    4.23    2.55
   9  -3  -5    3.39    1.57
  -9   3   5    3.24    2.34
   9  -3  -5    1.98    1.96
  -9   3   5    4.34    2.25
  -9   3   4    4.78    2.54
   9  -3  -4    9.83    2.99
  -9   3   4   -0.39    2.01
   9  -3  -4    6.52    2.80
  -9   3   4    3.87    2.00
  -9   3   4    7.35    2.76
  -9   3   3   25.81    4.87
   9  -3  -3   30.20    4.71
  -9   3   3   23.73    5.03
  -9   3   3   27.34    4.67
   9  -3  -3   25.27    5.08
  -9   3   3   23.16    4.78
  -9   3   2  456.41   21.30
   9  -3  -2  449.61   20.45
  -9   3   2  439.94   20.03
   9  -3  -2  398.42   16.96
  -9   3   2  435.14   17.83
  -9   3   2  414.67   19.02
  -9   3   1   -0.53    1.76
   9  -3  -1   -0.35    1.17
  -9   3   1    0.25    1.19
  -9   3   1    1.41    2.09
   9  -3  -1    1.12    1.37
  -9   3   1    2.13    1.58
   9  -3   0   17.09    3.79
  -9   3   0   18.18    4.65
   9  -3   0   17.79    4.40
  -9   3   0   17.23    4.22
   9  -3   1   74.42    8.37
  -9   3  -1   70.68    8.69
  -9   3  -1   80.66    8.71
   9  -3   1   79.49    7.95
   9  -3   2   16.21    3.76
  -9   3  -2   17.30    4.53
   9  -3   2   12.32    3.52
  -9   3  -2   13.48    3.77
   9  -3   3    5.85    2.35
  -9   3  -3    5.89    2.98
   9  -3   3    4.43    2.61
  -9   3  -3    7.97    3.07
  -9   3  -4    0.98    1.65
   9  -3   4    1.31    1.30
  -9   3  -4    4.57    2.59
   9  -3   4   -1.10    1.31
  -9   3  -5   -1.64    2.80
   9  -3   5    0.86    1.22
  -9   3  -5    1.86    1.83
   9  -3   5    2.20    1.76
  -9   3  -6   27.18    6.08
   9  -3   6   37.39    6.23
  -9   3  -6   33.24    6.13
   9  -3   6   27.39    5.25
  -9   3  -7   18.95    5.37
   9  -3   7   10.71    3.33
  -9   3  -7   17.43    4.64
   9  -3   7   12.13    3.65
  -9   3  -8  170.87   15.40
  -9   3  -8  159.51   13.99
   9  -3   8  176.97   13.89
  -9   3  -9   86.77   11.33
  -9   3  -9   69.72    9.55
   9  -3   9   91.04   10.16
  -9   3 -10   33.53    7.44
  -9   3 -10   24.43    6.15
   9  -3  10   45.99    7.58
  -9   2  14    8.41    3.26
  -9   2  13    1.28    1.35
  -9   2  13    4.53    2.53
   9  -2 -13    3.25    2.54
  -9   2  13    2.10    2.32
  -9   2  12    2.98    2.73
  -9   2  12    6.62    2.99
   9  -2 -12    5.84    3.00
  -9   2  12    2.24    1.78
  -9   2  11  114.37   12.22
   9  -2 -11  109.03   11.71
  -9   2  11  105.92   11.42
  -9   2  11  108.92   11.29
  -9   2  10   18.89    4.81
  -9   2  10   13.21    4.53
   9  -2 -10   12.85    4.06
  -9   2  10   11.44    4.07
  -9   2   9  119.25   11.94
   9  -2  -9  133.89   12.50
  -9   2   9  131.07   12.06
  -9   2   9  118.80   11.21
  -9   2   8    7.30    2.97
  -9   2   8    5.68    2.57
   9  -2  -8    5.20    2.94
   9  -2  -8    5.73    2.06
  -9   2   8    3.13    2.44
  -9   2   7   21.71    4.72
  -9   2   7   26.17    5.45
   9  -2  -7   20.13    4.72
   9  -2  -7   28.53    4.64
  -9   2   7   27.60    5.50
  -9   2   6    7.45    2.95
  -9   2   6    8.58    3.04
   9  -2  -6    6.54    2.87
   9  -2  -6    5.98    2.32
  -9   2   6    7.45    2.89
  -9   2   5    1.74    1.13
  -9   2   5    4.15    2.51
   9  -2  -5   -0.59    1.88
   9  -2  -5    1.47    1.30
  -9   2   5    0.21    1.10
  -9   2   4   59.46    7.83
   9  -2  -4   63.95    7.91
  -9   2   4   78.31    8.64
   9  -2  -4   62.84    6.81
  -9   2   4   61.24    7.54
  -9   2   3   63.51    8.09
   9  -2  -3   63.27    7.66
  -9   2   3   56.88    7.43
   9  -2  -3   66.88    7.08
  -9   2   3   66.26    7.76
   9  -2  -2  895.51   28.23
  -9   2   2  950.50   29.65
   9  -2  -2  921.86   26.27
  -9   2   2  945.87   28.88
  -9   2   1   68.49    8.42
   9  -2  -1   73.92    8.14
  -9   2   1   70.93    8.24
   9  -2  -1   72.30    7.57
  -9   2   1   87.22    8.94
  -9   2   0  433.15   20.99
   9  -2   0  403.46   18.89
  -9   2   0  433.07   20.12
   9  -2   0  430.04   18.17
   9  -2   1  108.52    9.76
  -9   2  -1  109.23   10.75
  -9   2  -1  108.18   10.27
   9  -2   1  110.53    9.40
   9  -2   2   -3.36    1.98
  -9   2  -2   -0.07    1.56
   9  -2   2    0.57    1.22
   9  -2   3   55.30    7.01
  -9   2  -3   47.02    7.50
  -9   2  -3   51.97    7.32
   9  -2   3   58.23    6.97
   9  -2   4   48.28    6.69
  -9   2  -4   48.34    7.69
  -9   2  -4   53.19    7.62
   9  -2   4   61.54    7.41
   9  -2   5  467.78   20.61
  -9   2  -5  445.25   22.97
  -9   2  -5  463.17   22.40
   9  -2   5  480.94   20.99
  -9   2  -6   49.55    8.06
   9  -2   6   49.82    6.83
  -9   2  -6   56.95    8.19
   9  -2   6   45.75    6.78
  -9   2  -7  155.69   14.13
  -9   2  -7  148.44   13.38
   9  -2   7  159.04   12.75
  -9   2  -8   24.52    6.02
  -9   2  -8   12.52    4.21
   9  -2   8   13.25    4.03
  -9   2  -9   25.14    6.32
  -9   2  -9   10.88    3.98
   9  -2   9   18.28    4.59
  -9   2 -10    3.27    3.03
   9  -2  10    8.37    3.72
  -9   2 -10    4.28    1.52
   9  -2  10    1.44    1.40
  -9   1  14   12.60    4.55
  -9   1  13    0.02    1.66
   9  -1 -13    3.24    2.24
  -9   1  13    4.70    3.11
  -9   1  12   26.68    5.72
  -9   1  12   25.14    6.13
   9  -1 -12   28.97    6.23
  -9   1  12   19.62    5.25
  -9   1  11   27.87    5.66
  -9   1  11   23.65    6.02
   9  -1 -11   32.15    6.44
  -9   1  11   31.69    6.38
  -9   1  10   13.25    3.95
  -9   1  10   15.45    4.65
   9  -1 -10   16.03    4.71
  -9   1  10    7.09    3.10
  -9   1   9   33.96    6.21
  -9   1   9   23.81    5.56
   9  -1  -9   35.45    6.45
  -9   1   9   25.24    5.46
   9  -1  -9   29.40    4.85
  -9   1   8   -1.17    2.03
  -9   1   8    1.00    1.75
   9  -1  -8    0.20    1.78
  -9   1   8    0.09    1.62
   9  -1  -8    0.84    1.59
  -9   1   7  147.35   12.78
   9  -1  -7  152.41   12.65
  -9   1   7  140.52   12.21
  -9   1   7  148.01   11.95
   9  -1  -7  160.00   11.17
  -9   1   6    2.63    1.82
  -9   1   6    1.04    2.28
   9  -1  -6    1.23    1.72
  -9   1   6    0.49    1.72
   9  -1  -6   -0.30    1.53
  -9   1   5  194.59   14.21
   9  -1  -5  216.43   14.37
  -9   1   5  189.29   13.74
  -9   1   5  195.84   13.44
   9  -1  -5  201.64   12.60
  -9   1   4    8.26    3.18
  -9   1   4    0.02    2.21
   9  -1  -4    4.06    2.28
   9  -1  -4    8.96    2.76
  -9   1   4    6.25    3.19
  -9   1   3    3.94    2.08
  -9   1   3    5.13    2.58
   9  -1  -3    2.16    1.75
   9  -1  -3    0.43    1.40
  -9   1   3    3.53    1.94
  -9   1   2   33.26    5.42
  -9   1   2   36.03    6.17
   9  -1  -2   33.17    5.31
   9  -1  -2   39.03    5.60
  -9   1   2   35.86    6.01
  -9   1   1  105.45   10.40
   9  -1  -1  118.56   10.06
  -9   1   1  132.51    9.62
  -9   1   1  118.54   10.78
   9  -1  -1  117.39    9.66
   9  -1   0   37.22    5.50
  -9   1   0   31.11    5.85
   9  -1   0   28.98    5.03
  -9   1   0   33.09    5.77
   9  -1   1   13.54    3.38
  -9   1  -1   11.84    3.94
   9  -1   1   14.54    3.58
  -9   1  -1   16.49    4.16
   9  -1   2   77.62    8.10
  -9   1  -2   78.50    9.16
  -9   1  -2   72.87    8.69
   9  -1   2   79.86    8.20
   9  -1   3   -1.37    1.96
  -9   1  -3   -1.31    1.54
   9  -1   3   -0.05    1.40
  -9   1  -3    1.29    1.89
   9  -1   4    3.35    2.17
  -9   1  -4   -0.02    1.88
   9  -1   4   -0.14    1.74
  -9   1  -4    3.25    2.16
  -9   1  -5   67.02    9.02
  -9   1  -5   83.05    9.81
   9  -1   5   70.47    8.12
  -9   1  -6  107.42   11.62
  -9   1  -6  106.81   11.31
   9  -1   6  102.49   10.07
  -9   1  -7   26.08    5.89
  -9   1  -7   30.12    6.47
   9  -1   7   37.17    6.30
  -9   1  -8    2.37    2.41
  -9   1  -8    5.64    3.05
   9  -1   8    4.63    2.94
  -9   1  -9    4.42    3.04
  -9   1  -9    1.35    1.34
   9  -1   9    4.82    2.14
  -9   1 -10    3.80    2.28
   9  -1  10   -0.99    3.37
   9  -1  10   -4.31    2.74
  -9   0  14   63.78    9.10
  -9   0  14   62.60   10.04
  -9   0  13   41.97    7.33
  -9   0  13   50.24    8.89
  -9   0  13   42.71    7.83
  -9   0  12    2.88    2.27
  -9   0  12    0.09    2.82
  -9   0  12    3.93    2.78
  -9   0  11   21.35    5.22
  -9   0  11   27.30    6.37
   9   0 -11   20.70    5.22
  -9   0  11   30.49    6.33
   9   0 -11   14.12    3.61
  -9   0  10   10.05    3.36
  -9   0  10   11.50    4.26
   9   0 -10   13.54    3.95
  -9   0  10   10.06    3.59
   9   0 -10   14.21    3.60
  -9   0   9   12.96    3.59
  -9   0   9   12.31    4.27
   9   0  -9   11.32    3.79
  -9   0   9   12.38    4.07
   9   0  -9   14.67    3.74
  -9   0   8    1.87    2.22
  -9   0   8    3.58    2.59
   9   0  -8   -0.04    1.54
  -9   0   8    2.32    2.13
   9   0  -8    1.02    1.45
  -9   0   7   24.64    4.97
  -9   0   7   17.26    4.65
   9   0  -7   23.16    5.05
  -9   0   7   19.31    4.71
   9   0  -7   16.79    3.88
  -9   0   6   37.24    6.08
  -9   0   6   35.25    6.47
   9   0  -6   33.61    5.88
  -9   0   6   38.64    6.51
   9   0  -6   36.81    5.72
  -9   0   5   -1.71    1.76
  -9   0   5   -0.87    1.83
   9   0  -5    0.17    1.33
  -9   0   5   -1.99    2.36
   9   0  -5    0.32    1.29
  -9   0   4  151.08   12.63
   9   0  -4  158.25   11.97
  -9   0   4  160.25   12.81
  -9   0   4  170.33   12.61
   9   0  -4  162.40   11.63
  -9   0   3   37.15    6.02
  -9   0   3   25.81    5.36
   9   0  -3   32.25    5.42
   9   0  -3   25.09    4.66
  -9   0   3   27.03    5.53
  -9   0   2  146.58   12.31
   9   0  -2  150.18   11.30
  -9   0   2  122.76   10.11
  -9   0   2  151.09   12.29
   9   0  -2  147.35   10.96
  -9   0   1   53.14    7.55
   9   0  -1   39.72    5.80
  -9   0   1   43.21    5.90
  -9   0   1   54.01    7.53
   9   0  -1   52.27    6.74
  -9   0   0    3.22    2.41
   9   0   0    5.37    2.34
   9   0   0    6.47    2.54
  -9   0   0    0.78    1.43
  -9   0   0   10.46    3.65
   9   0   1   92.85    8.48
  -9   0  -1   76.00    9.03
  -9   0  -1   86.51    9.50
   9   0   1   81.55    8.31
   9   0   2   33.63    5.47
  -9   0  -2   30.04    5.73
   9   0   2   30.80    4.89
  -9   0  -2   39.00    6.57
  -9   0  -3  311.07   18.55
  -9   0  -3  325.25   18.89
   9   0   3  346.94   17.51
   9   0   4   19.13    4.34
  -9   0  -4   26.03    5.76
  -9   0  -4   27.75    5.95
  -9   0  -5  111.04   11.54
  -9   0  -5   93.08   10.83
   9   0   5  101.67    9.86
  -9   0  -6  121.22   12.49
  -9   0  -6  109.33   11.87
   9   0   6   93.81    9.65
  -9   0  -7    2.51    2.87
  -9   0  -7    3.72    2.79
   9   0   7    1.17    1.51
  -9   0  -8   26.69    6.16
  -9   0  -8   18.68    5.25
   9   0   8   24.62    5.25
  -9   0  -9   38.81    7.46
   9   0   9   46.24    8.51
  -9   0  -9   47.04    8.47
   9   0   9   37.94    6.54
  -9   0 -10   32.59    6.96
   9   0  10   25.56    5.55
  -9  -1  14    6.64    3.10
  -9  -1  13  228.01   18.51
  -9  -1  13  228.82   17.97
  -9  -1  13  242.44   17.19
   9   1 -12  140.62   11.94
  -9  -1  12  158.33   15.09
  -9  -1  12  152.19   14.30
  -9  -1  12  152.94   13.42
   9   1 -11   29.44    5.54
  -9  -1  11   32.75    6.23
  -9  -1  11   30.49    6.72
  -9  -1  11   35.47    7.03
   9   1 -10   73.18    8.56
  -9  -1  10   67.12    9.38
  -9  -1  10   62.27    8.82
  -9  -1  10   60.32    8.06
  -9  -1   9   15.27    4.30
  -9  -1   9   12.80    4.30
   9   1  -9    8.18    3.04
  -9  -1   9   17.36    4.56
   9   1  -9   19.43    4.47
  -9  -1   8   17.86    4.57
  -9  -1   8   13.60    4.40
   9   1  -8   25.11    5.15
  -9  -1   8   13.01    4.04
   9   1  -8   20.16    4.54
   9   1  -7  283.53   16.20
  -9  -1   7  294.29   18.38
   9   1  -7  283.05   16.99
  -9  -1   7  304.78   18.38
  -9  -1   7  282.24   16.63
   9   1  -6  241.50   14.76
  -9  -1   6  246.46   16.56
   9   1  -6  240.76   15.27
  -9  -1   6  248.73   16.33
  -9  -1   6  239.05   15.26
  -9  -1   5  299.32   17.94
   9   1  -5  316.02   17.03
  -9  -1   5  306.40   18.06
  -9  -1   5  298.03   16.77
   9   1  -5  343.22   17.29
  -9  -1   4  198.66   14.51
   9   1  -4  209.11   13.62
  -9  -1   4  202.81   14.62
  -9  -1   4  200.78   14.00
   9   1  -4  192.28   12.96
  -9  -1   3    1.12    2.27
   9   1  -3   -1.25    1.85
  -9  -1   3   -0.63    1.49
  -9  -1   3   -2.80    2.19
   9   1  -3    1.84    1.81
  -9  -1   2    5.68    2.76
   9   1  -2    6.93    2.68
  -9  -1   2    4.14    2.21
   9   1  -2    8.59    2.94
  -9  -1   2    6.97    3.21
  -9  -1   1   17.28    4.53
   9   1  -1   18.33    3.87
   9   1  -1   22.47    4.66
  -9  -1   1   13.81    3.68
  -9  -1   1   20.44    4.75
  -9  -1   0   90.14    9.74
   9   1   0  106.59    8.94
  -9  -1   0   80.86    8.45
  -9  -1   0   93.04   10.00
   9   1   0   93.72    9.11
   9   1   1   64.68    7.00
  -9  -1  -1   50.15    7.50
  -9  -1  -1   68.26    8.64
  -9  -1  -1   53.69    6.80
   9   1   1   70.04    7.86
   9   1   2    4.38    2.02
  -9  -1  -2    0.36    1.93
  -9  -1  -2    1.64    1.46
  -9  -1  -3  152.04   12.99
  -9  -1  -3  178.62   14.41
   9   1   3  178.30   12.75
   9   1   4    4.96    2.56
  -9  -1  -4   17.01    4.58
  -9  -1  -4   16.14    4.82
   9   1   5    6.32    2.90
  -9  -1  -5    5.43    2.86
  -9  -1  -5    7.32    3.07
   9   1   6    4.61    2.18
  -9  -1  -6    0.74    1.54
  -9  -1  -6    0.76    1.36
   9   1   7    1.73    1.59
  -9  -1  -7    0.94    1.86
  -9  -1  -8   25.18    5.98
  -9  -1  -8   35.95    7.43
   9   1   8   22.82    5.16
  -9  -1  -9   53.04    8.76
   9   1   9   41.19    8.43
   9   1   9   39.60    6.69
  -9  -2  14   -0.31    1.94
   9   2 -13    8.67    3.20
  -9  -2  13   12.93    4.34
  -9  -2  13   12.28    4.89
  -9  -2  13    9.64    4.09
   9   2 -12   30.08    6.09
  -9  -2  12   32.20    6.20
  -9  -2  12   27.00    6.58
  -9  -2  12   31.23    6.81
   9   2 -11   27.96    5.69
  -9  -2  11   36.31    6.58
  -9  -2  11   21.37    5.64
  -9  -2  11   26.08    6.03
   9   2 -10    6.25    2.96
  -9  -2  10    2.04    2.37
  -9  -2  10    6.89    3.11
  -9  -2  10    0.74    2.20
   9   2  -9   46.73    7.11
  -9  -2   9   32.03    5.79
  -9  -2   9   39.99    7.29
  -9  -2   9   41.64    7.18
   9   2  -8    0.46    1.65
  -9  -2   8   -1.12    2.25
  -9  -2   8    0.22    1.92
  -9  -2   8    0.70    1.37
  -9  -2   7    6.30    2.78
  -9  -2   7    0.18    2.28
   9   2  -7    8.64    3.51
  -9  -2   7    5.32    2.73
   9   2  -7    5.37    2.26
   9   2  -6  159.00   12.36
  -9  -2   6  137.32   12.63
   9   2  -6  161.39   12.43
  -9  -2   6  150.08   12.94
  -9  -2   6  135.99   11.68
  -9  -2   5    2.91    2.37
   9   2  -5   17.37    4.20
  -9  -2   5    3.91    2.43
  -9  -2   5   11.18    3.75
   9   2  -5   13.75    3.76
  -9  -2   5   11.65    3.83
   9   2  -4   86.65    9.09
  -9  -2   4   83.70    9.63
   9   2  -4   95.20    9.18
  -9  -2   4   88.42    9.74
  -9  -2   4   82.69    9.53
  -9  -2   3    0.18    1.97
   9   2  -3    7.76    2.71
  -9  -2   3    2.83    2.36
  -9  -2   3    5.46    2.57
   9   2  -3    9.12    3.17
   9   2  -2   37.98    5.50
  -9  -2   2   19.21    4.56
  -9  -2   2   24.04    5.08
  -9  -2   2   31.93    5.91
   9   2  -2   32.82    5.65
   9   2  -1   58.84    6.69
  -9  -2   1   52.61    7.58
  -9  -2   1   56.74    7.97
  -9  -2   1   44.04    6.65
   9   2  -1   64.49    7.65
  -9  -2   0   58.62    7.93
  -9  -2   0   61.86    8.46
  -9  -2   0   59.78    7.71
  -9  -2  -1   15.06    4.22
   9   2   1   18.14    4.16
  -9  -2  -1   17.71    4.63
  -9  -2  -1    7.57    3.21
  -9  -2  -2   17.99    4.54
   9   2   2   26.62    5.17
  -9  -2  -2   33.12    6.38
  -9  -2  -3   82.26    9.75
  -9  -2  -3   82.86   10.25
   9   2   3   83.97    9.04
   9   2   4   34.66    5.91
  -9  -2  -4   29.07    6.04
  -9  -2  -4   43.04    7.46
  -9  -2  -5   53.70    8.18
  -9  -2  -5   73.66   10.02
   9   2   5   63.48    8.03
   9   2   6   18.48    4.64
  -9  -2  -6    9.88    3.63
  -9  -2  -6    8.76    3.46
   9   2   7    8.30    3.26
  -9  -2  -7    3.47    2.40
  -9  -2  -7    7.67    3.52
  -9  -2  -8   58.15    8.83
   9   2   8   60.55   10.03
   9   2   8   60.70    8.15
   9   2   9   12.57    3.99
   9   3 -14    0.55    2.71
  -9  -3  13   12.27    3.95
   9   3 -13   10.53    4.03
  -9  -3  13    5.55    3.19
  -9  -3  12   21.49    5.05
   9   3 -12   25.07    5.61
  -9  -3  12   24.67    6.16
  -9  -3  12   29.38    6.59
  -9  -3  11    7.86    3.21
   9   3 -11    5.68    2.64
  -9  -3  11   10.74    4.26
  -9  -3  11   13.92    4.55
  -9  -3  10    0.56    1.62
   9   3 -10   -0.69    2.34
  -9  -3  10    3.78    2.65
   9   3  -9  237.34   16.31
  -9  -3   9  233.70   17.51
  -9  -3   9  249.21   17.70
  -9  -3   9  239.66   16.17
   9   3  -8   93.43   10.14
  -9  -3   8   83.18   10.30
  -9  -3   8   84.81   10.21
  -9  -3   8   92.21    9.97
   9   3  -7   53.92    7.56
  -9  -3   7   47.35    7.19
  -9  -3   7   46.13    7.67
  -9  -3   7   55.95    8.33
  -9  -3   7   40.17    7.26
   9   3  -6  143.32   12.22
  -9  -3   6  120.90   11.90
   9   3  -6  152.58   12.09
  -9  -3   6  131.68   12.61
  -9  -3   6  146.59   13.09
   9   3  -5   58.78    7.86
   9   3  -5   44.43    6.51
  -9  -3   5   51.76    7.74
  -9  -3   5   39.19    6.91
  -9  -3   5   53.97    7.95
  -9  -3   4   -1.52    2.33
   9   3  -4    1.86    1.28
  -9  -3   4    5.53    3.02
  -9  -3   4    6.77    3.29
   9   3  -4    3.43    2.21
  -9  -3   3    2.13    1.86
   9   3  -3   12.88    3.36
  -9  -3   3    6.60    3.10
  -9  -3   3    7.90    3.26
   9   3  -3   14.17    3.93
  -9  -3   2  150.72   12.80
  -9  -3   2  147.46   12.95
  -9  -3   2  160.99   13.59
   9   3  -2  140.09   11.71
  -9  -3   1  108.84   10.95
  -9  -3   1  114.01   11.51
  -9  -3   1  111.37   11.16
   9   3  -1  125.58   11.21
  -9  -3   0  204.44   14.88
  -9  -3   0  270.86   17.75
  -9  -3   0  219.97   15.51
   9   3   0  250.78   15.57
  -9  -3  -1   35.96    6.39
   9   3   1   46.52    6.88
  -9  -3  -1   45.35    7.38
  -9  -3  -1   38.73    6.73
  -9  -3  -2   15.12    4.40
   9   3   2   17.78    4.26
  -9  -3  -2   24.29    5.78
  -9  -3  -2   22.30    5.10
  -9  -3  -3   69.77    8.99
  -9  -3  -3   48.36    7.89
   9   3   3   59.08    7.70
   9   3   4   -1.22    1.73
  -9  -3  -4    2.84    2.39
  -9  -3  -4   -1.68    2.31
   9   3   5    3.27    2.50
  -9  -3  -5    0.73    1.62
  -9  -3  -5    2.41    2.04
   9   3   6   34.88    6.02
  -9  -3  -6   22.05    5.28
  -9  -3  -6   30.46    6.66
   9   3   7   15.49    4.30
  -9  -3  -7   20.41    5.49
   9   4 -12   17.73    4.74
  -9  -4  12   22.41    6.16
  -9  -4  12   30.11    6.92
   9   4 -11   67.76    9.33
  -9  -4  11   66.96   10.14
  -9  -4  11   94.51   12.27
  -9  -4  11   82.44   10.79
  -9  -4  11   68.70    8.99
  -9  -4  10   -2.10    2.13
   9   4 -10    1.05    2.08
  -9  -4  10   -1.58    2.77
  -9  -4  10    2.20    2.60
  -9  -4  10    3.00    2.57
   9   4  -9   55.58    8.34
  -9  -4   9   48.79    8.18
  -9  -4   9   51.43    8.48
  -9  -4   9   49.91    8.16
  -9  -4   9   56.81    8.07
   9   4  -8   21.18    5.12
  -9  -4   8   13.50    4.67
  -9  -4   8   32.16    6.73
  -9  -4   8   25.46    5.80
   9   4  -7    7.62    3.18
  -9  -4   7   10.40    3.82
  -9  -4   7    8.60    3.85
  -9  -4   7   16.24    4.51
  -9  -4   6    5.47    3.13
   9   4  -6    4.44    2.17
  -9  -4   6    5.83    3.50
  -9  -4   6    5.97    3.34
   9   4  -6    1.48    2.02
  -9  -4   5   22.73    5.21
   9   4  -5   15.79    4.03
  -9  -4   5   21.80    5.53
  -9  -4   5   17.85    4.73
  -9  -4   5   21.04    4.28
   9   4  -5   19.08    4.70
  -9  -4   4   18.48    4.74
  -9  -4   4   19.14    5.53
  -9  -4   4   14.82    4.57
  -9  -4   4   22.47    4.40
   9   4  -4   34.70    6.26
  -9  -4   3   17.20    4.53
  -9  -4   3    7.70    3.46
  -9  -4   3    6.43    2.81
   9   4  -3    9.87    3.44
  -9  -4   2  172.47   13.76
  -9  -4   2  171.47   14.45
  -9  -4   2  190.64   15.64
   9   4  -2  189.72   14.10
  -9  -4   1   35.15    6.31
  -9  -4   1   42.67    7.34
  -9  -4   1   33.08    6.46
   9   4  -1   36.35    6.32
  -9  -4   0   73.13    8.97
  -9  -4   0   68.71    9.27
  -9  -4   0   67.42    9.21
   9   4   0   76.19    8.90
  -9  -4  -1   41.10    6.98
  -9  -4  -1   55.53    8.52
  -9  -4  -1   37.48    6.70
   9   4   1   49.65    7.34
  -9  -4  -2    1.16    1.95
   9   4   2    7.37    3.07
  -9  -4  -2    2.99    2.47
  -9  -4  -2    4.02    2.96
  -9  -4  -3    1.05    1.98
   9   4   3   -0.02    1.52
   9   4   4   27.74    5.44
  -9  -4  -4   36.13    7.23
   9   4   5   15.37    4.32
  -9  -4  -5    8.19    3.68
   9   4   6   -0.67    1.27
   9   5 -11  100.84   11.62
  -9  -5  11   86.64   11.62
  -9  -5  11   75.06   10.35
   9   5 -10   17.62    5.28
  -9  -5  10   19.42    5.28
  -9  -5  10   13.92    5.05
  -9  -5  10   15.22    4.63
   9   5  -9    5.94    2.75
  -9  -5   9   11.50    4.16
  -9  -5   9    9.04    4.22
  -9  -5   9   15.01    4.98
   9   5  -8   53.02    8.25
  -9  -5   8   57.73    8.79
  -9  -5   8   50.96    9.15
  -9  -5   8   53.83    8.56
   9   5  -7   -2.01    2.95
  -9  -5   7    0.19    1.78
  -9  -5   7    3.02    2.34
   9   5  -6    2.91    2.39
  -9  -5   6    0.71    1.56
  -9  -5   6    1.30    1.65
  -9  -5   6    1.55    1.96
  -9  -5   6    0.41    1.26
  -9  -5   5    6.54    3.21
  -9  -5   5    3.66    3.45
  -9  -5   5    0.66    1.63
  -9  -5   5    6.01    2.74
   9   5  -5   -0.66    2.20
  -9  -5   4    3.03    2.38
  -9  -5   4   -0.31    2.74
  -9  -5   4   -2.46    2.12
  -9  -5   4    0.37    1.04
   9   5  -4    1.38    2.16
   9   5  -3  164.63   13.63
  -9  -5   3  125.60   11.94
  -9  -5   3  129.68   12.79
  -9  -5   3  141.88   14.32
  -9  -5   2   35.61    6.51
  -9  -5   2   38.33    7.04
  -9  -5   2   39.84    7.91
   9   5  -2   33.59    6.21
  -9  -5   1  413.65   21.29
  -9  -5   1  402.48   22.64
  -9  -5   1  414.59   23.87
   9   5  -1  411.26   21.31
  -9  -5   0   20.80    5.55
   9   5   0   30.22    5.91
  -9  -5   0   33.41    7.14
   9   5   1    0.82    1.38
  -9  -5  -1    0.87    2.23
  -9  -5  -1    2.64    2.30
   9   5   2   20.26    4.80
  -9  -5  -2   15.18    4.69
  -9  -5  -2   15.66    4.76
   9   5   3    6.35    2.91
  -9  -5  -3    8.30    3.46
  -9  -5  -3    8.33    3.83
   9   5   4   19.70    4.79
  -9  -5  -4   17.62    5.17
  -9  -6  10    0.83    2.74
  -9  -6  10    3.61    2.41
   9   6 -10   -0.95    1.34
  -9  -6   9    7.08    3.52
  -9  -6   9    9.78    3.86
   9   6  -8   66.91    9.51
  -9  -6   8   70.90    9.88
  -9  -6   8   67.63    9.60
  -9  -6   8   62.45   10.19
   9   6  -7   15.84    4.74
  -9  -6   7   10.21    3.62
  -9  -6   7   15.41    5.73
  -9  -6   7   15.29    4.62
   9   6  -6   62.37    8.95
  -9  -6   6   64.94    9.12
  -9  -6   6   73.30   10.95
  -9  -6   6   41.90    7.49
  -9  -6   6   45.88    7.12
  -9  -6   5    3.76    2.44
  -9  -6   5   -1.34    2.67
  -9  -6   5   -1.42    1.76
   9   6  -5   -0.89    2.56
   9   6  -4   94.01   10.70
  -9  -6   4   81.69   10.41
  -9  -6   4  103.46   12.94
  -9  -6   4   87.53    9.81
  -9  -6   3   39.25    7.13
  -9  -6   3   31.03    7.15
  -9  -6   3   34.19    6.33
   9   6  -3   25.72    5.86
  -9  -6   2    1.87    1.79
  -9  -6   2    1.10    1.88
  -9  -6   1   48.62    8.03
  -9  -6   1   48.50    8.81
   9   6  -1   54.67    8.10
  -9  -6   0   29.08    6.32
   9   6   0   38.73    6.82
  -9  -6   0   45.15    8.38
   9   6   1    1.17    1.96
  -9  -6  -1   -0.68    1.37
  -9  -6  -1    0.10    2.27
   9   6   2   -0.09    1.56
  -9  -6  -2   -1.21    2.57
  -9  -6  -2   -0.02    2.51
   9   6   3    8.94    3.30
  -9  -6  -3   11.05    4.24
  -9  -6  -3   13.31    4.70
  -9  -7   7    3.83    2.80
  -9  -7   7    0.75    2.02
  -9  -7   6   28.32    6.25
  -9  -7   6   22.37    5.43
  -9  -7   5    5.63    2.75
  -9  -7   5   12.29    4.05
  -9  -7   4   17.56    5.07
  -9  -7   4   27.61    5.86
  -9  -7   3   10.99    3.96
   9   7  -3   14.10    4.40
  -9  -7   2    1.53    1.72
   9   7  -2    4.50    2.74
  -9  -7   1   46.79    8.18
   9   7  -1   40.22    7.12
  -9  -7   0   -1.16    2.19
 -10   9   2    7.43    3.80
 -10   9   1   96.74   11.98
 -10   9   0   -0.02    2.44
 -10   9  -1   38.57    7.48
 -10   9  -2    4.08    2.99
  10  -9   4   -0.78    1.99
 -10   8   7    1.72    2.51
 -10   8   6   36.10    6.50
  10  -8  -6   26.21    6.33
  10  -8  -5   10.47    4.07
 -10   8   5    6.68    3.66
 -10   8   4    9.04    3.63
  10  -8  -4   16.48    4.93
 -10   8   3    0.17    1.70
  10  -8  -3    1.00    2.24
 -10   8   2   11.44    4.19
  10  -8  -2    8.07    3.59
 -10   8   1   -1.58    2.47
  10  -8  -1   -0.07    2.16
 -10   8   0    4.72    2.92
  10  -8   0    5.34    3.92
 -10   8  -1   53.00    8.47
 -10   8  -1   46.72    7.69
  10  -8   1   49.96    8.44
  10  -8   2   76.03   10.52
 -10   8  -2   74.28    9.91
 -10   8  -2   63.74    9.23
  10  -8   2   66.34    8.40
 -10   8  -3   16.46    4.76
 -10   8  -3   24.73    6.02
  10  -8   3   22.25    5.70
  10  -8   3   26.43    5.43
 -10   8  -4   38.33    7.11
 -10   8  -4   58.67    9.27
  10  -8   4   54.68    7.93
 -10   8  -5   11.12    3.95
 -10   8  -5   22.66    5.70
  10  -8   5   15.29    4.45
 -10   8  -6   -1.97    2.79
 -10   8  -6   -6.15    3.26
  10  -7  -8  122.12   13.40
 -10   7   8   94.08   12.15
 -10   7   8  106.87   11.32
 -10   7   7   -1.15    2.17
  10  -7  -7    4.20    2.82
 -10   7   7    3.89    2.96
 -10   7   6   34.25    6.33
  10  -7  -6   42.74    7.71
 -10   7   6   49.47    8.56
 -10   7   5   -0.77    1.68
  10  -7  -5    0.38    1.29
 -10   7   5    0.44    1.72
 -10   7   4   49.50    8.32
  10  -7  -4   50.36    8.54
 -10   7   4   51.34    7.54
 -10   7   3    1.66    1.60
 -10   7   3    3.04    2.76
 -10   7   3    0.37    1.53
  10  -7  -3    1.67    1.80
 -10   7   2   -4.11    2.48
 -10   7   2   -2.54    3.01
 -10   7   2    0.88    1.83
  10  -7  -2    2.45    2.20
  10  -7  -1   83.36   10.57
 -10   7   1   86.00   10.26
 -10   7   1   75.55    9.76
 -10   7   0    5.86    3.01
 -10   7   0    0.39    1.37
  10  -7   0   -0.22    1.68
  10  -7   0    1.83    2.01
 -10   7  -1   51.95    7.90
 -10   7  -1   48.35    7.88
  10  -7   1   62.42    9.10
  10  -7   1   50.82    7.04
 -10   7  -2    4.20    2.20
 -10   7  -2    3.50    2.58
  10  -7   2    9.98    3.91
  10  -7   2    6.16    2.83
 -10   7  -3    1.35    1.97
 -10   7  -3   -1.93    2.81
  10  -7   3   -1.69    2.83
  10  -7   3    1.26    1.56
 -10   7  -4   -1.52    1.86
 -10   7  -4    1.08    1.52
  10  -7   4   -0.23    1.68
  10  -7   4   -0.11    1.67
 -10   7  -5   13.53    4.01
 -10   7  -5   10.77    3.89
  10  -7   5   10.84    3.96
  10  -7   5   12.49    3.88
 -10   7  -6    0.35    1.89
 -10   7  -6    4.97    3.04
  10  -7   6    1.67    2.01
  10  -7   6    2.32    1.90
 -10   6   9    8.62    3.55
  10  -6  -9   11.89    4.80
 -10   6   8   30.02    6.18
  10  -6  -8   28.36    6.28
 -10   6   8   29.62    6.50
 -10   6   7    3.82    2.60
  10  -6  -7    2.97    2.35
 -10   6   7    0.55    2.42
 -10   6   6    4.15    2.43
 -10   6   6    3.49    2.50
  10  -6  -6    0.97    1.62
 -10   6   6    6.92    3.71
 -10   6   5    1.11    2.14
 -10   6   5   -1.03    2.04
  10  -6  -5    6.30    3.14
 -10   6   5    8.41    3.73
 -10   6   4   29.52    5.85
 -10   6   4   37.36    6.91
 -10   6   4   21.52    5.23
  10  -6  -4   33.56    6.60
 -10   6   3   31.70    5.77
 -10   6   3   25.88    5.68
 -10   6   3   32.58    6.57
  10  -6  -3   32.66    6.52
 -10   6   2    4.78    2.83
 -10   6   2    8.06    3.30
 -10   6   2    3.50    2.25
  10  -6  -2    7.71    3.17
  10  -6  -2   11.57    3.15
 -10   6   1   10.25    3.38
 -10   6   1   13.55    4.05
 -10   6   1    9.89    3.63
  10  -6  -1   11.52    3.85
  10  -6  -1   13.35    3.46
 -10   6   0   37.51    6.50
 -10   6   0   42.18    7.22
  10  -6   0   32.12    6.34
  10  -6   0   32.76    5.48
 -10   6   0   42.16    6.62
  10  -6   1   65.67    9.18
 -10   6  -1   70.94    9.62
  10  -6   1   69.74    8.12
 -10   6  -1   66.30    8.48
 -10   6  -2   -1.61    1.62
 -10   6  -2   -1.47    2.56
  10  -6   2    1.22    1.45
  10  -6   2    1.00    1.27
 -10   6  -3   25.27    5.23
 -10   6  -3   17.81    5.07
  10  -6   3   26.89    6.05
  10  -6   3   23.20    4.96
 -10   6  -4    2.54    2.74
  10  -6   4    5.42    3.17
  10  -6   4    2.26    1.96
 -10   6  -5    0.97    2.71
  10  -6   5    7.17    3.07
 -10   6  -6    3.62    2.64
  10  -6   6   -0.84    2.56
  10  -6   6   -0.14    2.51
 -10   6  -7    6.83    3.85
  10  -6   7   11.33    4.24
  10  -6   7   12.88    4.49
 -10   5  11    2.36    1.76
  10  -5 -10  100.37   12.07
 -10   5  10   97.77   11.00
 -10   5  10  110.13   11.87
 -10   5   9    4.53    2.40
 -10   5   9    0.89    1.87
  10  -5  -9    1.55    2.33
 -10   5   9    7.20    3.35
 -10   5   8   42.71    7.20
 -10   5   8   56.33    8.55
  10  -5  -8   54.68    8.71
 -10   5   8   59.98    8.42
 -10   5   7   15.68    4.41
 -10   5   7   14.18    4.18
  10  -5  -7   21.33    5.51
 -10   5   7   20.12    4.99
 -10   5   7   20.70    4.63
 -10   5   6   29.80    5.82
 -10   5   6   28.26    5.97
  10  -5  -6   23.54    5.65
 -10   5   6   24.84    5.68
 -10   5   6   30.64    5.99
 -10   5   5   42.16    6.95
 -10   5   5   28.75    5.88
  10  -5  -5   41.77    7.33
 -10   5   5   25.80    5.72
 -10   5   5   31.29    5.84
 -10   5   4   57.42    8.37
  10  -5  -4   62.73    8.75
 -10   5   4   39.26    6.73
 -10   5   4   55.18    7.62
 -10   5   4   65.16    8.40
  10  -5  -3  237.36   16.87
 -10   5   3  249.03   17.24
 -10   5   3  244.70   15.66
  10  -5  -3  241.48   13.81
 -10   5   3  239.65   15.94
 -10   5   3  233.65   15.58
  10  -5  -2    4.52    2.12
 -10   5   2    4.22    1.96
 -10   5   2    6.83    3.09
 -10   5   2   10.40    3.60
  10  -5  -2    6.79    3.32
 -10   5   2   10.79    3.50
  10  -5  -1  130.35   12.37
 -10   5   1  144.85   13.05
 -10   5   1  143.86   11.97
  10  -5  -1  134.47   10.67
 -10   5   1  152.57   12.32
 -10   5   1  147.30   12.26
 -10   5   0    6.47    2.78
 -10   5   0    9.17    3.31
  10  -5   0    7.80    3.35
 -10   5   0    9.62    3.42
  10  -5   0    9.15    3.00
  10  -5   1  109.28   11.37
 -10   5  -1   97.05   11.07
 -10   5  -1  103.43   10.17
  10  -5   1  101.65    9.63
 -10   5  -2   -0.74    2.62
  10  -5   2    2.40    2.62
 -10   5  -2    2.27    2.05
  10  -5   2    0.70    1.88
 -10   5  -3   15.83    4.65
  10  -5   3   17.98    4.91
 -10   5  -3   17.01    4.39
  10  -5   3   18.91    4.48
  10  -5   4  141.46   13.20
 -10   5  -4  157.64   14.62
 -10   5  -4  138.94   12.09
  10  -5   4  119.19   11.27
 -10   5  -5   33.22    7.31
  10  -5   5   27.55    5.91
 -10   5  -5   26.75    5.54
  10  -5   5   30.49    5.91
  10  -5   6  134.33   13.12
 -10   5  -6  133.26   13.97
  10  -5   6  131.43   12.19
 -10   5  -7    2.59    2.57
  10  -5   7    1.50    2.87
  10  -5   7    3.24    2.48
  10  -5   8   53.59    8.55
 -10   4  12    1.86    2.54
 -10   4  11   38.87    7.52
  10  -4 -11   35.73    7.45
 -10   4  11   29.72    6.25
 -10   4  10   16.74    4.75
 -10   4  10   17.45    5.07
  10  -4 -10   18.90    5.15
 -10   4  10   17.18    4.71
 -10   4   9   23.09    5.49
 -10   4   9   26.27    6.19
  10  -4  -9   31.89    6.82
 -10   4   9   22.78    5.34
 -10   4   8   30.08    6.11
 -10   4   8   27.28    6.14
  10  -4  -8   24.15    5.67
 -10   4   8   27.41    5.73
 -10   4   7    2.93    2.45
 -10   4   7   -2.03    2.30
  10  -4  -7   -0.32    1.84
 -10   4   7   -1.02    1.75
  10  -4  -6   66.74    9.20
 -10   4   6   55.79    8.32
 -10   4   6   53.68    7.71
 -10   4   6   62.55    8.42
 -10   4   6   62.15    8.32
 -10   4   5    0.18    1.49
  10  -4  -5    1.45    1.56
 -10   4   5    2.32    2.19
  10  -4  -5   -0.28    1.66
 -10   4   5    5.21    2.93
 -10   4   5    0.20    2.03
  10  -4  -4  151.22   13.42
 -10   4   4  154.40   13.63
 -10   4   4  157.98   12.94
  10  -4  -4  161.90   11.35
 -10   4   4  161.49   12.51
 -10   4   4  140.70   12.22
  10  -4  -3    7.31    2.62
 -10   4   3   14.65    4.19
 -10   4   3   10.14    3.78
 -10   4   3   13.77    3.73
  10  -4  -3    9.84    3.60
 -10   4   3   13.20    3.72
 -10   4   2   40.10    6.66
 -10   4   2   44.56    7.38
  10  -4  -2   48.45    7.50
 -10   4   2   42.17    6.83
  10  -4  -2   47.24    6.28
  10  -4  -1   11.21    3.31
 -10   4   1    9.69    3.17
 -10   4   1   13.11    4.10
  10  -4  -1   12.14    3.73
 -10   4   1   13.65    3.93
  10  -4   0   26.20    4.96
 -10   4   0   27.56    5.86
  10  -4   0   26.53    5.65
 -10   4   0   25.03    5.17
  10  -4   1   12.65    3.67
 -10   4  -1   10.65    3.70
  10  -4   1   17.84    4.45
 -10   4  -1   12.48    3.80
 -10   4  -2   13.48    4.52
  10  -4   2   20.65    4.85
 -10   4  -2    5.93    2.72
  10  -4   2   17.00    4.19
 -10   4  -3   27.21    6.11
  10  -4   3   33.61    6.32
 -10   4  -3   23.27    5.21
  10  -4   3   25.31    5.09
  10  -4   4   64.92    8.75
 -10   4  -4   65.17    9.37
 -10   4  -4   79.99    9.47
  10  -4   4   61.77    8.02
 -10   4  -5    6.81    3.73
  10  -4   5   11.64    3.97
 -10   4  -5   11.42    3.79
  10  -4   5    6.75    3.07
  10  -4   6  129.95   12.53
 -10   4  -6  138.75   14.13
 -10   4  -6  139.50   13.02
  10  -4   6  135.30   12.32
 -10   4  -7   27.38    6.58
  10  -4   7   33.73    6.29
 -10   4  -7   30.35    6.33
  10  -4   7   25.33    5.59
 -10   4  -8    5.27    2.92
 -10   4  -9   63.66    9.63
 -10   3  12   -0.05    2.67
 -10   3  12   -1.82    2.57
 -10   3  11   26.61    6.17
 -10   3  11   18.86    5.62
  10  -3 -11   12.68    4.50
 -10   3  11   14.93    4.67
 -10   3  10   39.87    7.09
 -10   3  10   37.37    7.18
  10  -3 -10   42.91    7.85
 -10   3  10   33.28    6.60
 -10   3   9    1.73    2.17
 -10   3   9   -5.91    3.17
  10  -3  -9   -2.24    2.81
 -10   3   9    1.79    1.69
 -10   3   8    1.88    1.79
 -10   3   8    1.45    1.93
  10  -3  -8    2.78    2.64
 -10   3   8   -0.20    1.27
 -10   3   7   16.46    4.49
 -10   3   7   18.40    5.05
  10  -3  -7   11.31    3.66
 -10   3   7   17.05    4.76
 -10   3   6   56.18    7.84
 -10   3   6   66.42    9.00
  10  -3  -6   67.65    9.13
 -10   3   6   62.25    8.47
  10  -3  -6   59.14    7.02
 -10   3   5   66.83    9.03
  10  -3  -5   67.84    9.00
 -10   3   5   55.22    7.87
  10  -3  -5   58.20    6.99
 -10   3   5   66.55    8.45
 -10   3   4    7.01    2.88
  10  -3  -4   12.44    3.48
 -10   3   4    2.43    2.11
  10  -3  -4   11.01    3.64
 -10   3   4    9.02    3.41
 -10   3   3  133.38   12.56
  10  -3  -3  151.04   12.86
 -10   3   3  138.62   12.31
  10  -3  -3  138.57   10.78
 -10   3   3  120.87   11.20
 -10   3   2    2.34    1.63
  10  -3  -2    5.25    2.40
 -10   3   2    5.30    2.79
  10  -3  -2    2.03    2.08
 -10   3   2    7.97    3.39
  10  -3  -1    0.78    1.51
 -10   3   1   -0.79    1.73
  10  -3  -1    0.53    2.32
 -10   3   1    0.97    2.09
 -10   3   1   -1.19    1.62
  10  -3   0   30.39    5.34
  10  -3   0   27.04    5.61
 -10   3   0   19.69    4.80
  10  -3   1   23.12    4.69
 -10   3  -1   23.05    5.77
  10  -3   1   18.37    4.58
 -10   3  -1   22.02    5.11
  10  -3   2    5.78    2.60
 -10   3  -2    4.61    2.32
  10  -3   2    6.17    2.94
 -10   3  -2   11.26    4.03
  10  -3   3    3.99    2.22
 -10   3  -3    2.15    2.42
  10  -3   3    2.98    1.76
 -10   3  -3    2.53    2.27
  10  -3   4  144.34   12.40
 -10   3  -4  164.61   14.81
 -10   3  -4  164.68   13.89
  10  -3   4  161.45   12.81
 -10   3  -5    1.67    2.61
  10  -3   5    0.60    1.67
 -10   3  -5   -0.66    1.69
  10  -3   5    2.06    1.87
 -10   3  -6   29.23    6.63
  10  -3   6   24.67    5.52
 -10   3  -6   30.41    6.50
  10  -3   6   20.40    5.08
 -10   3  -7   -1.04    2.05
 -10   3  -7    1.00    1.81
  10  -3   7    2.74    2.13
 -10   3  -8   -0.82    3.01
 -10   3  -8    2.83    2.32
  10  -3   8    6.06    3.23
 -10   2  12   30.79    6.99
 -10   2  12   20.94    5.37
 -10   2  11    4.48    2.59
 -10   2  11    5.22    3.31
  10  -2 -11    2.08    2.77
 -10   2  11    4.39    2.12
 -10   2  10   17.94    4.88
 -10   2  10   18.96    5.46
  10  -2 -10   28.10    6.34
 -10   2  10   25.15    5.93
 -10   2   9   -0.02    1.38
  10  -2  -9    0.64    2.06
 -10   2   9    0.54    1.37
 -10   2   8    4.94    2.66
 -10   2   8    4.81    3.04
  10  -2  -8    5.68    2.99
  10  -2  -8    2.33    1.51
 -10   2   8    5.19    2.91
 -10   2   7   76.99   10.04
  10  -2  -7   69.47    9.40
 -10   2   7   68.73    8.99
  10  -2  -7   81.89    8.36
 -10   2   7   88.53    9.96
 -10   2   6  255.61   17.82
  10  -2  -6  255.83   17.13
 -10   2   6  258.05   17.29
  10  -2  -6  254.02   14.72
 -10   2   6  260.79   16.83
 -10   2   5   76.98    9.66
  10  -2  -5   77.34    9.38
 -10   2   5   77.26    9.45
  10  -2  -5   84.16    8.58
 -10   2   5   78.72    9.20
 -10   2   4   89.48   10.36
  10  -2  -4   89.34    9.97
 -10   2   4   96.82   10.24
  10  -2  -4   95.75    9.04
 -10   2   4   87.48    9.70
 -10   2   3  125.13   12.27
  10  -2  -3  103.86   10.51
 -10   2   3  129.00   11.96
  10  -2  -3  103.89    9.48
 -10   2   3  117.41   11.11
 -10   2   2   -0.81    1.49
  10  -2  -2   -0.04    1.59
 -10   2   2   -1.19    2.36
  10  -2  -2   -1.50    2.43
 -10   2   2    0.16    1.70
  10  -2  -1    3.43    2.37
  10  -2  -1    0.56    1.86
 -10   2   1    4.46    2.71
  10  -2   0   42.84    6.36
 -10   2   0   51.06    7.84
  10  -2   0   37.08    6.17
 -10   2   0   51.25    7.70
  10  -2   1  301.20   17.41
 -10   2  -1  291.51   18.75
 -10   2  -1  304.97   18.57
  10  -2   1  276.54   16.16
  10  -2   2   60.57    7.76
 -10   2  -2   58.72    8.56
 -10   2  -2   54.36    8.12
  10  -2   2   60.81    7.73
  10  -2   3   22.24    4.92
 -10   2  -3   13.75    4.48
  10  -2   3   19.20    4.57
 -10   2  -3   22.75    5.36
  10  -2   4   46.29    6.84
 -10   2  -4   49.64    8.23
  10  -2   4   42.23    6.64
 -10   2  -4   43.77    7.33
 -10   2  -5   33.22    6.94
 -10   2  -5   30.12    6.42
  10  -2   5   39.22    6.59
 -10   2  -6   50.82    8.67
 -10   2  -6   48.49    8.06
  10  -2   6   45.98    7.23
 -10   2  -7   -1.50    2.56
 -10   2  -7   -0.27    1.73
  10  -2   7   -7.32    3.18
 -10   2  -8   77.61   10.98
 -10   2  -8   72.21   10.26
  10  -2   8   69.32    9.11
 -10   1  12   -0.09    2.29
 -10   1  12    3.54    2.76
  10  -1 -12   -1.05    1.98
 -10   1  12    1.41    2.08
 -10   1  11    8.76    3.87
 -10   1  11   12.54    4.87
  10  -1 -11    9.15    3.97
 -10   1  11   14.67    4.70
 -10   1  10    2.09    1.89
 -10   1  10   -2.84    3.72
  10  -1 -10   -0.31    2.15
 -10   1  10   -6.46    3.28
 -10   1   9   90.34   11.19
  10  -1  -9   78.18   10.00
 -10   1   9   85.83   10.55
 -10   1   9   69.26    9.12
  10  -1  -9   73.51    8.18
 -10   1   8   24.81    5.68
 -10   1   8   29.32    6.35
  10  -1  -8   30.14    6.09
 -10   1   8   24.54    5.70
  10  -1  -8   21.24    4.60
 -10   1   7    8.26    3.36
 -10   1   7    8.85    3.80
  10  -1  -7    8.52    3.21
  10  -1  -7    8.25    2.73
 -10   1   7   15.91    4.63
 -10   1   6   33.54    6.23
 -10   1   6   30.12    6.50
  10  -1  -6   35.16    6.52
  10  -1  -6   28.71    5.26
 -10   1   6   27.56    5.88
 -10   1   5  248.35   17.42
  10  -1  -5  264.32   17.05
 -10   1   5  241.88   16.71
  10  -1  -5  238.40   14.78
 -10   1   5  264.07   16.97
 -10   1   4    2.54    1.77
 -10   1   4   -0.68    1.48
  10  -1  -4    3.62    2.71
  10  -1  -4    3.65    2.29
 -10   1   4   -2.25    2.37
 -10   1   3    3.61    2.74
 -10   1   3    2.51    2.45
  10  -1  -3    1.08    1.41
  10  -1  -3    7.33    2.82
 -10   1   3    7.83    3.28
 -10   1   2  120.10   11.97
  10  -1  -2  112.95   10.73
 -10   1   2  105.48   10.97
  10  -1  -2  109.09   10.01
  10  -1  -1   -0.03    1.35
 -10   1   1    3.63    2.50
  10  -1  -1    1.79    1.58
 -10   1   1    2.16    2.22
  10  -1   0   19.25    4.32
 -10   1   0   18.09    5.09
  10  -1   0   23.19    4.93
 -10   1   0   27.26    5.76
  10  -1   1    2.01    2.03
 -10   1  -1   -0.51    2.28
  10  -1   1   -1.65    1.85
 -10   1  -1    0.62    2.00
  10  -1   2  216.20   14.23
 -10   1  -2  200.82   15.88
 -10   1  -2  198.24   15.49
  10  -1   2  198.09   13.94
  10  -1   3    4.87    2.45
 -10   1  -3    4.56    2.86
  10  -1   3    7.77    2.91
 -10   1  -3    5.82    2.98
  10  -1   4   47.74    7.15
 -10   1  -4   53.38    8.41
 -10   1  -4   43.50    7.58
  10  -1   5   -2.49    1.81
 -10   1  -5    2.58    2.15
 -10   1  -5    2.04    2.34
 -10   1  -6   16.12    4.97
 -10   1  -6    5.77    3.30
  10  -1   6   10.75    3.46
 -10   1  -7   17.05    5.24
 -10   1  -7   21.06    5.56
  10  -1   7   15.15    4.40
 -10   0  12    4.12    2.81
 -10   0  12    3.50    3.17
  10   0 -12    0.09    2.02
 -10   0  12   -4.32    2.85
 -10   0  11   40.87    7.41
 -10   0  11   35.28    7.30
  10   0 -11   37.79    7.14
 -10   0  11   44.59    8.10
 -10   0  10    9.05    3.64
 -10   0  10    3.63    2.36
  10   0 -10   11.02    3.97
  10   0 -10   10.58    3.43
 -10   0   9    0.90    1.93
 -10   0   9    1.90    1.63
  10   0  -9    2.87    2.34
 -10   0   9    0.24    1.38
  10   0  -9    3.50    2.23
 -10   0   8  148.70   14.08
  10   0  -8  147.37   13.54
 -10   0   8  151.93   13.95
 -10   0   8  136.70   12.59
  10   0  -8  139.66   11.71
 -10   0   7   56.15    8.51
  10   0  -7   55.11    8.13
 -10   0   7   54.04    8.20
 -10   0   7   64.79    8.63
  10   0  -7   51.41    7.14
 -10   0   6   27.54    5.59
 -10   0   6   23.33    5.64
  10   0  -6   34.69    6.32
 -10   0   6   27.43    5.95
  10   0  -6   26.55    5.14
 -10   0   5   38.59    6.67
 -10   0   5   34.65    6.56
  10   0  -5   30.23    5.99
  10   0  -5   39.99    6.38
 -10   0   5   42.67    7.14
 -10   0   4   -1.65    2.02
 -10   0   4    1.23    1.61
  10   0  -4   -1.08    1.93
  10   0  -4   -1.05    1.98
 -10   0   4    4.29    2.66
 -10   0   3   41.99    7.21
  10   0  -3   38.38    6.25
  10   0  -3   44.80    6.61
 -10   0   3   43.13    6.61
 -10   0   3   44.54    7.35
 -10   0   2   40.15    7.08
  10   0  -2   46.91    6.88
 -10   0   2   34.73    5.97
 -10   0   2   37.49    6.83
  10   0  -2   46.64    6.86
 -10   0   1  189.07   15.21
  10   0  -1  187.70   13.27
 -10   0   1  191.83   15.12
  10   0  -1  197.93   13.82
  10   0   0   30.11    5.64
 -10   0   0   27.26    6.11
  10   0   0   31.00    5.43
 -10   0   0   33.62    6.54
  10   0   1  107.94    9.87
 -10   0  -1  114.83   12.05
 -10   0  -1  101.10   11.05
  10   0   1  100.88   10.01
 -10   0  -2   45.08    7.74
 -10   0  -2   59.42    8.67
  10   0   2   61.19    7.98
  10   0   3   22.51    4.98
 -10   0  -3   23.37    5.76
 -10   0  -3   16.97    4.88
  10   0   4   14.51    4.13
 -10   0  -4    4.30    2.58
 -10   0  -4   12.06    4.11
  10   0   5   10.66    3.43
 -10   0  -5   12.01    4.33
 -10   0  -5   15.69    4.82
  10   0   6   35.91    6.58
 -10   0  -6   27.82    6.39
 -10   0  -6   29.68    6.74
 -10   0  -7   -1.13    2.48
  10   0   7   -0.15    1.62
 -10  -1  12   58.51    8.78
 -10  -1  11   51.54    8.22
 -10  -1  11   42.58    8.27
  10   1 -11   55.77    8.82
 -10  -1  11   41.16    7.85
  10   1 -11   49.89    7.49
  10   1 -10  290.21   17.73
 -10  -1  10  298.27   20.96
  10   1 -10  302.72   19.92
 -10  -1  10  275.99   19.49
 -10  -1  10  260.54   17.84
 -10  -1   9    0.69    2.25
 -10  -1   9    8.55    3.47
  10   1  -9    6.62    3.29
 -10  -1   9    5.46    3.02
  10   1  -9    8.34    3.37
  10   1  -8   76.42    8.99
 -10  -1   8   89.16   11.14
  10   1  -8   82.39   10.06
 -10  -1   8   88.34   10.88
 -10  -1   8   76.16    9.38
 -10  -1   7   34.59    6.36
 -10  -1   7   31.54    6.63
  10   1  -7   42.66    7.16
 -10  -1   7   33.91    6.64
  10   1  -7   34.86    6.22
 -10  -1   6   21.42    5.15
 -10  -1   6   13.62    4.43
  10   1  -6   16.29    4.41
 -10  -1   6   18.49    5.01
  10   1  -6   14.46    4.05
 -10  -1   5   93.94   10.90
  10   1  -5   91.33    9.94
 -10  -1   5   99.07   10.57
 -10  -1   5  111.69   11.78
 -10  -1   5   96.64   10.59
  10   1  -5  112.17   10.76
 -10  -1   4  122.18   12.32
  10   1  -4  150.66   12.40
 -10  -1   4  147.16   12.65
 -10  -1   4  154.75   13.84
  10   1  -4  141.79   11.90
 -10  -1   3  154.23   13.91
  10   1  -3  142.28   11.80
 -10  -1   3  143.67   12.37
 -10  -1   3  149.14   13.58
  10   1  -3  132.95   11.62
 -10  -1   2   17.51    4.62
  10   1  -2   14.07    3.81
  10   1  -2   22.08    4.82
 -10  -1   2   16.13    4.37
 -10  -1   2   13.29    4.14
 -10  -1   1   70.42    9.38
  10   1  -1   86.19    8.86
 -10  -1   1   85.69    9.38
 -10  -1   1   67.32    9.19
  10   1  -1   73.20    8.62
 -10  -1   0   65.82    9.12
 -10  -1   0   69.51    9.56
  10   1   0   66.72    8.42
  10   1   1   10.17    3.45
 -10  -1  -1    6.81    3.10
 -10  -1  -1    8.07    3.13
  10   1   2   40.41    6.54
 -10  -1  -2   45.53    7.74
 -10  -1  -2   45.33    7.87
  10   1   3    2.47    2.08
 -10  -1  -3    5.80    3.35
 -10  -1  -3    1.74    1.62
  10   1   4    6.84    2.78
 -10  -1  -4    3.61    2.58
 -10  -1  -4    7.50    3.19
  10   1   5    0.97    1.86
 -10  -1  -5    2.23    1.98
 -10  -1  -5    2.24    2.14
  10   1   6   23.04    5.35
 -10  -1  -6   27.12    6.29
 -10  -1  -6   23.89    6.43
  10   1   7    8.19    3.37
 -10  -1  -7   -0.72    1.96
 -10  -2  12    5.16    2.86
  10   2 -12    6.61    3.42
 -10  -2  11   16.79    4.64
 -10  -2  11    6.11    3.33
  10   2 -11   10.43    3.82
 -10  -2  11   19.76    5.63
  10   2 -11    8.66    3.47
 -10  -2  10   31.53    6.48
 -10  -2  10   38.88    7.79
  10   2 -10   38.47    7.29
 -10  -2  10   26.28    6.33
  10   2 -10   36.18    6.67
 -10  -2   9   42.76    7.36
 -10  -2   9   47.25    8.33
  10   2  -9   37.33    6.96
 -10  -2   9   40.75    7.55
  10   2  -9   36.07    6.49
 -10  -2   8   11.23    3.90
 -10  -2   8   12.73    4.01
  10   2  -8    4.68    2.55
 -10  -2   8    0.98    1.92
  10   2  -8   11.52    3.93
 -10  -2   7   35.02    6.67
 -10  -2   7   35.67    6.85
  10   2  -7   40.26    7.00
 -10  -2   7   29.78    6.40
 -10  -2   7   25.16    5.83
  10   2  -7   35.35    6.40
 -10  -2   6    8.79    3.78
  10   2  -6   10.99    3.69
 -10  -2   6    6.08    3.15
 -10  -2   6    6.82    3.35
  10   2  -6    9.89    3.51
 -10  -2   5    9.47    3.63
  10   2  -5   16.28    4.19
 -10  -2   5   14.86    4.80
 -10  -2   5    0.08    2.29
  10   2  -5   12.39    3.98
 -10  -2   4   15.86    4.58
  10   2  -4   25.17    5.14
 -10  -2   4   22.56    5.63
 -10  -2   4   26.46    5.98
  10   2  -4   23.00    5.21
 -10  -2   3  101.98   11.43
  10   2  -3   95.77    9.54
 -10  -2   3   90.52   10.31
 -10  -2   3   77.80    9.98
  10   2  -3  116.45   11.13
 -10  -2   2   18.25    5.04
  10   2  -2   20.27    4.71
 -10  -2   2   16.55    4.54
 -10  -2   2   23.44    5.60
 -10  -2   1   82.58   10.34
 -10  -2   1   75.16    9.27
 -10  -2   1   84.19   10.49
  10   2  -1   88.75    9.68
 -10  -2   0  204.95   16.04
 -10  -2   0  215.30   16.75
  10   2   0  247.74   16.18
 -10  -2  -1    5.42    3.47
  10   2   1    3.42    2.09
 -10  -2  -1    0.59    2.07
  10   2   2   23.46    5.17
 -10  -2  -2   26.03    6.03
 -10  -2  -2   29.80    6.49
  10   2   3   -0.33    1.74
 -10  -2  -3   -0.65    1.83
 -10  -2  -3    2.17    2.68
  10   2   4   20.72    4.93
 -10  -2  -4   24.21    5.84
 -10  -2  -4   24.64    5.82
  10   2   5    1.62    2.48
 -10  -2  -5    1.01    2.03
 -10  -2  -5   -1.06    2.99
 -10  -2  -6  110.13   12.38
  10   2   6  125.33   12.08
 -10  -3  12  100.42   11.37
  10   3 -11    1.47    2.35
 -10  -3  11   -2.13    2.56
  10   3 -10  117.71   12.19
 -10  -3  10  104.12   12.60
  10   3 -10  114.54   12.29
 -10  -3  10   80.97   10.89
 -10  -3  10  102.56   11.36
 -10  -3   9    7.22    3.62
 -10  -3   9   21.79    6.05
  10   3  -9   15.15    4.45
 -10  -3   9    9.50    4.47
 -10  -3   9   26.73    6.38
  10   3  -9   14.25    4.17
 -10  -3   8    4.51    3.34
  10   3  -8    4.13    2.64
 -10  -3   8    5.20    3.40
 -10  -3   8    0.87    1.78
 -10  -3   8    5.67    2.91
  10   3  -8    6.09    3.15
 -10  -3   7   35.75    7.09
  10   3  -7   46.55    7.31
 -10  -3   7   27.89    6.54
 -10  -3   7   38.43    7.33
  10   3  -7   38.85    6.80
 -10  -3   6    0.89    2.02
  10   3  -6    3.28    2.31
 -10  -3   6    3.79    3.30
 -10  -3   6    6.30    3.51
  10   3  -6   12.44    4.19
 -10  -3   5   89.33   10.86
  10   3  -5   87.04    9.46
 -10  -3   5   81.53   10.46
 -10  -3   5   80.32   10.24
  10   3  -5   84.27    9.93
 -10  -3   4   -0.30    1.94
 -10  -3   4    2.17    2.52
 -10  -3   4   -1.68    2.36
  10   3  -4    0.60    1.48
 -10  -3   3  102.05   11.41
 -10  -3   3  124.89   12.78
 -10  -3   3  111.93   12.04
  10   3  -3  113.48   11.28
 -10  -3   2   14.32    4.64
 -10  -3   2   12.75    4.41
 -10  -3   2    7.51    3.44
  10   3  -2    9.58    3.23
 -10  -3   1   15.08    4.80
  10   3  -1   20.24    4.99
 -10  -3   1   20.54    5.63
 -10  -3   1   11.99    4.13
 -10  -3   0    3.74    2.21
  10   3   0    1.36    1.76
 -10  -3   0    0.76    1.75
 -10  -3   0    2.22    1.77
 -10  -3  -1   31.16    6.46
  10   3   1   21.58    5.04
 -10  -3  -1   21.65    5.64
  10   3   2   14.90    4.34
 -10  -3  -2   20.77    5.45
 -10  -3  -2   15.02    4.69
  10   3   3   -1.65    2.56
 -10  -3  -3   -2.03    2.95
 -10  -3  -3   -4.64    3.01
  10   3   4   34.80    6.32
 -10  -3  -4   27.50    6.32
 -10  -3  -4   16.67    5.40
  10   3   5   -5.33    2.76
 -10  -3  -5   -0.56    1.72
 -10  -4  11    5.44    3.50
 -10  -4   9   13.16    4.47
  10   4  -9   18.68    4.56
 -10  -4   9   17.30    5.66
 -10  -4   9   24.21    6.26
  10   4  -9    9.53    3.59
 -10  -4   8    3.35    3.68
  10   4  -8    4.47    2.84
 -10  -4   8    0.98    2.45
 -10  -4   8    4.03    3.33
  10   4  -8   -0.36    1.43
 -10  -4   7   21.09    5.43
  10   4  -7   27.78    5.74
 -10  -4   7   28.65    6.99
 -10  -4   7   23.19    5.78
  10   4  -7   32.64    6.54
 -10  -4   6   10.36    3.93
 -10  -4   6    8.43    3.72
 -10  -4   6    5.46    3.06
  10   4  -6   11.52    3.99
 -10  -4   5   25.93    6.10
 -10  -4   5   42.51    8.05
 -10  -4   5   38.00    7.20
  10   4  -5   43.70    7.47
 -10  -4   4    6.82    3.51
 -10  -4   4    1.78    1.65
 -10  -4   4    2.70    2.15
  10   4  -4    1.81    2.02
 -10  -4   3   54.78    8.47
 -10  -4   3   53.80    8.83
 -10  -4   3   40.58    7.62
  10   4  -3   47.16    7.63
 -10  -4   2   12.18    4.27
 -10  -4   2   18.39    5.25
 -10  -4   2   18.17    5.41
  10   4  -2   18.49    4.87
 -10  -4   1   17.43    5.07
  10   4  -1   27.17    5.63
 -10  -4   1   24.26    6.08
 -10  -4   1   20.96    5.64
 -10  -4   0   23.67    5.71
  10   4   0   29.79    6.04
 -10  -4   0   18.57    5.38
 -10  -4   0   16.49    4.96
 -10  -4  -1   11.90    3.84
  10   4   1   14.46    4.29
 -10  -4  -1   15.46    4.79
  10   4   2    2.59    2.46
 -10  -4  -2    5.45    3.60
  10   4   3   17.31    4.81
 -10  -5   8    1.20    2.10
 -10  -5   8   -0.53    2.35
 -10  -5   7   37.95    7.44
 -10  -5   7   30.88    7.38
 -10  -5   7   39.46    7.67
 -10  -5   6   10.46    4.36
 -10  -5   6    6.27    3.35
 -10  -5   6    5.67    2.85
  10   5  -6    9.17    3.75
  10   5  -5  199.43   16.18
 -10  -5   5  168.28   14.95
 -10  -5   5  168.30   16.51
 -10  -5   5  164.11   15.36
 -10  -5   4    1.75    2.07
 -10  -5   4   10.49    4.72
 -10  -5   4    4.97    2.91
  10   5  -4    7.91    3.38
 -10  -5   3   17.05    4.99
 -10  -5   3    7.78    3.19
 -10  -5   3   16.35    5.50
  10   5  -3    8.65    3.40
 -10  -5   2   18.50    4.94
 -10  -5   2    8.96    3.82
 -10  -5   2   12.99    4.70
  10   5  -2   20.11    5.11
 -10  -5   1   70.09   10.09
 -10  -5   1   70.00   10.45
  10   5  -1   94.47   10.75
 -10  -5   0  154.90   15.11
 -10  -5   0  138.96   14.33
  10   5   0  151.56   13.60
 -10  -5  -1   12.39    4.45
 -10  -6   5   14.34    4.95
 -10  -6   4    4.71    2.35
 -10  -6   3   23.37    6.18
 -11   8   2   57.82    9.33
 -11   8   1   -1.25    2.34
 -11   8   0  149.91   14.36
 -11   8  -1   10.27    4.06
 -11   8  -2   32.90    7.03
 -11   7   6    0.93    2.27
 -11   7   5   45.30    7.55
 -11   7   5   43.40    8.12
 -11   7   4   15.29    4.44
 -11   7   4    4.10    2.49
 -11   7   3   44.44    7.38
 -11   7   3   43.91    7.79
 -11   7   3   59.82    8.90
 -11   7   2   30.16    6.45
 -11   7   2   16.92    4.78
 -11   7   1   14.15    4.44
 -11   7   1    7.41    3.26
  11  -7  -1   16.25    5.02
 -11   7   0    3.98    2.85
 -11   7   0   -1.16    2.03
  11  -7   0    5.89    3.05
 -11   7  -1   -3.07    2.65
  11  -7   1    0.09    1.55
 -11   7  -2    9.25    4.22
  11  -7   2   10.96    3.87
 -11   7  -3   -0.85    2.79
  11  -7   3   -2.16    2.83
 -11   6   8    0.80    2.03
 -11   6   7    3.69    2.92
 -11   6   6    5.35    3.09
 -11   6   6    8.50    3.90
 -11   6   6    8.77    3.73
 -11   6   5   43.61    7.39
 -11   6   5   32.37    6.77
 -11   6   5   41.64    7.54
  11  -6  -5   45.17    8.28
 -11   6   4   -2.59    2.95
 -11   6   4   -6.01    3.27
 -11   6   4   -0.94    1.80
  11  -6  -4    1.55    1.73
 -11   6   3   13.64    3.72
 -11   6   3   11.77    4.32
  11  -6  -3   14.92    4.73
 -11   6   2   34.23    6.41
 -11   6   2   22.53    5.88
  11  -6  -2   37.65    7.47
 -11   6   1   -0.23    1.77
  11  -6  -1   -1.39    2.89
  11  -6  -1    3.00    1.99
 -11   6   1    4.19    2.46
 -11   6   0   25.85    6.28
  11  -6   0   31.67    6.82
  11  -6   0   31.43    5.79
 -11   6  -1   12.70    4.51
  11  -6   1    9.04    3.89
  11  -6   1   13.18    3.92
 -11   6  -2   -0.07    2.51
  11  -6   2    5.40    2.70
  11  -6   2    4.49    2.89
 -11   6  -3   30.39    6.89
  11  -6   3   53.32    8.84
  11  -6   3   41.65    6.98
 -11   6  -4   21.29    5.83
  11  -6   4   11.22    4.45
  11  -6   4   14.82    4.40
 -11   5   9    5.47    3.40
 -11   5   8   10.20    4.14
 -11   5   8    9.00    3.42
 -11   5   7   16.69    4.90
 -11   5   7   16.16    4.87
  11  -5  -7   26.64    6.68
 -11   5   7   21.52    5.15
 -11   5   6   34.78    6.53
 -11   5   6   34.90    7.09
  11  -5  -6   43.02    8.15
 -11   5   6   34.47    6.45
  11  -5  -5   77.25   10.53
 -11   5   5   93.08   11.42
 -11   5   5   84.12   10.05
 -11   5   5   86.48   10.29
 -11   5   4   78.36   10.45
  11  -5  -4   65.68    9.58
 -11   5   4   81.77    9.82
 -11   5   4   75.73    9.61
  11  -5  -3   65.37    9.54
 -11   5   3   63.55    9.41
 -11   5   3   53.67    7.83
  11  -5  -3   57.76    7.48
 -11   5   3   66.67    9.11
  11  -5  -2   -4.24    2.26
 -11   5   2    0.56    1.73
 -11   5   2   -2.24    2.47
  11  -5  -2    2.83    2.27
 -11   5   2    0.93    1.89
 -11   5   1    5.65    3.07
  11  -5  -1   10.63    4.25
 -11   5   1    8.53    3.13
  11  -5  -1    4.74    2.70
  11  -5   0   88.11   11.04
 -11   5   0  104.58   12.13
 -11   5   0  105.60   10.97
  11  -5   0   96.39    9.97
 -11   5  -1   -0.42    2.34
  11  -5   1    0.24    1.66
  11  -5   1    1.41    2.17
  11  -5   2   75.90   10.27
 -11   5  -2   80.50   10.87
  11  -5   2   86.64    9.79
 -11   5  -3   18.20    5.26
  11  -5   3   17.81    5.03
  11  -5   3   23.17    5.35
 -11   5  -4   -0.66    1.84
  11  -5   4    3.36    2.50
  11  -5   4    0.45    1.87
  11  -5   5   32.67    6.76
  11  -5   6   -0.14    1.50
 -11   4  10   12.11    5.43
 -11   4   9    5.15    3.27
 -11   4   9    6.25    2.37
  11  -4  -8   72.20   10.35
 -11   4   8   76.12   10.42
 -11   4   8   73.19    9.89
 -11   4   8   74.37    9.92
 -11   4   7   52.59    8.75
  11  -4  -7   48.99    8.52
 -11   4   7   43.96    7.72
 -11   4   7   64.32    9.03
 -11   4   6    1.44    1.65
 -11   4   6   -2.76    2.50
  11  -4  -6   -0.41    2.15
 -11   4   6   -0.38    1.42
 -11   4   5   24.76    5.60
 -11   4   5   29.41    6.37
  11  -4  -5   25.84    6.09
 -11   4   5   25.39    5.72
  11  -4  -4   96.72   11.42
 -11   4   4   99.83   11.58
 -11   4   4  101.43   11.21
  11  -4  -4   91.90    9.21
 -11   4   4   98.03   11.00
  11  -4  -3   12.37    3.54
 -11   4   3   11.10    3.98
 -11   4   3    8.91    4.03
  11  -4  -3   13.33    4.38
 -11   4   3    9.34    3.70
  11  -4  -2    1.46    1.78
 -11   4   2    3.43    2.23
 -11   4   2    3.17    2.82
  11  -4  -2    1.37    1.54
 -11   4   2    0.83    1.57
  11  -4  -1   41.76    6.53
 -11   4   1   37.86    7.30
  11  -4  -1   50.49    8.17
 -11   4   1   43.99    7.28
  11  -4   0   30.84    5.81
 -11   4   0   41.63    7.76
  11  -4   0   40.48    7.38
 -11   4   0   37.77    6.77
  11  -4   1    3.77    2.48
 -11   4  -1    0.51    2.34
  11  -4   1    3.08    1.47
 -11   4  -1    4.82    2.83
 -11   4  -2   20.46    5.68
  11  -4   2   30.29    6.54
 -11   4  -2   28.95    6.15
  11  -4   2   28.17    5.79
 -11   4  -3   13.45    4.52
  11  -4   3   13.36    4.34
 -11   4  -3   16.90    4.56
  11  -4   3   12.33    3.83
 -11   4  -4   57.48    9.36
  11  -4   4   54.05    8.44
 -11   4  -4   55.72    8.52
  11  -4   4   59.84    8.42
 -11   4  -5    9.51    4.20
 -11   4  -5    3.53    2.58
  11  -4   5    4.79    2.65
  11  -4   6   18.93    5.23
 -11   4  -6   24.42    5.70
 -11   3  10  -10.33    4.27
 -11   3   9   30.97    6.48
 -11   3   9   42.77    8.12
  11  -3  -9   27.54    6.53
 -11   3   9   25.86    5.93
 -11   3   8    5.69    3.18
 -11   3   8   -0.91    3.00
  11  -3  -8    1.31    1.58
 -11   3   8    2.57    2.75
 -11   3   7   95.52   11.69
  11  -3  -7   78.53   10.44
 -11   3   7   71.70    9.81
 -11   3   7   83.85   10.39
 -11   3   6   50.42    7.99
 -11   3   6   53.63    8.83
  11  -3  -6   40.76    7.57
 -11   3   6   44.18    7.63
  11  -3  -6   49.58    6.93
 -11   3   5   -0.91    2.00
  11  -3  -5    1.53    1.35
 -11   3   5   -1.71    2.25
  11  -3  -5    0.76    2.18
 -11   3   5   -5.72    3.06
 -11   3   4   60.17    8.66
  11  -3  -4   47.95    6.88
 -11   3   4   48.25    8.23
  11  -3  -4   46.80    7.93
 -11   3   4   51.52    8.11
 -11   3   3    7.95    3.38
  11  -3  -3    5.32    2.67
 -11   3   3    6.67    3.65
  11  -3  -3    4.03    2.35
 -11   3   3    4.57    2.82
  11  -3  -2   74.48    9.74
 -11   3   2   68.11    9.57
 -11   3   2   67.95    9.36
  11  -3  -2   70.62    8.49
  11  -3  -1    7.42    3.08
 -11   3   1    7.86    3.57
  11  -3  -1    9.54    3.65
 -11   3   1    6.02    3.00
  11  -3   0  115.52   11.90
 -11   3   0  113.35   12.64
 -11   3   0  117.16   12.17
  11  -3   0  116.55   11.13
  11  -3   1    3.49    2.52
 -11   3  -1    4.48    3.06
  11  -3   1    1.22    1.77
 -11   3  -1    0.64    2.04
  11  -3   2   42.35    6.93
 -11   3  -2   49.26    8.54
  11  -3   2   46.50    7.52
 -11   3  -2   45.97    7.75
 -11   3  -3   44.80    8.12
  11  -3   3   36.89    6.60
 -11   3  -3   48.41    8.12
  11  -3   3   50.51    7.63
 -11   3  -4    8.09    3.86
  11  -3   4   19.86    5.17
 -11   3  -4   29.61    6.37
  11  -3   4   22.28    5.22
 -11   3  -5    6.43    4.12
 -11   3  -5    2.91    2.40
  11  -3   5   -0.54    1.70
 -11   3  -6   -0.52    2.41
 -11   2  10   42.27    8.25
 -11   2   9  137.50   14.32
  11  -2  -9  142.18   14.39
 -11   2   9  125.90   13.35
 -11   2   9  158.07   14.62
 -11   2   8    1.21    2.30
 -11   2   8   -1.99    2.80
  11  -2  -8    1.25    2.61
 -11   2   8   -4.50    2.87
 -11   2   7   91.27   11.56
  11  -2  -7   80.45   10.48
 -11   2   7   81.62   10.62
  11  -2  -7   86.81    9.19
 -11   2   7   70.64    9.49
 -11   2   6    6.30    3.06
 -11   2   6    3.11    2.86
  11  -2  -6    2.55    1.95
  11  -2  -6    0.02    1.78
 -11   2   6    1.79    2.06
 -11   2   5   17.82    5.00
  11  -2  -5   15.12    4.15
 -11   2   5   21.02    5.63
  11  -2  -5   19.17    5.06
 -11   2   5    8.18    3.59
 -11   2   4   34.25    6.52
  11  -2  -4   31.45    5.82
 -11   2   4   30.12    6.68
  11  -2  -4   32.56    6.48
 -11   2   4   28.23    6.28
  11  -2  -3    1.60    1.86
 -11   2   3   -2.07    2.01
  11  -2  -3    3.10    1.96
 -11   2   3    2.05    2.05
 -11   2   3    0.89    1.43
  11  -2  -2  118.48   11.97
 -11   2   2  105.48   12.05
 -11   2   2  119.87   12.41
  11  -2  -2  115.73   11.00
  11  -2  -1   34.36    6.17
 -11   2   1   31.01    6.75
  11  -2  -1   36.33    6.71
 -11   2   1   28.03    5.93
  11  -2   0  405.27   21.56
 -11   2   0  415.43   23.90
 -11   2   0  384.94   22.26
  11  -2   0  392.05   20.37
  11  -2   1    1.06    2.15
 -11   2  -1    3.22    2.76
  11  -2   1   -0.36    2.06
 -11   2  -1    0.02    1.66
  11  -2   2    7.83    3.08
 -11   2  -2    7.38    3.67
  11  -2   2    3.60    2.49
 -11   2  -2    8.25    3.77
  11  -2   3   11.64    3.91
 -11   2  -3   13.21    4.31
  11  -2   3    8.00    3.35
 -11   2  -3    7.99    2.95
  11  -2   4   10.58    3.87
 -11   2  -4    9.08    3.49
 -11   2  -4    5.26    2.81
 -11   2  -5   18.74    5.52
 -11   2  -5   16.55    5.13
  11  -2   5   10.94    3.78
 -11   1   9   45.79    8.00
 -11   1   9   56.68    9.50
  11  -1  -9   47.71    8.30
 -11   1   9   40.97    7.85
 -11   1   8   10.73    4.16
 -11   1   8   11.83    4.38
  11  -1  -8   13.30    4.55
  11  -1  -8   13.79    4.16
 -11   1   8    7.31    3.35
 -11   1   7   22.69    5.64
 -11   1   7   14.37    4.54
  11  -1  -7   20.27    5.53
  11  -1  -7   23.34    5.11
 -11   1   7   14.58    4.49
 -11   1   6   13.00    4.38
 -11   1   6   11.71    4.21
  11  -1  -6   15.92    4.77
  11  -1  -6   13.43    3.88
 -11   1   6    8.57    3.73
 -11   1   5   32.20    6.42
 -11   1   5   38.05    7.30
  11  -1  -5   46.22    7.63
  11  -1  -5   41.08    6.57
 -11   1   5   38.19    7.26
 -11   1   4   33.40    7.09
  11  -1  -4   22.53    5.19
  11  -1  -4   21.41    5.28
 -11   1   4   20.92    5.25
 -11   1   4   22.35    5.35
 -11   1   3    1.57    2.07
  11  -1  -3    2.14    2.01
  11  -1  -3   -0.72    1.56
 -11   1   3    1.70    1.76
  11  -1  -2   25.57    5.32
 -11   1   2   25.84    6.27
  11  -1  -2   26.57    5.71
 -11   1   2   36.77    7.02
  11  -1  -1   97.42   10.52
 -11   1   1   92.69   11.29
 -11   1   1  105.20   11.68
  11  -1  -1   89.07    9.82
  11  -1   0   78.81    9.47
 -11   1   0   95.07   11.55
 -11   1   0   94.39   11.34
  11  -1   0   69.18    8.78
  11  -1   1  185.32   14.24
 -11   1  -1  200.96   16.90
 -11   1  -1  211.93   16.88
  11  -1   1  204.11   15.11
  11  -1   2   18.65    4.82
 -11   1  -2    5.06    3.28
 -11   1  -2   11.91    4.41
  11  -1   3   -5.83    2.95
 -11   1  -3    0.39    2.16
 -11   1  -3    2.00    2.49
  11  -1   4   -9.30    3.73
 -11   1  -4   -3.57    2.68
 -11   1  -5    8.97    4.51
 -11   1  -5    8.62    3.62
  11   0 -10    2.47    1.71
 -11   0   9   44.56    7.95
 -11   0   9   42.84    8.24
  11   0  -9   39.75    7.66
 -11   0   9   40.14    7.77
  11   0  -9   39.52    6.70
 -11   0   8    6.42    3.34
 -11   0   8   -0.40    1.88
  11   0  -8    1.26    1.92
  11   0  -8    1.78    2.41
 -11   0   8   -0.24    1.75
 -11   0   7    5.63    3.02
 -11   0   7    8.10    3.95
  11   0  -7    3.60    2.48
  11   0  -7    5.46    2.59
 -11   0   7    5.67    3.47
 -11   0   6   18.79    5.01
 -11   0   6   22.09    5.62
  11   0  -6   19.82    5.18
  11   0  -6   26.86    5.61
 -11   0   6   23.07    5.87
 -11   0   5   10.69    4.27
  11   0  -5   13.43    4.38
 -11   0   5    3.46    2.76
  11   0  -5    7.78    3.25
 -11   0   5    3.34    2.46
 -11   0   5    3.26    2.07
 -11   0   4   24.80    6.07
  11   0  -4   19.16    4.91
  11   0  -4   28.30    5.80
 -11   0   4   13.68    4.37
 -11   0   4   19.53    5.29
 -11   0   3    5.88    3.37
  11   0  -3    5.08    2.77
  11   0  -3    4.71    2.53
 -11   0   3    3.04    2.20
  11   0  -2   73.70    9.10
 -11   0   2   70.33    9.95
 -11   0   2   90.62   11.08
  11   0  -2   77.97    9.27
  11   0  -1   20.83    5.10
 -11   0   1   10.68    3.75
  11   0  -1   13.78    4.04
 -11   0   1   14.79    4.58
  11   0   0   14.91    4.13
 -11   0   0   14.05    4.52
 -11   0   0   25.47    6.12
  11   0   1   -0.40    1.92
 -11   0  -1   -2.72    2.85
 -11   0  -1    0.76    2.17
  11   0   2   40.95    6.99
 -11   0  -2   30.76    6.85
 -11   0  -2   43.21    7.81
  11   0   3   37.18    6.68
 -11   0  -3   33.81    7.48
 -11   0  -3   41.93    7.90
  11   0   4   27.41    5.90
 -11   0  -4   21.34    5.65
 -11   0  -4   19.92    5.64
  11   1 -10   11.55    3.92
 -11  -1   9    1.60    2.69
 -11  -1   9   11.17    4.75
  11   1  -9    9.66    3.82
  11   1  -9    9.20    3.37
 -11  -1   8    2.41    2.59
 -11  -1   8    0.03    1.86
  11   1  -8    4.18    2.91
 -11  -1   8    7.59    3.77
  11   1  -8    1.27    2.01
 -11  -1   7   44.78    7.81
 -11  -1   7   49.74    8.63
  11   1  -7   38.03    7.18
 -11  -1   7   46.25    8.31
  11   1  -7   39.50    6.89
 -11  -1   6    9.78    4.21
  11   1  -6   22.80    5.30
 -11  -1   6   20.02    5.36
 -11  -1   6   12.08    4.22
  11   1  -6   15.19    4.48
 -11  -1   5    8.40    3.94
  11   1  -5   14.81    4.52
 -11  -1   5   12.87    4.46
  11   1  -5   18.53    4.99
 -11  -1   5   19.22    5.48
 -11  -1   4   53.00    8.84
  11   1  -4   49.93    7.69
  11   1  -4   43.83    7.15
 -11  -1   4   39.29    7.07
 -11  -1   4   47.18    8.36
 -11  -1   3   -0.77    2.20
  11   1  -3    3.40    1.86
  11   1  -3   -0.28    1.75
 -11  -1   3    0.20    1.17
 -11  -1   3    0.67    1.90
 -11  -1   2    1.94    1.71
  11   1  -2   -1.05    2.41
 -11  -1   2    1.16    2.52
 -11  -1   1    3.89    2.92
  11   1  -1    5.82    2.66
 -11  -1   1    5.37    2.69
 -11  -1   0   62.44    9.58
 -11  -1   0   54.23    8.83
  11   1   0   65.86    8.77
  11   1   1   21.32    5.18
 -11  -1  -1   11.43    4.37
 -11  -1  -1   17.69    5.28
  11   1   2   -1.16    2.28
 -11  -1  -2    0.70    2.10
 -11  -1  -2    1.00    1.44
  11   1   3    9.19    3.59
 -11  -1  -3    4.68    3.03
 -11  -1  -3    7.88    3.63
 -11  -1  -4   -1.62    2.69
 -11  -2   9   10.91    3.79
  11   2  -9   15.60    5.00
  11   2  -9    9.55    3.59
 -11  -2   8    6.72    3.88
  11   2  -8    8.91    4.02
 -11  -2   8    7.57    3.84
 -11  -2   8    2.54    2.59
  11   2  -8    8.22    3.26
 -11  -2   8    9.85    4.07
 -11  -2   7   26.40    6.75
  11   2  -7   15.75    4.53
 -11  -2   7   20.19    5.52
 -11  -2   7   14.77    5.09
  11   2  -7   17.56    4.93
 -11  -2   6   14.76    4.92
  11   2  -6   14.22    4.29
 -11  -2   6   20.66    5.59
 -11  -2   6   18.72    5.46
  11   2  -6   16.11    4.63
 -11  -2   5    4.57    3.04
  11   2  -5    3.45    2.43
 -11  -2   5    3.75    2.83
 -11  -2   5    4.60    3.18
  11   2  -5    3.53    2.15
 -11  -2   4  248.84   18.95
 -11  -2   4  195.39   16.23
 -11  -2   4  230.61   18.34
  11   2  -4  242.35   17.01
 -11  -2   3    2.95    2.76
  11   2  -3   -1.81    2.53
 -11  -2   3   -4.03    2.72
 -11  -2   3   -0.72    2.58
 -11  -2   2   20.02    5.38
  11   2  -2   21.37    5.33
 -11  -2   2   20.78    5.40
 -11  -2   1  109.02   12.50
 -11  -2   1  120.44   13.40
  11   2  -1  106.87   11.44
 -11  -2   0   16.29    5.08
  11   2   0    9.27    3.61
 -11  -2   0   15.40    5.26
 -11  -2  -1   49.01    8.48
 -11  -2  -1   65.81   10.02
  11   2   1   64.65    8.91
 -11  -2  -2   10.37    4.18
 -11  -2  -3   48.45    8.52
  11   3  -8   12.72    4.23
 -11  -3   7   90.82   11.98
  11   3  -7   92.59   10.95
 -11  -3   7   73.31   10.81
 -11  -3   6    5.43    3.11
 -11  -3   6   14.37    5.18
 -11  -3   6   13.00    4.65
  11   3  -6   11.60    4.41
 -11  -3   5    8.54    3.67
 -11  -3   5    3.32    3.08
  11   3  -5   12.45    4.43
 -11  -3   4   22.76    5.87
 -11  -3   4   20.94    5.78
 -11  -3   4   21.82    5.81
  11   3  -4   20.80    5.48
 -11  -3   3    7.44    3.17
 -11  -3   3    0.60    2.64
 -11  -3   3    1.94    2.62
 -11  -3   2   19.77    5.55
  11   3  -2   22.83    5.29
 -11  -3   2   30.10    6.85
 -11  -3   2   31.83    6.95
 -11  -3   1   37.75    7.59
  11   3  -1   42.24    7.47
 -11  -3   1   30.26    6.93
 -11  -3   0   -1.62    1.91
 -11  -3  -1   10.29    3.91
 -11  -3  -2   56.39    8.86
 -11  -4   4    3.11    2.79
 -11  -4   4    2.74    2.68
 -11  -4   3    0.41    2.16
 -11  -4   3   -1.75    2.99
 -11  -4   2   -0.02    1.33
 -11  -4   2    0.72    1.41
 -11  -4   1   12.16    4.61
 -12   6   2   -1.12    4.06
  12  -6   0    3.98    2.80
 -12   5   4    1.64    1.89
 -12   5   3  114.28   13.32
 -12   5   3   94.85   11.33
 -12   5   2   27.58    6.68
  12  -5  -2   17.05    4.48
 -12   5   1   47.69    8.81
  12  -5  -1   41.79    6.98
  12  -5   0    2.97    2.32
 -12   4   6    9.90    3.96
 -12   4   5    4.85    3.47
 -12   4   5    2.29    2.14
  12  -4  -4   14.94    4.25
 -12   4   4    9.63    3.66
 -12   4   4   13.14    5.01
 -12   4   4   12.62    4.28
  12  -4  -3   32.14    6.06
 -12   4   3   33.78    7.51
  12  -4  -3   37.57    7.58
 -12   4   3   29.68    6.53
 -12   4   3   34.53    6.84
  12  -4  -2    1.37    2.06
 -12   4   2    1.98    1.63
  12  -4  -2   -0.33    2.35
 -12   4   2   -0.49    1.71
 -12   4   1   50.17    9.02
  12  -4  -1   56.11    9.14
 -12   4   1   53.44    8.69
  12  -4  -1   51.69    7.81
  12  -4   0   37.23    6.80
  12  -4   0   38.10    7.49
 -12   4   0   28.27    6.21
  12  -4   1    7.65    3.64
 -12   4  -1    5.63    2.55
  12  -4   2   58.86    9.17
 -12   4  -2   51.91    8.62
 -12   4  -3    0.30    2.16
 -12   3   6    7.04    3.58
 -12   3   5   62.07    9.94
 -12   3   5   66.51    9.82
  12  -3  -5   62.80    8.24
 -12   3   4   19.15    5.26
  12  -3  -4   30.21    5.80
 -12   3   4   15.32    4.88
  12  -3  -4   23.11    6.07
 -12   3   4   19.45    5.38
  12  -3  -3   51.80    7.70
 -12   3   3   48.13    8.69
  12  -3  -3   40.54    7.61
 -12   3   3   43.53    7.87
  12  -3  -2   13.31    4.14
 -12   3   2    6.50    2.96
  12  -3  -2   18.23    5.14
  12  -3  -1   70.84    9.83
 -12   3   1   63.53    9.88
 -12   3   1   66.88    9.66
  12  -3  -1   72.69    9.25
  12  -3   0   -2.46    2.93
 -12   3   0   -0.31    2.79
  12  -3   0    2.15    2.09
 -12   3   0    0.37    1.52
  12  -3   1   36.98    7.05
 -12   3  -1   39.43    7.57
  12  -3   2   -0.16    1.38
 -12   3  -2   -1.70    2.28
  12  -2  -6   -0.83    1.61
 -12   2   6    4.30    2.73
  12  -2  -5   14.73    4.15
 -12   2   5   18.85    5.76
  12  -2  -5   33.46    7.16
 -12   2   5   22.55    5.85
  12  -2  -4   67.57    9.88
  12  -2  -4   55.20    8.01
 -12   2   4   67.04   10.36
 -12   2   4   60.90    9.43
  12  -2  -3    3.74    2.55
 -12   2   3    4.97    3.26
  12  -2  -3    4.13    2.61
 -12   2   3    1.54    2.43
  12  -2  -2   -0.41    1.68
 -12   2   2   -2.11    2.52
  12  -2  -2    3.05    2.43
 -12   2   2    0.31    1.97
  12  -2  -1   -0.71    1.67
 -12   2   1   -1.12    1.81
  12  -2  -1    5.03    3.23
 -12   2   1   -0.22    1.71
  12  -2   0    2.65    2.33
  12  -2   0    6.49    3.12
 -12   2   0    4.56    3.02
  12  -2   1   33.50    6.82
 -12   2  -1   35.48    7.35
  12  -1  -7    3.78    2.39
  12  -1  -6   -3.91    2.44
  12  -1  -6    3.50    2.85
  12  -1  -5   52.30    7.93
  12  -1  -5   53.25    8.77
 -12   1   5   38.88    7.71
  12  -1  -4    1.41    1.69
 -12   1   4    1.69    2.04
  12  -1  -4    3.98    1.78
 -12   1   4    2.24    2.62
  12  -1  -3   90.79   11.05
 -12   1   3   98.16   12.47
 -12   1   3  100.20   12.29
  12  -1  -3   98.71   10.94
  12  -1  -2   -3.87    2.51
 -12   1   2    3.64    3.27
  12  -1  -2   -5.22    2.92
 -12   1   2    0.20    2.18
  12  -1  -1   -0.57    1.91
 -12   1   1   -1.46    2.89
  12  -1  -1    1.57    1.86
 -12   1   1   -4.50    2.93
 -12   1   0    9.81    4.22
  12   0  -6  146.49   14.34
 -12   0   6  123.74   13.01
  12   0  -6  139.14   13.11
  12   0  -5   12.04    4.39
  12   0  -5   13.52    4.29
  12   0  -4   12.27    4.15
  12   0  -4   11.24    4.03
  12   0  -3    6.28    3.09
  12   0  -3   11.88    4.12
  12   1  -6    6.66    2.82
 -12  -1   6   11.69    4.34
  12   1  -5   13.23    4.04
   0   0   0    0.00    0.00
;
_shelx_hkl_checksum              17817
_shelx_res_file
;
TITL Crystal structure of 2',3,6'-trichlorobiphenyl-2-ylboronic acid tetrahydrof
CELL  0.71073   8.3306   8.7122  12.4307   98.683   97.737   99.398
ZERR     2.00   0.0003   0.0002   0.0004    0.003    0.003    0.003
LATT   1
SFAC  C    H    B    O    CL
UNIT  32   32   2    6    6
MERG   2
OMIT     4 -13   3
OMIT     0   0   1
OMIT     4 -12   9
OMIT     6 -10  11
OMIT    -7  12   0
DFIX 0.84 O1 H1A
DFIX 0.84 O2 H2A
HTAB C14 Cl3
HTAB O1 O3
EQIV $1 -x+2, -y+1, -z+1
HTAB O2 O1_$1
FMAP   2
PLAN    5
ACTA
CONF
HTAB    2.00000
BOND   $H
L.S.  14
TEMP  -143.00
WGHT    0.032800    0.354900
FVAR       0.85636
MOLE    1
C1    1    0.774161    0.331874    0.222476    11.00000    0.01789    0.01423 =
         0.01367    0.00284    0.00048    0.00283
C2    1    0.855133    0.337772    0.131126    11.00000    0.01957    0.01635 =
         0.01685    0.00344    0.00273    0.00286
C3    1    0.776051    0.284356    0.022903    11.00000    0.02890    0.02367 =
         0.01478    0.00396    0.00467    0.00613
AFIX  43
H3    2    0.835488    0.291399   -0.036800    11.00000   -1.20000
AFIX   0
C5    1    0.523037    0.212554    0.091672    11.00000    0.02119    0.02645 =
         0.01805    0.00131   -0.00301    0.00017
AFIX  43
H5    2    0.408469    0.168984    0.078192    11.00000   -1.20000
AFIX   0
C6    1    0.604136    0.268079    0.199722    11.00000    0.01862    0.01689 =
         0.01460    0.00280    0.00024    0.00252
C7    1    0.505286    0.262012    0.291444    11.00000    0.01560    0.01944 =
         0.01519    0.00148    0.00005    0.00091
C8    1    0.476565    0.128611    0.341041    11.00000    0.01966    0.02019 =
         0.01501    0.00142    0.00029    0.00251
C9    1    0.381438    0.120123    0.424473    11.00000    0.02083    0.02839 =
         0.01921    0.00655    0.00223    0.00130
AFIX  43
H9    2    0.364562    0.027608    0.456473    11.00000   -1.20000
AFIX   0
C10   1    0.311666    0.248521    0.460227    11.00000    0.01864    0.03635 =
         0.02360    0.00443    0.00601    0.00328
AFIX  43
H10   2    0.246592    0.244090    0.517239    11.00000   -1.20000
AFIX   0
C11   1    0.432377    0.388273    0.330251    11.00000    0.01757    0.01961 =
         0.02435    0.00269    0.00100    0.00164
C12   1    0.336104    0.383510    0.413409    11.00000    0.01930    0.02960 =
         0.02930    0.00052    0.00556    0.00647
AFIX  43
H12   2    0.287878    0.471414    0.437715    11.00000   -1.20000
AFIX   0
C13   1    0.608966    0.220646    0.003658    11.00000    0.03049    0.02903 =
         0.01384    0.00134   -0.00244    0.00238
AFIX  43
H13   2    0.553139    0.182490   -0.069719    11.00000   -1.20000
AFIX   0
C14   1    0.826946    0.750116    0.143128    11.00000    0.02667    0.02207 =
         0.02263    0.00594   -0.00003    0.00313
AFIX  23
H14A  2    0.706656    0.715419    0.118404    11.00000   -1.20000
H14B  2    0.884334    0.670235    0.107653    11.00000   -1.20000
AFIX   0
C15   1    0.885738    0.911045    0.114519    11.00000    0.03322    0.02576 =
         0.02783    0.01138    0.00572    0.00444
AFIX  23
H15A  2    0.801378    0.978513    0.120192    11.00000   -1.20000
H15B  2    0.914216    0.901177    0.039298    11.00000   -1.20000
AFIX   0
C16   1    1.038854    0.976685    0.202411    11.00000    0.03334    0.02428 =
         0.03751    0.00681    0.00493   -0.00234
AFIX  23
H16A  2    1.136922    0.937781    0.180363    11.00000   -1.20000
H16B  2    1.062111    1.093709    0.216535    11.00000   -1.20000
AFIX   0
C17   1    0.989889    0.912512    0.302594    11.00000    0.04106    0.02610 =
         0.03279    0.00717   -0.00643   -0.00660
AFIX  23
H17A  2    1.086831    0.887345    0.347066    11.00000   -1.20000
H17B  2    0.944251    0.991359    0.349474    11.00000   -1.20000
AFIX   0
B1    3    0.867963    0.396719    0.345162    11.00000    0.01524    0.01704 =
         0.01457    0.00146    0.00095    0.00221
O1    4    0.924068    0.554444    0.382378    11.00000    0.02783    0.01615 =
         0.01488    0.00266   -0.00296    0.00187
O2    4    0.890195    0.292852    0.413791    11.00000    0.03024    0.01786 =
         0.01704    0.00363   -0.00534    0.00101
O3    4    0.866457    0.771028    0.261436    11.00000    0.03283    0.02017 =
         0.02331    0.00715   -0.00171   -0.00048
CL1   5    0.563942   -0.033766    0.298381    11.00000    0.04097    0.02093 =
         0.02001    0.00481    0.00736    0.00986
CL2   5    0.463068    0.559266    0.273516    11.00000    0.02627    0.02037 =
         0.04284    0.00884    0.00663    0.00462
CL3   5    1.066964    0.413873    0.152960    11.00000    0.01988    0.02816 =
         0.02462    0.00636    0.00640    0.00239
H1A   2    0.901823    0.612101    0.338256    11.00000   -1.50000
H2A   2    0.940963    0.336169    0.476663    11.00000   -1.50000
HKLF 4
REM  Crystal structure of 2',3,6'-trichlorobiphenyl-2-ylboronic acid tetrahydrof
REM R1 =  0.0335 for    5162 Fo > 4sig(Fo)  and  0.0426 for all    6107 data
REM    214 parameters refined using      2 restraints
END
WGHT      0.0328      0.3552
REM Highest difference peak  0.446,  deepest hole -0.364,  1-sigma level  0.059
Q1    1   0.8084  0.3050  0.0805  11.00000  0.05    0.45
Q2    1   0.8204  0.3620  0.2844  11.00000  0.05    0.44
Q3    1   0.4444  0.5411  0.2137  11.00000  0.05    0.43
Q4    1   1.0583  0.8703  0.2752  11.00000  0.05    0.40
Q5    1   0.5727  0.2449  0.1437  11.00000  0.05    0.39
;
_shelx_res_checksum              91060
_shelxl_version_number           .2013
loop_
_space_group_symop_operation_xyz
'x, y, z'
'-x, -y, -z'
loop_
_atom_site_type_symbol
_atom_site_label
_atom_site_fract_x
_atom_site_fract_y
_atom_site_fract_z
_atom_site_U_iso_or_equiv
_atom_site_adp_type
_atom_site_calc_flag
_atom_site_occupancy
C C1 0.77416(13) 0.33187(12) 0.22248(8) 0.01544(18) Uani d 1
C C2 0.85513(13) 0.33777(12) 0.13113(9) 0.01761(19) Uani d 1
C C3 0.77605(15) 0.28436(14) 0.02290(9) 0.0221(2) Uani d 1
H H3 0.8355 0.2914 -0.0368 0.027 Uiso calc 1
C C5 0.52304(15) 0.21255(15) 0.09167(10) 0.0233(2) Uani d 1
H H5 0.4085 0.1690 0.0782 0.028 Uiso calc 1
C C6 0.60414(13) 0.26808(13) 0.19972(9) 0.01703(19) Uani d 1
C C7 0.50529(13) 0.26201(13) 0.29144(9) 0.01742(19) Uani d 1
C C8 0.47656(14) 0.12861(13) 0.34104(9) 0.0188(2) Uani d 1
C C9 0.38144(14) 0.12012(15) 0.42447(10) 0.0230(2) Uani d 1
H H9 0.3646 0.0276 0.4565 0.028 Uiso calc 1
C C10 0.31167(15) 0.24852(16) 0.46023(11) 0.0263(2) Uani d 1
H H10 0.2466 0.2441 0.5172 0.032 Uiso calc 1
C C11 0.43238(14) 0.38827(13) 0.33025(10) 0.0211(2) Uani d 1
C C12 0.33610(15) 0.38351(16) 0.41341(11) 0.0262(2) Uani d 1
H H12 0.2879 0.4714 0.4377 0.031 Uiso calc 1
C C13 0.60897(16) 0.22065(15) 0.00366(10) 0.0257(2) Uani d 1
H H13 0.5531 0.1825 -0.0697 0.031 Uiso calc 1
C C14 0.82695(16) 0.75012(14) 0.14313(10) 0.0241(2) Uani d 1
H H14A 0.7067 0.7154 0.1184 0.029 Uiso calc 1
H H14B 0.8843 0.6702 0.1077 0.029 Uiso calc 1
C C15 0.88574(17) 0.91105(15) 0.11452(11) 0.0283(3) Uani d 1
H H15A 0.8014 0.9785 0.1202 0.034 Uiso calc 1
H H15B 0.9142 0.9012 0.0393 0.034 Uiso calc 1
C C16 1.03885(18) 0.97668(16) 0.20241(12) 0.0325(3) Uani d 1
H H16A 1.1369 0.9378 0.1804 0.039 Uiso calc 1
H H16B 1.0621 1.0937 0.2165 0.039 Uiso calc 1
C C17 0.9899(2) 0.91251(17) 0.30259(12) 0.0358(3) Uani d 1
H H17A 1.0868 0.8873 0.3471 0.043 Uiso calc 1
H H17B 0.9443 0.9914 0.3495 0.043 Uiso calc 1
B B1 0.86796(14) 0.39672(14) 0.34516(10) 0.0160(2) Uani d 1
O O1 0.92407(11) 0.55444(9) 0.38238(7) 0.02050(16) Uani d 1
O O2 0.89019(11) 0.29285(10) 0.41379(7) 0.02293(17) Uani d 1
O O3 0.86646(12) 0.77103(10) 0.26144(7) 0.02631(19) Uani d 1
Cl Cl1 0.56394(4) -0.03377(3) 0.29838(2) 0.02648(7) Uani d 1
Cl Cl2 0.46307(4) 0.55927(3) 0.27352(3) 0.02936(8) Uani d 1
Cl Cl3 1.06696(3) 0.41387(4) 0.15296(2) 0.02402(7) Uani d 1
H H1A 0.902(2) 0.6121(19) 0.3383(13) 0.036 Uiso d 1
H H2A 0.941(2) 0.336(2) 0.4767(12) 0.036 Uiso d 1
loop_
_atom_site_aniso_label
_atom_site_aniso_U_11
_atom_site_aniso_U_22
_atom_site_aniso_U_33
_atom_site_aniso_U_12
_atom_site_aniso_U_13
_atom_site_aniso_U_23
C1 0.0179(5) 0.0142(4) 0.0137(4) 0.0028(3) 0.0005(3) 0.0028(3)
C2 0.0196(5) 0.0163(4) 0.0168(5) 0.0029(4) 0.0027(4) 0.0034(4)
C3 0.0289(6) 0.0237(5) 0.0148(5) 0.0061(4) 0.0047(4) 0.0040(4)
C5 0.0212(5) 0.0264(6) 0.0181(5) 0.0002(4) -0.0030(4) 0.0013(4)
C6 0.0186(5) 0.0169(4) 0.0146(4) 0.0025(4) 0.0002(4) 0.0028(4)
C7 0.0156(4) 0.0194(5) 0.0152(4) 0.0009(4) 0.0001(3) 0.0015(4)
C8 0.0197(5) 0.0202(5) 0.0150(5) 0.0025(4) 0.0003(4) 0.0014(4)
C9 0.0208(5) 0.0284(6) 0.0192(5) 0.0013(4) 0.0022(4) 0.0065(4)
C10 0.0186(5) 0.0363(7) 0.0236(6) 0.0033(5) 0.0060(4) 0.0044(5)
C11 0.0176(5) 0.0196(5) 0.0243(5) 0.0016(4) 0.0010(4) 0.0027(4)
C12 0.0193(5) 0.0296(6) 0.0293(6) 0.0065(4) 0.0056(4) 0.0005(5)
C13 0.0305(6) 0.0290(6) 0.0138(5) 0.0024(5) -0.0024(4) 0.0013(4)
C14 0.0267(6) 0.0221(5) 0.0226(5) 0.0031(4) 0.0000(4) 0.0059(4)
C15 0.0332(7) 0.0258(6) 0.0278(6) 0.0044(5) 0.0057(5) 0.0114(5)
C16 0.0333(7) 0.0243(6) 0.0375(7) -0.0023(5) 0.0049(6) 0.0068(5)
C17 0.0411(8) 0.0261(6) 0.0328(7) -0.0066(5) -0.0064(6) 0.0072(5)
B1 0.0152(5) 0.0170(5) 0.0146(5) 0.0022(4) 0.0009(4) 0.0015(4)
O1 0.0278(4) 0.0162(4) 0.0149(4) 0.0019(3) -0.0030(3) 0.0027(3)
O2 0.0302(4) 0.0179(4) 0.0170(4) 0.0010(3) -0.0053(3) 0.0036(3)
O3 0.0328(5) 0.0202(4) 0.0233(4) -0.0005(3) -0.0017(3) 0.0072(3)
Cl1 0.04097(17) 0.02093(13) 0.02001(13) 0.00986(11) 0.00736(11) 0.00481(10)
Cl2 0.02627(15) 0.02037(13) 0.04284(18) 0.00462(10) 0.00663(12) 0.00884(12)
Cl3 0.01988(13) 0.02816(14) 0.02462(14) 0.00239(10) 0.00640(10) 0.00636(11)
loop_
_atom_type_symbol
_atom_type_description
_atom_type_scat_dispersion_real
_atom_type_scat_dispersion_imag
_atom_type_scat_source
C C 0.0033 0.0016 'International Tables Vol C Tables 4.2.6.8 and 6.1.1.4'
H H 0.0000 0.0000 'International Tables Vol C Tables 4.2.6.8 and 6.1.1.4'
B B 0.0013 0.0007 'International Tables Vol C Tables 4.2.6.8 and 6.1.1.4'
O O 0.0106 0.0060 'International Tables Vol C Tables 4.2.6.8 and 6.1.1.4'
Cl Cl 0.1484 0.1585 'International Tables Vol C Tables 4.2.6.8 and 6.1.1.4'
loop_
_geom_angle_atom_site_label_1
_geom_angle_atom_site_label_2
_geom_angle_atom_site_label_3
_geom_angle
C2 C1 C6 116.31(9)
C2 C1 B1 121.95(9)
C6 C1 B1 121.73(9)
C3 C2 C1 123.29(10)
C3 C2 Cl3 117.77(9)
C1 C2 Cl3 118.93(8)
C13 C3 C2 118.82(11)
C13 C3 H3 120.6
C2 C3 H3 120.6
C13 C5 C6 120.36(11)
C13 C5 H5 119.8
C6 C5 H5 119.8
C5 C6 C1 121.18(10)
C5 C6 C7 118.41(10)
C1 C6 C7 120.40(9)
C11 C7 C8 116.15(10)
C11 C7 C6 121.66(10)
C8 C7 C6 122.17(10)
C9 C8 C7 122.68(11)
C9 C8 Cl1 118.09(9)
C7 C8 Cl1 119.23(9)
C10 C9 C8 119.03(11)
C10 C9 H9 120.5
C8 C9 H9 120.5
C9 C10 C12 120.49(11)
C9 C10 H10 119.8
C12 C10 H10 119.8
C12 C11 C7 122.63(11)
C12 C11 Cl2 118.30(9)
C7 C11 Cl2 119.07(9)
C10 C12 C11 119.01(12)
C10 C12 H12 120.5
C11 C12 H12 120.5
C3 C13 C5 120.03(11)
C3 C13 H13 120.0
C5 C13 H13 120.0
O3 C14 C15 105.36(10)
O3 C14 H14A 110.7
C15 C14 H14A 110.7
O3 C14 H14B 110.7
C15 C14 H14B 110.7
H14A C14 H14B 108.8
C14 C15 C16 102.13(10)
C14 C15 H15A 111.3
C16 C15 H15A 111.3
C14 C15 H15B 111.3
C16 C15 H15B 111.3
H15A C15 H15B 109.2
C17 C16 C15 102.58(11)
C17 C16 H16A 111.3
C15 C16 H16A 111.3
C17 C16 H16B 111.3
C15 C16 H16B 111.3
H16A C16 H16B 109.2
O3 C17 C16 106.63(11)
O3 C17 H17A 110.4
C16 C17 H17A 110.4
O3 C17 H17B 110.4
C16 C17 H17B 110.4
H17A C17 H17B 108.6
O2 B1 O1 119.71(10)
O2 B1 C1 118.96(9)
O1 B1 C1 121.33(9)
B1 O1 H1A 115.3(13)
B1 O2 H2A 113.1(12)
C14 O3 C17 109.77(10)
loop_
_geom_bond_atom_site_label_1
_geom_bond_atom_site_label_2
_geom_bond_distance
C1 C2 1.3999(15)
C1 C6 1.4081(15)
C1 B1 1.5907(16)
C2 C3 1.3902(16)
C2 Cl3 1.7498(11)
C3 C13 1.3859(18)
C3 H3 0.9500
C5 C13 1.3900(17)
C5 C6 1.3954(15)
C5 H5 0.9500
C6 C7 1.4959(15)
C7 C11 1.3959(16)
C7 C8 1.3976(15)
C8 C9 1.3908(16)
C8 Cl1 1.7395(12)
C9 C10 1.3851(18)
C9 H9 0.9500
C10 C12 1.3869(19)
C10 H10 0.9500
C11 C12 1.3924(17)
C11 Cl2 1.7388(12)
C12 H12 0.9500
C13 H13 0.9500
C14 O3 1.4400(15)
C14 C15 1.5183(17)
C14 H14A 0.9900
C14 H14B 0.9900
C15 C16 1.532(2)
C15 H15A 0.9900
C15 H15B 0.9900
C16 C17 1.517(2)
C16 H16A 0.9900
C16 H16B 0.9900
C17 O3 1.4465(16)
C17 H17A 0.9900
C17 H17B 0.9900
B1 O2 1.3514(14)
B1 O1 1.3641(14)
O1 H1A 0.821(14)
O2 H2A 0.838(14)
loop_
_geom_hbond_atom_site_label_D
_geom_hbond_atom_site_label_H
_geom_hbond_atom_site_label_A
_geom_hbond_site_symmetry_A
_geom_hbond_distance_DH
_geom_hbond_distance_HA
_geom_hbond_distance_DA
_geom_hbond_angle_DHA
O1 H1A O3 . 0.821(14) 1.836(14) 2.6475(12) 169.4(18)
O2 H2A O1 2_766 0.838(14) 1.964(14) 2.7997(12) 174.9(17)
loop_
_geom_torsion_atom_site_label_1
_geom_torsion_atom_site_label_2
_geom_torsion_atom_site_label_3
_geom_torsion_atom_site_label_4
_geom_torsion
C6 C1 C2 C3 -0.15(16)
B1 C1 C2 C3 -178.97(10)
C6 C1 C2 Cl3 -179.42(8)
B1 C1 C2 Cl3 1.76(14)
C1 C2 C3 C13 -0.56(17)
Cl3 C2 C3 C13 178.72(9)
C13 C5 C6 C1 -0.63(18)
C13 C5 C6 C7 177.91(11)
C2 C1 C6 C5 0.74(16)
B1 C1 C6 C5 179.56(10)
C2 C1 C6 C7 -177.77(9)
B1 C1 C6 C7 1.05(15)
C5 C6 C7 C11 -90.69(13)
C1 C6 C7 C11 87.86(13)
C5 C6 C7 C8 87.44(14)
C1 C6 C7 C8 -94.00(13)
C11 C7 C8 C9 -0.11(16)
C6 C7 C8 C9 -178.35(10)
C11 C7 C8 Cl1 -179.56(8)
C6 C7 C8 Cl1 2.21(14)
C7 C8 C9 C10 0.10(17)
Cl1 C8 C9 C10 179.55(9)
C8 C9 C10 C12 0.09(18)
C8 C7 C11 C12 -0.07(17)
C6 C7 C11 C12 178.17(11)
C8 C7 C11 Cl2 179.60(8)
C6 C7 C11 Cl2 -2.15(15)
C9 C10 C12 C11 -0.26(19)
C7 C11 C12 C10 0.25(18)
Cl2 C11 C12 C10 -179.42(10)
C2 C3 C13 C5 0.69(18)
C6 C5 C13 C3 -0.11(19)
O3 C14 C15 C16 33.84(13)
C14 C15 C16 C17 -35.53(14)
C15 C16 C17 O3 25.23(15)
C2 C1 B1 O2 -111.66(12)
C6 C1 B1 O2 69.59(14)
C2 C1 B1 O1 69.17(14)
C6 C1 B1 O1 -109.58(12)
C15 C14 O3 C17 -18.86(14)
C16 C17 O3 C14 -4.30(16)

_cod_database_fobs_code 2241297
