#------------------------------------------------------------------------------
#$Date: 2016-07-23 04:14:29 +0300 (Sat, 23 Jul 2016) $
#$Revision: 184620 $
#$URL: file:///home/coder/svn-repositories/cod/cif/2/24/17/2241781.cif $
#------------------------------------------------------------------------------
#
# This file is available in the Crystallography Open Database (COD),
# http://www.crystallography.net/. The original data for this entry
# were provided by IUCr Journals, http://journals.iucr.org/.
#
# The file may be used within the scientific community so long as
# proper attribution is given to the journal article from which the
# data were obtained.
#
data_2241781
loop_
_publ_author_name
'Subasri, S.'
'Timiri, Ajay Kumar'
'Barji, Nayan Sinha'
'Venkatesh, Jayaprakash'
'Vijayan, Viswanathan'
'Velmurugan, Devadasan'
_publ_section_title
;
 Crystal structures of
 2-[(4,6-diaminopyrimidin-2-yl)sulfanyl]-<i>N</i>-(3-nitrophenyl)acetamide
 monohydrate and
 <i>N</i>-(2-chlorophenyl)-2-[(4,6-diaminopyrimidin-2-yl)sulfanyl]acetamide
;
_journal_coeditor_code           SU5311
_journal_issue                   8
_journal_name_full               'Acta Crystallographica Section E'
_journal_page_first              1171
_journal_page_last               1175
_journal_paper_doi               10.1107/S2056989016011658
_journal_volume                  72
_journal_year                    2016
_chemical_formula_iupac          'C12 H12 Cl N5 O S'
_chemical_formula_moiety         'C12 H12 Cl N5 O S'
_chemical_formula_sum            'C12 H12 Cl N5 O S'
_chemical_formula_weight         309.78
_chemical_name_systematic
;
<i>N</i>-(2-Chlorophenyl)-2-[(4,6-diaminopyrimidin-2-yl)sulfanyl]acetamide
;
_space_group_crystal_system      triclinic
_space_group_IT_number           2
_space_group_name_Hall           '-P 1'
_space_group_name_H-M_alt        'P -1'
_symmetry_space_group_name_Hall  '-P 1'
_symmetry_space_group_name_H-M   'P -1'
_atom_sites_solution_hydrogens   mixed
_atom_sites_solution_primary     direct
_atom_sites_solution_secondary   difmap
_audit_creation_method           SHELXL-2014/6
_cell_angle_alpha                91.410(2)
_cell_angle_beta                 105.924(2)
_cell_angle_gamma                94.647(2)
_cell_formula_units_Z            2
_cell_length_a                   7.2528(2)
_cell_length_b                   7.6249(3)
_cell_length_c                   13.0649(4)
_cell_measurement_reflns_used    2822
_cell_measurement_temperature    293(2)
_cell_measurement_theta_max      26.434
_cell_measurement_theta_min      1.623
_cell_volume                     691.68(4)
_computing_cell_refinement
;
SAINT (Bruker, 2008)
;
_computing_data_collection
;
APEX2 (Bruker, 2008)
;
_computing_data_reduction
;
SAINT (Bruker, 2008)
;
_computing_molecular_graphics
;
Mercury (Macrae <i>et al.</i>,  2008) and PLATON (Spek, 2009)
;
_computing_publication_material
;
SHELXL2014 (Sheldrick, 2015) and PLATON (Spek, 2009)
;
_computing_structure_refinement
;
SHELXL2014 (Sheldrick, 2015)
;
_computing_structure_solution
;
SHELXS97 (Sheldrick, 2008)
;
_diffrn_ambient_temperature      293(2)
_diffrn_measured_fraction_theta_full 0.998
_diffrn_measured_fraction_theta_max 0.989
_diffrn_measurement_device_type  'Bruker SMART APEXII area-detector'
_diffrn_measurement_method       '\w and \f scans'
_diffrn_radiation_type           MoK\a
_diffrn_radiation_wavelength     0.71073
_diffrn_reflns_av_R_equivalents  0.0223
_diffrn_reflns_limit_h_max       8
_diffrn_reflns_limit_h_min       -9
_diffrn_reflns_limit_k_max       9
_diffrn_reflns_limit_k_min       -9
_diffrn_reflns_limit_l_max       16
_diffrn_reflns_limit_l_min       -16
_diffrn_reflns_number            10154
_diffrn_reflns_theta_full        25.242
_diffrn_reflns_theta_max         26.434
_diffrn_reflns_theta_min         1.623
_exptl_absorpt_coefficient_mu    0.430
_exptl_absorpt_correction_T_max  0.845
_exptl_absorpt_correction_T_min  0.785
_exptl_absorpt_correction_type   multi-scan
_exptl_absorpt_process_details
;
(<i>SADABS</i>; Bruker, 2008)
;
_exptl_crystal_colour            colourless
_exptl_crystal_density_diffrn    1.487
_exptl_crystal_description       block
_exptl_crystal_F_000             320
_exptl_crystal_size_max          0.30
_exptl_crystal_size_mid          0.20
_exptl_crystal_size_min          0.15
_refine_diff_density_max         0.499
_refine_diff_density_min         -0.496
_refine_ls_extinction_method     none
_refine_ls_goodness_of_fit_ref   1.037
_refine_ls_hydrogen_treatment    mixed
_refine_ls_matrix_type           full
_refine_ls_number_parameters     201
_refine_ls_number_reflns         2822
_refine_ls_number_restraints     0
_refine_ls_restrained_S_all      1.037
_refine_ls_R_factor_all          0.0392
_refine_ls_R_factor_gt           0.0354
_refine_ls_shift/su_max          0.000
_refine_ls_shift/su_mean         0.000
_refine_ls_structure_factor_coef Fsqd
_refine_ls_weighting_details
'w=1/[\s^2^(Fo^2^)+(0.0515P)^2^+0.2692P] where P=(Fo^2^+2Fc^2^)/3'
_refine_ls_weighting_scheme      calc
_refine_ls_wR_factor_gt          0.0957
_refine_ls_wR_factor_ref         0.0994
_reflns_number_gt                2519
_reflns_number_total             2822
_reflns_threshold_expression     'I > 2\s(I)'
_cod_data_source_file            su5311sup1.cif
_cod_data_source_block           II
_cod_database_code               2241781
_shelx_space_group_comment
;
The symmetry employed for this shelxl refinement is uniquely defined
by the following loop, which should always be used as a source of
symmetry information in preference to the above space-group names.
They are only intended as comments.
;
_shelx_estimated_absorpt_t_min   0.882
_shelx_estimated_absorpt_t_max   0.919
_shelx_hkl_file
;
  -1   0   0  167.04    4.55
  -1   0   0  188.23    4.19
  -1   0   0  186.46    4.42
  -1   0   0  181.83    4.41
  -1   0   0  170.72    4.07
   1   0   0  193.99    4.18
   1   0   0  186.01    4.60
   1   0   0  168.64    4.56
  -2   0   0  146.52    3.46
  -2   0   0  151.90    3.51
  -2   0   0  152.32    3.72
  -2   0   0  156.61    3.73
   2   0   0  153.43    3.87
   2   0   0  152.18    3.87
   2   0   0  159.31    3.50
  -3   0   0    9.83    0.25
  -3   0   0    9.61    0.27
  -3   0   0    9.85    0.26
  -3   0   0    9.80    0.24
  -3   0   0    9.59    0.27
   3   0   0    9.43    0.28
   3   0   0    9.97    0.28
  -4   0   0   12.05    0.33
  -4   0   0   12.06    0.34
  -4   0   0   11.98    0.30
  -4   0   0   12.03    0.34
  -4   0   0   12.32    0.31
   4   0   0   11.51    0.35
   4   0   0   12.21    0.34
  -5   0   0   10.00    0.28
  -5   0   0   10.32    0.31
  -5   0   0   10.47    0.32
  -5   0   0   10.38    0.27
  -5   0   0   10.48    0.30
   5   0   0   10.23    0.33
   5   0   0   10.27    0.26
  -6   0   0    7.31    0.21
  -6   0   0    7.63    0.24
  -6   0   0    7.35    0.25
  -6   0   0    6.94    0.22
   6   0   0    7.07    0.19
   6   0   0    7.20    0.27
  -7   0   0    8.85    0.26
  -7   0   0    8.77    0.28
  -7   0   0    8.75    0.31
  -7   0   0    8.48    0.26
   7   0   0    8.71    0.22
   7   0   0    8.62    0.32
  -8   0   0    0.05    0.04
  -8   0   0    0.04    0.04
  -8   0   0    0.05    0.06
   8   0   0    0.11    0.06
  -8   1   0    1.83    0.10
  -8   1   0    1.43    0.13
  -8   1   0    1.91    0.12
   7  -1   0    0.24    0.06
  -7   1   0    0.29    0.04
  -7   1   0    0.30    0.06
  -7   1   0    0.30    0.07
  -7   1   0    0.22    0.04
   6  -1   0    6.68    0.25
   6  -1   0    6.61    0.17
  -6   1   0    6.28    0.20
  -6   1   0    7.18    0.20
  -6   1   0    7.06    0.25
  -6   1   0    6.87    0.23
   5  -1   0   11.37    0.27
   5  -1   0   11.39    0.35
  -5   1   0   11.45    0.33
  -5   1   0   11.33    0.29
  -5   1   0   11.84    0.34
  -5   1   0   11.19    0.34
  -5   1   0   11.11    0.30
   4  -1   0    8.35    0.20
   4  -1   0    8.63    0.21
   4  -1   0    8.14    0.26
   4  -1   0    8.86    0.25
  -4   1   0    8.32    0.26
  -4   1   0    8.11    0.25
  -4   1   0    8.26    0.22
  -4   1   0    8.28    0.21
  -4   1   0    7.98    0.25
   3  -1   0    0.24    0.02
   3  -1   0    0.21    0.03
   3  -1   0    0.23    0.03
  -3   1   0    0.38    0.04
  -3   1   0    0.20    0.03
  -3   1   0    0.20    0.03
  -3   1   0    0.19    0.02
   2  -1   0   42.52    0.94
   2  -1   0   41.02    1.07
   2  -1   0   41.31    1.06
   2  -1   0   43.27    0.97
  -2   1   0   41.76    0.94
  -2   1   0   43.01    1.07
  -2   1   0   43.81    0.97
  -2   1   0   41.27    1.04
  -2   1   0   40.32    1.06
   1  -1   0   73.66    1.90
   1  -1   0   73.41    1.85
   1  -1   0   72.12    1.84
  -1   1   0   70.17    1.86
  -1   1   0   73.46    1.73
  -1   1   0   74.89    1.78
  -1   1   0   74.96    1.85
  -1   1   0   74.77    1.91
   0  -1   0   39.30    0.96
   0  -1   0   39.28    1.00
   0  -1   0   40.09    0.90
   0   1   0   39.43    1.00
   0   1   0   38.85    0.91
  -1  -1   0    4.35    0.11
  -1  -1   0    4.52    0.12
  -1  -1   0    4.25    0.12
  -1  -1   0    4.52    0.12
  -1  -1   0    4.33    0.11
  -1  -1   0    4.38    0.12
   1   1   0    4.32    0.11
   1   1   0    4.25    0.12
   1   1   0    4.38    0.12
  -2  -1   0    0.53    0.03
  -2  -1   0    0.54    0.03
  -2  -1   0    0.50    0.03
  -2  -1   0    0.45    0.03
  -2  -1   0    0.55    0.03
  -2  -1   0    0.46    0.03
   2   1   0    0.50    0.03
  -3  -1   0  169.63    3.85
  -3  -1   0  180.79    4.15
  -3  -1   0  169.29    4.15
  -3  -1   0  164.76    4.29
  -3  -1   0  174.24    3.94
   3   1   0  174.41    4.29
  -4  -1   0    5.77    0.16
  -4  -1   0    5.53    0.17
  -4  -1   0    5.60    0.19
  -4  -1   0    5.47    0.16
   4   1   0    5.78    0.19
   4   1   0    5.64    0.20
  -5  -1   0    1.36    0.08
  -5  -1   0    1.44    0.09
  -5  -1   0    1.26    0.09
  -5  -1   0    1.53    0.07
  -5  -1   0    1.49    0.07
   5   1   0    1.43    0.09
   5   1   0    1.41    0.06
  -6  -1   0   18.00    0.46
  -6  -1   0   19.25    0.50
  -6  -1   0   18.18    0.52
  -6  -1   0   17.20    0.46
   6   1   0   17.93    0.44
   6   1   0   18.03    0.54
  -7  -1   0    0.94    0.10
  -7  -1   0    0.81    0.08
  -7  -1   0    0.75    0.07
  -7  -1   0    0.68    0.07
   7   1   0    0.74    0.05
   7   1   0    0.67    0.09
  -8  -1   0    0.01    0.04
  -8  -1   0    0.00    0.04
  -8  -1   0    0.06    0.06
  -8   2   0    3.72    0.18
  -8   2   0    3.70    0.20
  -8   2   0    3.54    0.15
   7  -2   0   11.34    0.38
  -7   2   0   10.77    0.37
  -7   2   0   11.50    0.36
  -7   2   0   11.27    0.32
   6  -2   0   34.18    0.94
  -6   2   0   33.42    0.91
  -6   2   0   33.87    0.83
  -6   2   0   35.40    0.80
  -6   2   0   34.55    0.90
   5  -2   0    7.59    0.26
  -5   2   0    7.69    0.22
  -5   2   0    7.78    0.25
  -5   2   0    7.54    0.26
  -5   2   0    7.62    0.20
  -5   2   0    7.61    0.25
   4  -2   0   68.15    1.76
   4  -2   0   70.61    1.75
  -4   2   0   70.51    1.60
  -4   2   0   68.84    1.54
  -4   2   0   69.02    1.76
  -4   2   0   67.69    1.72
   3  -2   0   39.99    1.06
   3  -2   0   42.71    0.92
   3  -2   0   40.83    1.05
  -3   2   0   40.88    0.93
  -3   2   0   41.06    1.06
  -3   2   0   42.74    0.96
  -3   2   0   40.60    1.04
   2  -2   0    1.38    0.06
   2  -2   0    1.42    0.06
  -2   2   0    1.41    0.07
  -2   2   0    1.40    0.06
  -2   2   0    1.44    0.04
  -2   2   0    1.45    0.06
   1  -2   0    0.02    0.01
  -1   2   0    0.02    0.01
  -1   2   0    0.07    0.01
   0  -2   0  259.92    5.88
   0  -2   0  268.96    6.38
   0  -2   0  260.82    6.62
   0   2   0  255.93    5.87
   0   2   0  268.95    6.62
  -1  -2   0  359.89    8.49
  -1  -2   0  330.19    7.82
  -1  -2   0  322.02    8.76
  -1  -2   0  372.61    8.54
  -1  -2   0  366.50    8.04
   1   2   0  358.97    8.57
   1   2   0  336.71    8.76
  -2  -2   0   48.39    1.30
  -2  -2   0   50.23    1.25
  -2  -2   0   51.24    1.18
  -2  -2   0   54.87    1.26
  -2  -2   0   52.40    1.25
   2   2   0   50.35    1.26
   2   2   0   50.67    1.30
  -3  -2   0   85.58    1.99
  -3  -2   0   85.38    2.18
  -3  -2   0   89.68    2.10
  -3  -2   0   92.27    2.11
  -3  -2   0   85.38    2.11
  -3  -2   0   85.05    1.94
   3   2   0   82.43    2.11
  -4  -2   0    1.23    0.06
  -4  -2   0    1.38    0.08
  -4  -2   0    1.28    0.07
  -4  -2   0    1.22    0.06
  -4  -2   0    1.25    0.07
  -5  -2   0    5.11    0.19
  -5  -2   0    4.95    0.15
  -5  -2   0    5.25    0.17
  -5  -2   0    4.89    0.18
  -5  -2   0    4.95    0.16
   5   2   0    5.04    0.20
   5   2   0    5.00    0.15
  -6  -2   0    0.30    0.04
  -6  -2   0    0.34    0.04
  -6  -2   0    0.37    0.06
  -6  -2   0    0.35    0.05
  -6  -2   0    0.33    0.06
   6   2   0    0.36    0.03
   6   2   0    0.39    0.06
  -7  -2   0   10.78    0.32
  -7  -2   0   10.89    0.31
  -7  -2   0   11.01    0.36
  -7  -2   0   11.64    0.34
   7   2   0   10.75    0.29
  -8  -2   0    0.05    0.06
  -8  -2   0    0.07    0.04
  -8  -2   0    0.02    0.04
   8   2   0    0.02    0.03
  -8   3   0    0.03    0.06
  -8   3   0    0.07    0.06
  -8   3   0    0.07    0.04
   7  -3   0    0.22    0.06
  -7   3   0    0.31    0.07
  -7   3   0    0.30    0.07
  -7   3   0    0.22    0.04
   6  -3   0    1.83    0.11
  -6   3   0    1.67    0.08
  -6   3   0    1.68    0.11
   5  -3   0   15.62    0.46
  -5   3   0   16.42    0.41
  -5   3   0   15.58    0.46
   4  -3   0    3.55    0.14
   4  -3   0    3.90    0.14
  -4   3   0    3.67    0.15
  -4   3   0    3.60    0.10
  -4   3   0    3.92    0.12
  -4   3   0    3.80    0.14
   3  -3   0   15.67    0.41
   3  -3   0   14.55    0.42
  -3   3   0   14.98    0.42
  -3   3   0   14.96    0.42
  -3   3   0   15.58    0.37
   2  -3   0   15.44    0.42
   2  -3   0   15.43    0.41
  -2   3   0   15.24    0.42
  -2   3   0   15.44    0.36
   1  -3   0  185.83    4.20
   1  -3   0  181.82    4.68
   1  -3   0  186.68    4.51
   1  -3   0  191.09    4.72
  -1   3   0  186.86    4.20
  -1   3   0  191.95    4.32
  -1   3   0  187.61    4.52
   0  -3   0  112.13    2.53
   0  -3   0  111.66    2.82
   0  -3   0  114.16    2.73
   0   3   0  114.43    2.83
  -1  -3   0    2.70    0.09
  -1  -3   0    2.58    0.09
  -1  -3   0    2.71    0.08
   1   3   0    2.50    0.10
   1   3   0    2.75    0.08
  -2  -3   0    6.37    0.16
  -2  -3   0    6.50    0.17
  -2  -3   0    6.28    0.19
  -2  -3   0    6.16    0.19
  -2  -3   0    6.20    0.17
   2   3   0    6.30    0.17
  -3  -3   0    2.62    0.10
  -3  -3   0    2.66    0.10
  -3  -3   0    2.45    0.10
  -3  -3   0    2.53    0.10
  -3  -3   0    2.57    0.08
   3   3   0    2.53    0.08
  -4  -3   0    5.57    0.19
  -4  -3   0    5.74    0.18
  -4  -3   0    5.21    0.15
  -4  -3   0    5.26    0.19
  -4  -3   0    5.53    0.17
  -5  -3   0    4.20    0.17
  -5  -3   0    4.54    0.16
  -5  -3   0    4.23    0.16
  -5  -3   0    4.05    0.13
  -5  -3   0    4.23    0.15
   5   3   0    3.99    0.13
  -6  -3   0   20.54    0.53
  -6  -3   0   21.05    0.60
  -6  -3   0   19.76    0.57
  -6  -3   0   20.20    0.51
  -6  -3   0   20.60    0.55
   6   3   0   20.01    0.51
  -7  -3   0    7.17    0.26
  -7  -3   0    7.49    0.24
  -7  -3   0    7.13    0.22
   7   3   0    6.89    0.21
  -8  -3   0    1.38    0.12
  -8  -3   0    1.32    0.10
   8   3   0    1.37    0.08
  -8   4   0    4.06    0.16
  -8   4   0    3.57    0.19
  -8   4   0    3.50    0.20
  -7   4   0    0.49    0.08
  -7   4   0    0.45    0.05
  -7   4   0    0.45    0.08
   6  -4   0    4.96    0.20
  -6   4   0    5.06    0.17
  -6   4   0    4.82    0.21
   5  -4   0    0.16    0.04
  -5   4   0    0.10    0.03
  -5   4   0    0.12    0.05
   4  -4   0    0.10    0.03
  -4   4   0    0.19    0.03
  -4   4   0    0.16    0.05
   3  -4   0    0.02    0.02
   3  -4   0    0.04    0.02
  -3   4   0    0.07    0.04
  -3   4   0    0.03    0.01
   2  -4   0    4.65    0.15
   2  -4   0    4.66    0.15
  -2   4   0    4.88    0.12
  -2   4   0    4.80    0.17
   1  -4   0   32.81    0.82
   1  -4   0   32.43    0.74
   1  -4   0   31.99    0.84
  -1   4   0   32.65    0.84
  -1   4   0   33.83    0.76
   0  -4   0    0.02    0.02
   0  -4   0    0.02    0.02
   0  -4   0    0.03    0.02
   0   4   0    0.03    0.02
  -1  -4   0   85.45    2.07
  -1  -4   0   83.62    1.90
  -1  -4   0   85.74    2.14
   1   4   0   85.34    2.08
  -2  -4   0   54.51    1.38
  -2  -4   0   53.76    1.23
  -2  -4   0   53.79    1.33
   2   4   0   54.01    1.33
  -3  -4   0   45.82    1.08
  -3  -4   0   47.08    1.17
  -3  -4   0   46.46    1.21
  -3  -4   0   46.78    1.08
   3   4   0   47.23    1.16
  -4  -4   0    0.77    0.06
  -4  -4   0    0.72    0.04
  -4  -4   0    0.71    0.07
  -4  -4   0    0.78    0.06
  -5  -4   0    5.75    0.21
  -5  -4   0    5.76    0.19
  -5  -4   0    6.03    0.22
  -5  -4   0    5.75    0.16
   5   4   0    5.35    0.17
  -6  -4   0    1.08    0.08
  -6  -4   0    1.03    0.10
  -6  -4   0    1.13    0.09
  -6  -4   0    1.31    0.09
  -6  -4   0    1.13    0.06
   6   4   0    1.02    0.06
  -7  -4   0    1.59    0.12
  -7  -4   0    1.59    0.11
  -7  -4   0    1.63    0.08
   7   4   0    1.63    0.08
  -7   5   0    2.72    0.17
   6  -5   0   10.30    0.34
  -6   5   0   10.52    0.37
   5  -5   0    3.96    0.16
  -5   5   0    4.03    0.19
   4  -5   0    6.87    0.23
  -4   5   0    7.07    0.26
  -4   5   0    6.93    0.19
   3  -5   0    0.75    0.06
  -3   5   0    0.86    0.08
  -3   5   0    0.89    0.04
   2  -5   0    0.05    0.03
   2  -5   0    0.09    0.03
   2  -5   0    0.08    0.03
   2  -5   0    0.08    0.01
  -2   5   0    0.08    0.02
  -2   5   0    0.10    0.04
   1  -5   0    0.75    0.05
   1  -5   0    0.84    0.04
   1  -5   0    0.59    0.05
  -1   5   0    0.78    0.07
  -1   5   0    0.74    0.04
   0  -5   0    4.92    0.17
   0  -5   0    5.13    0.14
   0  -5   0    5.16    0.17
   0   5   0    5.13    0.16
   0   5   0    5.20    0.14
  -1  -5   0    7.70    0.21
  -1  -5   0    7.67    0.23
  -1  -5   0    7.48    0.23
   1   5   0    7.48    0.22
  -2  -5   0    0.66    0.06
  -2  -5   0    0.70    0.06
  -2  -5   0    0.61    0.05
   2   5   0    0.75    0.05
  -3  -5   0   34.02    0.87
  -3  -5   0   33.96    0.90
  -3  -5   0   32.99    0.80
   3   5   0   34.31    0.85
  -4  -5   0    1.92    0.11
  -4  -5   0    2.03    0.11
  -4  -5   0    1.81    0.09
  -4  -5   0    1.86    0.06
   4   5   0    1.84    0.08
  -5  -5   0    7.78    0.25
  -5  -5   0    8.30    0.29
  -5  -5   0    7.92    0.27
   5   5   0    7.94    0.23
  -6  -5   0    2.61    0.15
  -6  -5   0    2.52    0.13
  -6  -5   0    2.58    0.14
   6   5   0    2.38    0.11
  -7   6   0    0.24    0.07
  -6   6   0    0.29    0.07
   5  -6   0    1.27    0.09
  -5   6   0    1.09    0.10
   4  -6   0    6.56    0.22
  -4   6   0    6.15    0.25
   3  -6   0   13.75    0.39
  -3   6   0   13.43    0.42
   2  -6   0   21.55    0.58
   2  -6   0   21.24    0.57
  -2   6   0   21.35    0.60
   1  -6   0    0.04    0.03
   1  -6   0    0.06    0.03
   1  -6   0    0.10    0.02
  -1   6   0    0.06    0.02
  -1   6   0    0.01    0.04
   0  -6   0    5.54    0.19
   0  -6   0    5.66    0.16
   0  -6   0    5.58    0.19
   0   6   0    5.60    0.16
   0   6   0    5.70    0.18
  -1  -6   0    1.90    0.10
  -1  -6   0    1.85    0.10
   1   6   0    1.96    0.07
   1   6   0    2.11    0.09
  -2  -6   0    6.66    0.22
  -2  -6   0    6.47    0.22
  -2  -6   0    6.48    0.20
   2   6   0    6.69    0.20
   2   6   0    6.68    0.19
  -3  -6   0    3.77    0.16
  -3  -6   0    3.59    0.14
  -3  -6   0    3.77    0.15
   3   6   0    3.91    0.13
  -4  -6   0   -0.09    0.03
  -4  -6   0   -0.05    0.03
  -4  -6   0   -0.01    0.04
   4   6   0    0.02    0.02
  -5  -6   0    0.87    0.08
  -5  -6   0    0.93    0.09
  -5  -6   0    0.96    0.09
   5   6   0    0.97    0.07
  -6  -6   0    9.23    0.30
  -6  -6   0    9.32    0.32
  -6   7   0    0.12    0.06
  -5   7   0   -0.01    0.05
   4  -7   0    1.10    0.08
  -4   7   0    1.16    0.11
   3  -7   0   13.03    0.38
  -3   7   0   12.67    0.42
   2  -7   0    3.96    0.16
   2  -7   0    3.57    0.14
  -2   7   0    3.80    0.18
   1  -7   0    5.61    0.20
   1  -7   0    5.57    0.19
  -1   7   0    5.42    0.22
  -1   7   0    5.57    0.19
   0  -7   0    2.32    0.11
   0  -7   0    2.19    0.11
   0  -7   0    2.32    0.09
   0   7   0    2.40    0.11
  -1  -7   0    1.45    0.08
  -1  -7   0    1.40    0.09
  -1  -7   0    1.42    0.09
   1   7   0    1.49    0.07
   1   7   0    1.47    0.08
  -2  -7   0    3.71    0.16
  -2  -7   0    3.84    0.15
  -2  -7   0    4.01    0.14
   2   7   0    3.59    0.13
  -3  -7   0    1.13    0.09
  -3  -7   0    1.09    0.08
  -3  -7   0    1.14    0.08
   3   7   0    1.14    0.07
  -4  -7   0    1.26    0.10
  -4  -7   0    1.13    0.09
   4   7   0    1.24    0.07
  -5  -7   0   -0.09    0.05
  -5  -7   0   -0.02    0.05
   5   7   0    0.01    0.03
  -5   8   0    0.20    0.08
  -4   8   0    0.37    0.08
  -3   8   0    0.01    0.05
   2  -8   0    0.14    0.05
  -2   8   0    0.22    0.05
  -2   8   0    0.20    0.06
   1  -8   0   -0.02    0.04
   1  -8   0    0.07    0.04
  -1   8   0    0.10    0.04
  -1   8   0    0.08    0.06
   0  -8   0    9.75    0.32
   0  -8   0    9.88    0.32
   0   8   0   10.78    0.32
  -1  -8   0    2.20    0.12
  -2  -8   0    4.57    0.18
  -2  -8   0    4.52    0.16
   2   8   0    4.39    0.15
  -3  -8   0    0.31    0.06
  -3  -8   0    0.29    0.06
   3   8   0    0.37    0.05
  -4  -8   0    0.06    0.05
  -4  -8   0    0.01    0.05
   4   8   0    0.06    0.03
  -3   9   0    1.02    0.12
  -3   9   0    1.24    0.10
  -2   9   0    0.17    0.05
  -2   9   0    0.19    0.07
   1  -9   0    0.05    0.05
  -1   9   0   -0.01    0.06
   0  -9   0   -0.03    0.04
   0   9   0    0.04    0.06
  -1  -9   0    0.09    0.05
  -2  -9   0    0.08    0.05
   2   9  -1    0.40    0.05
  -2  -9   1    0.45    0.07
  -1  -9   1    0.11    0.05
   0   9  -1    1.24    0.12
   0  -9   1    1.32    0.10
  -1   9  -1    0.39    0.08
  -1   9  -1    0.43    0.06
   1  -9   1    0.42    0.07
  -2   9  -1    2.00    0.12
  -2   9  -1    2.05    0.15
  -3   9  -1    0.01    0.06
   4   8  -1    0.03    0.03
  -4  -8   1    0.03    0.05
  -4  -8   1    0.01    0.05
   3   8  -1   -0.02    0.03
  -3  -8   1   -0.03    0.04
  -3  -8   1   -0.02    0.04
   2   8  -1    0.22    0.04
  -2  -8   1    0.15    0.04
  -2  -8   1    0.18    0.05
   1   8  -1    0.17    0.03
  -1  -8   1    0.13    0.05
  -1  -8   1    0.21    0.05
   0   8  -1    2.41    0.15
   0   8  -1    2.33    0.12
   0  -8   1    2.35    0.12
   0  -8   1    2.42    0.12
  -1   8  -1    0.67    0.07
  -1   8  -1    0.83    0.09
   1  -8   1    0.59    0.07
   1  -8   1    0.72    0.07
  -2   8  -1    1.57    0.13
  -2   8  -1    1.76    0.11
  -3   8  -1    2.04    0.15
  -4   8  -1    0.67    0.10
  -5   8  -1    0.33    0.08
   5   7  -1    4.05    0.16
  -5  -7   1    4.20    0.18
  -5  -7   1    4.35    0.17
   4   7  -1    0.62    0.05
  -4  -7   1    0.57    0.07
  -4  -7   1    0.66    0.07
  -4  -7   1    0.71    0.07
   3   7  -1    2.24    0.10
  -3  -7   1    2.46    0.11
  -3  -7   1    2.48    0.12
  -3  -7   1    2.41    0.13
   2   7  -1    6.30    0.19
  -2  -7   1    6.19    0.19
  -2  -7   1    6.23    0.22
  -2  -7   1    6.26    0.21
   1   7  -1    1.83    0.08
   1   7  -1    1.90    0.10
  -1  -7   1    1.95    0.11
  -1  -7   1    1.82    0.10
  -1  -7   1    1.96    0.09
   0   7  -1    0.33    0.03
   0   7  -1    0.21    0.04
   0  -7   1    0.32    0.05
   0  -7   1    0.29    0.05
  -1   7  -1    0.11    0.04
  -1   7  -1    0.03    0.04
  -1   7  -1    0.01    0.02
   1  -7   1    0.01    0.03
   1  -7   1    0.04    0.03
  -2   7  -1    3.26    0.17
   2  -7   1    3.19    0.14
  -3   7  -1    3.39    0.17
   3  -7   1    3.21    0.14
  -4   7  -1    3.06    0.18
   4  -7   1    3.15    0.15
  -5   7  -1    1.52    0.13
  -6   7  -1    0.31    0.08
   6   6  -1    0.36    0.05
  -6  -6   1    0.29    0.06
  -6  -6   1    0.26    0.06
   5   6  -1    0.22    0.04
  -5  -6   1    0.29    0.06
  -5  -6   1    0.31    0.06
  -5  -6   1    0.22    0.05
   4   6  -1    0.02    0.02
  -4  -6   1    0.07    0.04
  -4  -6   1   -0.02    0.03
  -4  -6   1   -0.03    0.03
   3   6  -1    3.67    0.13
  -3  -6   1    3.70    0.16
  -3  -6   1    3.49    0.14
  -3  -6   1    3.75    0.15
   2   6  -1    3.05    0.11
   2   6  -1    3.03    0.12
  -2  -6   1    3.06    0.13
  -2  -6   1    2.92    0.12
  -2  -6   1    2.84    0.11
   1   6  -1    3.42    0.11
   1   6  -1    3.19    0.12
  -1  -6   1    3.24    0.11
  -1  -6   1    3.26    0.13
  -1  -6   1    3.29    0.13
   0   6  -1    5.20    0.15
   0   6  -1    4.98    0.17
   0  -6   1    4.98    0.14
   0  -6   1    4.83    0.17
   0  -6   1    4.80    0.17
  -1   6  -1    8.36    0.22
  -1   6  -1    7.94    0.25
  -1   6  -1    8.02    0.27
   1  -6   1    8.15    0.25
   1  -6   1    7.84    0.25
  -2   6  -1    2.99    0.10
  -2   6  -1    2.93    0.15
   2  -6   1    2.97    0.13
  -3   6  -1    6.78    0.19
  -3   6  -1    6.58    0.25
   3  -6   1    6.72    0.23
  -4   6  -1    0.67    0.08
   4  -6   1    0.36    0.06
  -5   6  -1   -0.08    0.04
   5  -6   1   -0.06    0.03
  -6   6  -1    1.61    0.13
  -7   6  -1    0.08    0.06
  -7  -5   1    1.75    0.08
  -7  -5   1    1.82    0.12
   6   5  -1    1.44    0.08
  -6  -5   1    1.50    0.10
  -6  -5   1    1.44    0.10
  -6  -5   1    1.42    0.07
  -6  -5   1    1.32    0.11
   5   5  -1    0.36    0.04
  -5  -5   1    0.32    0.03
  -5  -5   1    0.44    0.05
  -5  -5   1    0.40    0.06
  -5  -5   1    0.33    0.05
   4   5  -1    4.46    0.14
  -4  -5   1    4.73    0.18
  -4  -5   1    4.37    0.13
  -4  -5   1    4.61    0.17
  -4  -5   1    4.44    0.16
   3   5  -1   29.11    0.74
   3   5  -1   27.86    0.69
  -3  -5   1   29.68    0.78
  -3  -5   1   28.94    0.69
  -3  -5   1   28.85    0.74
  -3  -5   1   28.48    0.67
   2   5  -1   11.55    0.32
   2   5  -1   11.70    0.30
  -2  -5   1   12.02    0.33
  -2  -5   1   11.37    0.30
  -2  -5   1   11.62    0.34
   1   5  -1    8.05    0.21
   1   5  -1    7.88    0.23
  -1  -5   1    8.21    0.24
  -1  -5   1    7.78    0.25
  -1  -5   1    7.99    0.21
   0   5  -1    6.30    0.19
   0   5  -1    6.27    0.17
   0  -5   1    5.94    0.20
   0  -5   1    6.17    0.19
   0  -5   1    6.64    0.17
  -1   5  -1   55.60    1.41
  -1   5  -1   57.59    1.30
   1  -5   1   56.61    1.25
   1  -5   1   55.13    1.38
   1  -5   1   54.64    1.43
  -2   5  -1    7.57    0.26
  -2   5  -1    7.83    0.20
   2  -5   1    7.52    0.24
   2  -5   1    7.67    0.24
  -3   5  -1    1.94    0.08
  -3   5  -1    2.09    0.12
   3  -5   1    1.94    0.10
  -4   5  -1   -0.01    0.04
  -4   5  -1    0.06    0.02
   4  -5   1    0.02    0.03
  -5   5  -1   10.54    0.28
  -5   5  -1    9.50    0.34
   5  -5   1    9.64    0.32
  -6   5  -1    0.04    0.05
  -6   5  -1    0.00    0.03
   6  -5   1   -0.01    0.04
  -7   5  -1   -0.04    0.03
  -7   5  -1    0.02    0.05
   7   4  -1   13.96    0.38
  -7  -4   1   13.60    0.40
  -7  -4   1   14.16    0.43
  -7  -4   1   14.38    0.38
  -7  -4   1   14.43    0.43
   6   4  -1    2.77    0.11
  -6  -4   1    2.76    0.13
  -6  -4   1    2.69    0.14
  -6  -4   1    2.69    0.13
  -6  -4   1    2.75    0.15
  -6  -4   1    2.55    0.10
   5   4  -1   14.36    0.37
  -5  -4   1   13.69    0.36
  -5  -4   1   14.54    0.43
  -5  -4   1   14.04    0.38
  -5  -4   1   14.25    0.40
  -5  -4   1   14.35    0.41
   4   4  -1    3.23    0.11
   4   4  -1    3.26    0.11
  -4  -4   1    3.08    0.14
  -4  -4   1    3.27    0.13
  -4  -4   1    3.35    0.12
  -4  -4   1    3.22    0.10
   3   4  -1   27.22    0.66
   3   4  -1   28.10    0.70
  -3  -4   1   27.25    0.71
  -3  -4   1   27.72    0.65
  -3  -4   1   27.74    0.74
  -3  -4   1   27.71    0.66
   2   4  -1    2.03    0.08
   2   4  -1    1.94    0.07
  -2  -4   1    2.01    0.09
  -2  -4   1    1.89    0.06
  -2  -4   1    1.95    0.09
  -2  -4   1    1.82    0.08
   1   4  -1   22.02    0.57
   1   4  -1   22.91    0.53
  -1  -4   1   22.45    0.60
  -1  -4   1   22.92    0.53
  -1  -4   1   22.05    0.57
   0   4  -1   29.38    0.75
   0   4  -1   30.18    0.69
   0  -4   1   29.69    0.68
   0  -4   1   29.69    0.74
   0  -4   1   29.18    0.77
  -1   4  -1   60.65    1.38
  -1   4  -1   58.59    1.48
  -1   4  -1   60.43    1.33
   1  -4   1   59.92    1.46
   1  -4   1   59.11    1.52
   1  -4   1   59.78    1.33
  -2   4  -1    3.06    0.09
  -2   4  -1    3.20    0.13
   2  -4   1    3.13    0.12
   2  -4   1    3.12    0.12
  -3   4  -1    1.32    0.06
  -3   4  -1    1.21    0.08
   3  -4   1    1.25    0.07
   3  -4   1    1.42    0.07
  -4   4  -1   46.74    1.21
  -4   4  -1   49.10    1.11
   4  -4   1   45.52    1.23
  -5   4  -1    2.31    0.13
  -5   4  -1    2.26    0.09
   5  -4   1    2.27    0.12
  -6   4  -1    3.74    0.18
  -6   4  -1    3.92    0.14
   6  -4   1    3.59    0.17
  -7   4  -1    1.62    0.13
  -7   4  -1    1.65    0.09
  -8   4  -1    1.09    0.12
  -8   4  -1    1.39    0.12
  -8   4  -1    1.11    0.09
   8   3  -1    0.14    0.03
  -8  -3   1    0.11    0.06
  -8  -3   1    0.17    0.05
   7   3  -1    1.13    0.07
  -7  -3   1    1.28    0.10
  -7  -3   1    1.19    0.10
  -7  -3   1    1.15    0.08
  -7  -3   1    1.32    0.09
   6   3  -1    0.03    0.02
   6   3  -1    0.01    0.05
  -6  -3   1    0.09    0.04
  -6  -3   1    0.03    0.04
  -6  -3   1    0.03    0.04
  -6  -3   1   -0.05    0.03
  -6  -3   1    0.05    0.03
   5   3  -1   31.13    0.76
  -5  -3   1   32.00    0.86
  -5  -3   1   30.49    0.76
  -5  -3   1   31.38    0.76
  -5  -3   1   31.90    0.82
  -5  -3   1   32.85    0.82
   4   3  -1    0.69    0.05
   4   3  -1    0.61    0.04
  -4  -3   1    0.68    0.06
  -4  -3   1    0.75    0.05
  -4  -3   1    0.63    0.04
  -4  -3   1    0.69    0.06
  -4  -3   1    0.63    0.06
   3   3  -1   36.20    0.92
   3   3  -1   36.74    0.86
  -3  -3   1   36.90    0.85
  -3  -3   1   35.82    0.96
  -3  -3   1   38.37    0.92
  -3  -3   1   37.12    0.86
  -3  -3   1   36.40    0.92
   2   3  -1    1.37    0.05
   2   3  -1    1.53    0.07
   2   3  -1    1.38    0.06
  -2  -3   1    1.40    0.05
  -2  -3   1    1.41    0.07
  -2  -3   1    1.48    0.06
  -2  -3   1    1.44    0.06
   1   3  -1  102.10    2.47
   1   3  -1  101.98    2.32
   1   3  -1  102.97    2.54
  -1  -3   1   98.27    2.25
  -1  -3   1  101.51    2.32
  -1  -3   1  100.35    2.53
  -1  -3   1  100.83    2.44
   0   3  -1   36.87    0.91
   0   3  -1   35.44    0.81
   0   3  -1   34.63    0.87
   0  -3   1   35.17    0.87
   0  -3   1   35.02    0.79
   0  -3   1   34.03    0.90
  -1   3  -1   17.73    0.47
  -1   3  -1   17.61    0.40
  -1   3  -1   17.30    0.46
  -1   3  -1   17.50    0.41
   1  -3   1   17.07    0.46
   1  -3   1   17.40    0.45
   1  -3   1   17.51    0.47
   1  -3   1   17.30    0.40
  -2   3  -1    0.04    0.01
  -2   3  -1    0.02    0.02
   2  -3   1    0.07    0.02
   2  -3   1    0.03    0.02
  -3   3  -1    6.56    0.17
  -3   3  -1    6.42    0.21
  -3   3  -1    6.33    0.20
   3  -3   1    6.75    0.20
   3  -3   1    6.29    0.21
  -4   3  -1    7.53    0.21
  -4   3  -1    7.67    0.24
  -4   3  -1    7.49    0.18
  -4   3  -1    7.62    0.25
   4  -3   1    7.84    0.24
   4  -3   1    7.29    0.25
  -5   3  -1    0.88    0.06
  -5   3  -1    0.91    0.08
   5  -3   1    0.98    0.08
  -6   3  -1    3.67    0.17
  -6   3  -1    3.59    0.13
   6  -3   1    3.47    0.17
  -7   3  -1    3.21    0.16
  -7   3  -1    2.90    0.17
  -7   3  -1    3.13    0.13
   7  -3   1    3.27    0.17
  -8   3  -1    2.75    0.17
  -8   3  -1    2.98    0.16
  -8   3  -1    2.85    0.14
   8   2  -1   -0.01    0.02
  -8  -2   1   -0.02    0.03
  -8  -2   1    0.04    0.04
  -8  -2   1    0.05    0.05
   7   2  -1    3.88    0.20
   7   2  -1    4.29    0.13
  -7  -2   1    4.20    0.17
  -7  -2   1    4.18    0.16
  -7  -2   1    4.06    0.15
  -7  -2   1    3.86    0.18
   6   2  -1   10.71    0.36
   6   2  -1   10.14    0.27
  -6  -2   1   10.65    0.30
  -6  -2   1   10.76    0.32
  -6  -2   1   10.57    0.33
  -6  -2   1   10.50    0.29
   5   2  -1    0.18    0.02
  -5  -2   1    0.23    0.04
  -5  -2   1    0.19    0.04
  -5  -2   1    0.19    0.04
  -5  -2   1    0.20    0.03
  -5  -2   1    0.23    0.03
   4   2  -1    1.54    0.06
  -4  -2   1    1.62    0.07
  -4  -2   1    1.65    0.08
  -4  -2   1    1.61    0.08
  -4  -2   1    1.56    0.07
  -4  -2   1    1.58    0.08
   3   2  -1    0.94    0.06
   3   2  -1    0.77    0.04
   3   2  -1    0.67    0.04
  -3  -2   1    0.82    0.05
  -3  -2   1    0.80    0.05
  -3  -2   1    0.89    0.04
  -3  -2   1    0.86    0.05
  -3  -2   1    0.62    0.05
   2   2  -1   53.28    1.22
   2   2  -1   52.59    1.30
  -2  -2   1   53.49    1.29
  -2  -2   1   53.51    1.29
  -2  -2   1   53.98    1.19
  -2  -2   1   52.16    1.22
  -2  -2   1   50.73    1.34
   1   2  -1  177.59    4.10
   1   2  -1  180.93    4.34
  -1  -2   1  173.46    4.35
  -1  -2   1  189.16    4.09
  -1  -2   1  171.43    3.99
  -1  -2   1  177.55    4.32
  -1  -2   1  172.08    4.49
   0   2  -1  420.37    9.38
   0   2  -1  413.58    9.66
   0   2  -1  433.02   10.30
   0   2  -1  430.19   10.59
   0  -2   1  429.92   10.18
   0  -2   1  398.86    9.39
   0  -2   1  423.47   10.58
  -1   2  -1  209.73    4.92
  -1   2  -1  211.34    5.29
  -1   2  -1  211.84    5.10
  -1   2  -1  214.44    4.86
   1  -2   1  207.70    4.94
   1  -2   1  220.17    4.86
   1  -2   1  201.59    5.27
   1  -2   1  206.79    5.27
   1  -2   1  213.89    4.95
  -2   2  -1  250.10    5.94
  -2   2  -1  230.27    5.43
  -2   2  -1  231.55    6.01
  -2   2  -1  234.06    5.81
  -2   2  -1  249.74    5.49
   2  -2   1  235.94    6.03
   2  -2   1  245.51    5.48
   2  -2   1  236.46    5.42
   2  -2   1  233.89    5.96
  -3   2  -1    0.13    0.03
  -3   2  -1    0.15    0.02
  -3   2  -1    0.16    0.03
   3  -2   1    0.19    0.03
   3  -2   1    0.14    0.01
   3  -2   1    0.14    0.01
  -4   2  -1    0.00    0.01
  -4   2  -1    0.03    0.03
  -4   2  -1    0.01    0.01
  -4   2  -1    0.01    0.02
   4  -2   1    0.02    0.01
   4  -2   1   -0.03    0.02
   4  -2   1    0.02    0.02
  -5   2  -1    7.76    0.22
  -5   2  -1    7.65    0.20
  -5   2  -1    8.16    0.26
  -5   2  -1    7.66    0.26
   5  -2   1    7.89    0.27
   5  -2   1    7.46    0.19
  -6   2  -1    1.92    0.12
  -6   2  -1    2.01    0.09
  -6   2  -1    2.13    0.11
   6  -2   1    2.12    0.13
  -7   2  -1    1.20    0.08
  -7   2  -1    1.25    0.10
  -7   2  -1    0.97    0.10
   7  -2   1    1.14    0.11
  -8   2  -1    1.03    0.11
  -8   2  -1    1.06    0.09
   8   1  -1    2.39    0.16
  -8  -1   1    2.32    0.13
  -8  -1   1    2.15    0.14
  -8  -1   1    2.30    0.12
  -8  -1   1    2.23    0.12
   7   1  -1    2.55    0.15
   7   1  -1    2.63    0.09
  -7  -1   1    2.66    0.12
  -7  -1   1    2.60    0.14
  -7  -1   1    2.66    0.13
  -7  -1   1    2.72    0.12
   6   1  -1   11.71    0.38
   6   1  -1   12.18    0.30
  -6  -1   1   12.05    0.32
  -6  -1   1   12.61    0.36
  -6  -1   1   11.38    0.32
  -6  -1   1   12.00    0.36
   5   1  -1    0.90    0.04
   5   1  -1    0.84    0.07
  -5  -1   1    0.95    0.07
  -5  -1   1    0.85    0.05
  -5  -1   1    0.89    0.07
  -5  -1   1    0.99    0.06
  -5  -1   1    0.86    0.07
   4   1  -1    3.39    0.13
   4   1  -1    3.48    0.10
   4   1  -1    3.54    0.13
  -4  -1   1    3.43    0.11
  -4  -1   1    3.36    0.11
  -4  -1   1    3.46    0.12
  -4  -1   1    3.41    0.13
  -4  -1   1    3.28    0.13
   3   1  -1    7.00    0.17
   3   1  -1    6.70    0.21
  -3  -1   1    7.06    0.18
  -3  -1   1    6.75    0.21
  -3  -1   1    6.90    0.20
  -3  -1   1    6.92    0.20
  -3  -1   1    6.95    0.18
   2   1  -1    1.96    0.07
   2   1  -1    2.02    0.07
   2   1  -1    1.96    0.06
  -2  -1   1    2.11    0.07
  -2  -1   1    1.97    0.06
  -2  -1   1    1.91    0.06
  -2  -1   1    1.92    0.07
  -2  -1   1    2.03    0.07
   1   1  -1  107.31    2.57
   1   1  -1  107.43    2.83
   1   1  -1  107.59    2.48
   1   1  -1  115.65    2.57
   1   1  -1  112.03    2.73
  -1  -1   1  114.57    2.71
  -1  -1   1  115.04    2.58
  -1  -1   1  103.22    2.81
  -1  -1   1  113.02    2.73
  -1  -1   1  115.96    2.69
  -1  -1   1  113.32    2.57
   0   1  -1   22.26    0.53
   0   1  -1   22.90    0.51
   0   1  -1   22.15    0.56
   0   1  -1   23.10    0.52
   0  -1   1   22.42    0.56
   0  -1   1   22.59    0.52
   0  -1   1   23.92    0.52
   0  -1   1   22.72    0.52
   0  -1   1   21.55    0.58
   0  -1   1   22.57    0.56
  -1   1  -1  256.99    5.71
  -1   1  -1  249.46    6.01
  -1   1  -1  253.27    6.26
  -1   1  -1  234.11    6.21
  -1   1  -1  238.51    5.64
   1  -1   1  250.91    6.24
   1  -1   1  238.84    5.61
   1  -1   1  239.63    6.24
   1  -1   1  263.88    5.70
  -2   1  -1   13.75    0.33
  -2   1  -1   13.85    0.38
  -2   1  -1   14.49    0.39
  -2   1  -1   14.40    0.34
  -2   1  -1   14.29    0.38
   2  -1   1   14.98    0.34
   2  -1   1   14.73    0.33
   2  -1   1   14.17    0.38
   2  -1   1   13.79    0.39
  -3   1  -1   81.07    2.10
  -3   1  -1   90.82    2.11
  -3   1  -1   80.45    1.86
  -3   1  -1   82.55    2.04
  -3   1  -1   82.97    1.92
   3  -1   1   81.28    2.11
   3  -1   1   84.78    2.10
  -4   1  -1   19.02    0.47
  -4   1  -1   19.05    0.52
  -4   1  -1   19.21    0.50
  -4   1  -1   19.39    0.53
  -4   1  -1   18.68    0.45
   4  -1   1   19.95    0.52
   4  -1   1   18.48    0.53
  -5   1  -1    5.52    0.17
  -5   1  -1    5.60    0.16
  -5   1  -1    5.76    0.19
  -5   1  -1    5.69    0.21
  -5   1  -1    5.71    0.20
   5  -1   1    5.67    0.21
  -6   1  -1    5.81    0.23
  -6   1  -1    5.69    0.19
  -6   1  -1    6.06    0.18
  -6   1  -1    6.13    0.21
   6  -1   1    5.92    0.16
   6  -1   1    5.89    0.23
  -7   1  -1   -0.02    0.03
  -7   1  -1   -0.01    0.04
  -7   1  -1    0.03    0.05
   7  -1   1   -0.03    0.05
  -8   1  -1    0.01    0.06
  -8   1  -1    0.01    0.04
   8   0  -1    6.69    0.28
  -8   0   1    6.68    0.25
  -8   0   1    6.75    0.22
  -8   0   1    6.31    0.22
  -8   0   1    6.60    0.26
   7   0  -1    0.60    0.08
  -7   0   1    0.54    0.06
  -7   0   1    0.82    0.08
  -7   0   1    0.62    0.07
  -7   0   1    0.55    0.05
   6   0  -1   67.20    1.76
   6   0  -1   68.09    1.55
  -6   0   1   66.19    1.69
  -6   0   1   65.30    1.58
  -6   0   1   68.17    1.68
  -6   0   1   68.99    1.54
   5   0  -1    4.86    0.13
   5   0  -1    4.62    0.18
  -5   0   1    4.72    0.15
  -5   0   1    4.72    0.14
  -5   0   1    4.65    0.17
  -5   0   1    4.87    0.18
  -5   0   1    4.86    0.17
   4   0  -1   85.32    2.16
   4   0  -1   89.01    1.97
   4   0  -1   84.13    1.96
   4   0  -1   82.63    2.17
  -4   0   1   87.69    2.10
  -4   0   1   84.03    2.16
  -4   0   1   85.75    1.98
  -4   0   1   86.53    1.92
  -4   0   1   86.61    2.10
   3   0  -1    0.32    0.02
   3   0  -1    0.32    0.03
   3   0  -1    0.32    0.02
   3   0  -1    0.33    0.03
  -3   0   1    0.33    0.03
  -3   0   1    0.26    0.03
  -3   0   1    0.31    0.03
  -3   0   1    0.31    0.03
  -3   0   1    0.29    0.03
   2   0  -1  147.53    3.73
   2   0  -1  142.68    3.73
   2   0  -1  150.64    3.43
   2   0  -1  154.68    3.41
  -2   0   1  148.14    3.60
  -2   0   1  148.91    3.58
  -2   0   1  140.61    3.75
  -2   0   1  145.19    3.31
  -2   0   1  150.75    3.42
  -2   0   1  151.99    3.64
   1   0  -1    0.93    0.03
   1   0  -1    0.94    0.03
   1   0  -1    1.01    0.03
  -1   0   1    0.93    0.03
  -1   0   1    0.98    0.03
  -1   0   1    0.92    0.03
  -1   0   1    1.03    0.03
  -1   0   1    0.96    0.03
  -1   0   1    0.93    0.03
  -1   0   1    0.96    0.03
   0   0  -1    0.02    0.00
   0   0  -1    0.02    0.00
   0   0   1    0.01    0.00
   0   0   1    0.01    0.00
   0   0   1    0.01    0.00
  -1   0  -1   22.28    0.58
  -1   0  -1   23.30    0.57
  -1   0  -1   23.20    0.53
  -1   0  -1   22.38    0.52
  -1   0  -1   23.17    0.59
   1   0   1   22.96    0.52
   1   0   1   22.70    0.59
   1   0   1   23.35    0.53
  -2   0  -1    0.16    0.02
  -2   0  -1    0.16    0.02
  -2   0  -1    0.11    0.01
  -2   0  -1    0.19    0.02
  -2   0  -1    0.18    0.02
  -2   0  -1    0.18    0.02
   2   0   1    0.13    0.02
   2   0   1    0.17    0.02
  -3   0  -1   14.79    0.41
  -3   0  -1   15.37    0.37
  -3   0  -1   14.79    0.36
  -3   0  -1   14.95    0.40
   3   0   1   14.46    0.42
   3   0   1   15.00    0.41
  -4   0  -1   22.22    0.56
  -4   0  -1   21.08    0.59
  -4   0  -1   21.81    0.53
  -4   0  -1   21.39    0.52
  -4   0  -1   22.35    0.58
   4   0   1   22.42    0.59
   4   0   1   21.65    0.61
  -5   0  -1   54.36    1.33
  -5   0  -1   56.30    1.47
  -5   0  -1   57.37    1.43
  -5   0  -1   56.97    1.29
  -5   0  -1   58.15    1.41
   5   0   1   57.60    1.49
  -6   0  -1    0.01    0.02
  -6   0  -1    0.02    0.03
  -6   0  -1    0.00    0.04
  -6   0  -1   -0.04    0.03
   6   0   1   -0.06    0.02
   6   0   1   -0.06    0.04
  -7   0  -1   18.34    0.51
  -7   0  -1   18.37    0.55
  -7   0  -1   18.27    0.48
  -7   0  -1   18.15    0.47
   7   0   1   18.26    0.57
   7   0   1   18.23    0.45
  -8   0  -1    0.84    0.10
  -8   0  -1    1.01    0.08
  -8   1   1    0.30    0.05
  -8   1   1    0.31    0.07
  -8   1   1    0.30    0.06
   7  -1  -1    4.94    0.21
  -7   1   1    4.94    0.21
  -7   1   1    5.23    0.20
  -7   1   1    4.90    0.17
  -7   1   1    5.03    0.16
   6  -1  -1    0.01    0.05
  -6   1   1    0.11    0.05
  -6   1   1    0.15    0.04
  -6   1   1    0.09    0.05
  -6   1   1    0.09    0.03
   5  -1  -1   16.69    0.48
  -5   1   1   17.16    0.41
  -5   1   1   16.54    0.42
  -5   1   1   16.64    0.47
  -5   1   1   17.01    0.47
  -5   1   1   17.23    0.47
   4  -1  -1    6.01    0.18
   4  -1  -1    5.64    0.19
  -4   1   1    5.90    0.19
  -4   1   1    5.98    0.16
  -4   1   1    5.78    0.19
  -4   1   1    5.88    0.19
  -4   1   1    5.87    0.16
   3  -1  -1   79.76    1.96
   3  -1  -1   77.02    1.97
  -3   1   1   80.33    1.80
  -3   1   1   77.00    1.91
  -3   1   1   77.84    1.74
  -3   1   1   77.33    1.96
   2  -1  -1  210.21    4.52
   2  -1  -1  192.93    5.06
   2  -1  -1  199.28    5.09
  -2   1   1  188.04    5.08
  -2   1   1  210.25    5.06
  -2   1   1  213.30    4.70
  -2   1   1  192.49    4.53
  -2   1   1  201.14    4.89
  -2   1   1  208.96    4.72
   1  -1  -1    7.97    0.22
   1  -1  -1    8.15    0.19
   1  -1  -1    8.18    0.21
   1  -1  -1    7.89    0.21
  -1   1   1    8.02    0.21
  -1   1   1    7.97    0.19
  -1   1   1    7.86    0.21
  -1   1   1    8.11    0.19
  -1   1   1    8.45    0.22
   0  -1  -1  108.70    2.62
   0  -1  -1  109.86    2.81
   0   1   1  106.74    2.42
   0   1   1  104.40    2.77
  -1  -1  -1    9.93    0.26
  -1  -1  -1   10.21    0.27
  -1  -1  -1   10.08    0.24
  -1  -1  -1   10.16    0.25
  -1  -1  -1    9.81    0.26
  -1  -1  -1    9.54    0.24
   1   1   1   10.02    0.26
  -2  -1  -1   24.02    0.64
  -2  -1  -1   24.57    0.58
  -2  -1  -1   25.56    0.62
  -2  -1  -1   24.80    0.62
  -2  -1  -1   25.47    0.61
   2   1   1   24.38    0.64
  -3  -1  -1   17.63    0.44
  -3  -1  -1   19.32    0.46
  -3  -1  -1   18.39    0.48
  -3  -1  -1   18.04    0.49
  -3  -1  -1   18.26    0.43
   3   1   1   18.04    0.50
   3   1   1   17.86    0.49
  -4  -1  -1    1.83    0.07
  -4  -1  -1    1.83    0.08
  -4  -1  -1    1.84    0.09
  -4  -1  -1    1.76    0.09
   4   1   1    1.70    0.09
   4   1   1    2.11    0.10
  -5  -1  -1   18.96    0.52
  -5  -1  -1   18.68    0.53
  -5  -1  -1   18.19    0.46
  -5  -1  -1   18.50    0.46
   5   1   1   18.09    0.54
  -6  -1  -1    7.63    0.24
  -6  -1  -1    8.06    0.23
  -6  -1  -1    7.75    0.23
  -6  -1  -1    7.81    0.27
  -6  -1  -1    7.58    0.27
   6   1   1    7.84    0.29
  -7  -1  -1   20.71    0.60
  -7  -1  -1   21.24    0.53
  -7  -1  -1   20.75    0.54
   7   1   1   20.42    0.64
   7   1   1   20.57    0.51
  -8  -1  -1    2.39    0.15
  -8  -1  -1    2.54    0.12
  -8  -1  -1    2.53    0.13
   8   1   1    2.58    0.10
  -8   2   1    1.28    0.11
  -8   2   1    1.27    0.09
  -8   2   1    1.34    0.12
   7  -2  -1    0.47    0.07
  -7   2   1    0.51    0.05
  -7   2   1    0.49    0.07
  -7   2   1    0.49    0.07
   6  -2  -1    8.15    0.29
  -6   2   1    8.43    0.29
  -6   2   1    8.36    0.24
  -6   2   1    8.59    0.28
  -6   2   1    8.45    0.22
   5  -2  -1    8.37    0.27
  -5   2   1    8.28    0.27
  -5   2   1    8.48    0.27
  -5   2   1    8.53    0.27
  -5   2   1    8.71    0.22
  -5   2   1    8.39    0.23
   4  -2  -1    1.98    0.09
   4  -2  -1    2.11    0.09
  -4   2   1    2.11    0.07
  -4   2   1    1.92    0.10
  -4   2   1    2.06    0.09
  -4   2   1    2.04    0.07
   3  -2  -1   10.38    0.30
   3  -2  -1   10.97    0.25
   3  -2  -1   10.44    0.29
  -3   2   1   11.04    0.25
  -3   2   1   10.00    0.30
  -3   2   1   10.50    0.25
  -3   2   1   10.01    0.29
   2  -2  -1    0.37    0.02
   2  -2  -1    0.33    0.03
  -2   2   1    0.34    0.03
  -2   2   1    0.39    0.04
  -2   2   1    0.36    0.02
  -2   2   1    0.35    0.02
  -2   2   1    0.40    0.03
   1  -2  -1   32.39    0.74
   1  -2  -1   33.01    0.83
   1  -2  -1   33.07    0.81
   1  -2  -1   31.30    0.83
  -1   2   1   33.81    0.83
  -1   2   1   33.33    0.74
   0  -2  -1  109.50    2.79
   0  -2  -1  111.79    2.64
   0  -2  -1  108.24    2.48
   0   2   1  109.24    2.77
  -1  -2  -1  301.89    7.97
  -1  -2  -1  297.10    7.12
  -1  -2  -1  330.96    7.72
   1   2   1  341.01    7.88
   1   2   1  320.90    8.01
  -2  -2  -1    8.11    0.19
  -2  -2  -1    7.80    0.20
  -2  -2  -1    8.18    0.20
  -2  -2  -1    7.96    0.22
  -2  -2  -1    7.82    0.23
   2   2   1    7.49    0.20
   2   2   1    7.91    0.23
  -3  -2  -1   69.47    1.56
  -3  -2  -1   67.86    1.75
  -3  -2  -1   67.87    1.59
  -3  -2  -1   72.55    1.69
  -3  -2  -1   68.12    1.70
  -4  -2  -1   16.20    0.40
  -4  -2  -1   15.44    0.45
  -4  -2  -1   16.08    0.39
  -4  -2  -1   16.03    0.44
   4   2   1   15.59    0.46
  -5  -2  -1    1.36    0.09
  -5  -2  -1    1.29    0.07
  -5  -2  -1    1.36    0.09
  -5  -2  -1    1.39    0.08
   5   2   1    1.40    0.10
  -6  -2  -1    0.34    0.06
  -6  -2  -1    0.22    0.04
  -6  -2  -1    0.37    0.06
  -6  -2  -1    0.31    0.04
   6   2   1    0.27    0.06
  -7  -2  -1    0.23    0.06
  -7  -2  -1    0.20    0.04
  -7  -2  -1    0.18    0.05
   7   2   1    0.17    0.03
  -8  -2  -1    0.50    0.07
  -8  -2  -1    0.72    0.09
   8   2   1    0.67    0.05
  -8   3   1    4.65    0.21
  -8   3   1    4.24    0.17
  -8   3   1    3.99    0.21
   7  -3  -1    7.20    0.27
  -7   3   1    7.26    0.27
  -7   3   1    6.89    0.22
  -7   3   1    6.65    0.27
   6  -3  -1   20.54    0.60
  -6   3   1   21.38    0.53
  -6   3   1   20.83    0.60
  -6   3   1   21.44    0.60
   5  -3  -1    1.59    0.09
  -5   3   1    1.87    0.11
  -5   3   1    1.63    0.06
  -5   3   1    1.68    0.07
   4  -3  -1    0.02    0.01
   4  -3  -1    0.09    0.02
   4  -3  -1    0.03    0.02
  -4   3   1    0.07    0.01
  -4   3   1    0.04    0.01
  -4   3   1    0.08    0.02
  -4   3   1   -0.02    0.02
  -4   3   1    0.02    0.02
   3  -3  -1   20.03    0.55
   3  -3  -1   20.22    0.54
  -3   3   1   20.60    0.55
  -3   3   1   20.88    0.47
  -3   3   1   20.81    0.47
  -3   3   1   20.31    0.55
  -3   3   1   21.54    0.48
   2  -3  -1   56.88    1.40
   2  -3  -1   55.86    1.44
   2  -3  -1   58.55    1.44
  -2   3   1   56.96    1.29
  -2   3   1   58.62    1.29
  -2   3   1   55.96    1.41
   1  -3  -1    0.37    0.03
   1  -3  -1    0.36    0.02
   1  -3  -1    0.30    0.02
   1  -3  -1    0.31    0.03
  -1   3   1    0.34    0.02
   0  -3  -1  110.39    3.18
   0  -3  -1  131.52    2.76
   0  -3  -1  129.17    2.99
  -1  -3  -1    6.99    0.20
  -1  -3  -1    7.32    0.18
  -1  -3  -1    6.85    0.20
   1   3   1    7.19    0.19
  -2  -3  -1   10.64    0.30
  -2  -3  -1   10.44    0.29
  -2  -3  -1   10.65    0.25
  -2  -3  -1   10.61    0.27
   2   3   1   10.57    0.27
  -3  -3  -1   16.79    0.47
  -3  -3  -1   17.01    0.42
  -3  -3  -1   17.12    0.41
  -3  -3  -1   17.39    0.46
  -3  -3  -1   17.90    0.43
   3   3   1   16.02    0.43
  -4  -3  -1    6.69    0.21
  -4  -3  -1    6.77    0.20
  -4  -3  -1    5.62    0.19
  -4  -3  -1    6.79    0.22
  -4  -3  -1    6.76    0.18
  -5  -3  -1    1.06    0.06
  -5  -3  -1    1.09    0.08
  -5  -3  -1    1.14    0.07
  -5  -3  -1    0.90    0.08
  -6  -3  -1   -0.02    0.03
  -6  -3  -1   -0.03    0.04
  -6  -3  -1    0.04    0.04
  -6  -3  -1    0.01    0.02
   6   3   1   -0.01    0.02
  -7  -3  -1    2.23    0.10
  -7  -3  -1    2.27    0.13
  -7  -3  -1    2.57    0.15
   7   3   1    2.30    0.10
  -8   4   1    0.38    0.08
  -8   4   1    0.44    0.08
  -7   4   1    2.59    0.15
  -7   4   1    2.35    0.15
   6  -4  -1    0.71    0.07
  -6   4   1    0.59    0.08
   5  -4  -1   27.58    0.74
  -5   4   1   26.93    0.75
   4  -4  -1    1.41    0.08
   4  -4  -1    1.53    0.07
  -4   4   1    1.46    0.10
  -4   4   1    1.52    0.06
   3  -4  -1  104.37    2.56
   3  -4  -1  100.86    2.57
  -3   4   1   97.68    2.51
  -3   4   1  106.39    2.34
   2  -4  -1    1.13    0.06
   2  -4  -1    1.11    0.04
   2  -4  -1    1.08    0.06
   2  -4  -1    1.08    0.06
  -2   4   1    1.32    0.04
  -2   4   1    1.16    0.07
   1  -4  -1   39.65    0.97
   1  -4  -1   38.35    1.00
   1  -4  -1   39.54    0.88
   0  -4  -1   78.97    1.94
   0  -4  -1   79.28    2.00
   0  -4  -1   80.35    1.78
  -1  -4  -1   67.77    1.66
  -1  -4  -1   65.71    1.71
  -1  -4  -1   67.44    1.52
   1   4   1   69.83    1.66
  -2  -4  -1   20.24    0.49
  -2  -4  -1   20.03    0.53
  -2  -4  -1   19.98    0.55
   2   4   1   20.37    0.51
  -3  -4  -1    1.27    0.08
  -3  -4  -1    1.02    0.07
  -3  -4  -1    1.23    0.07
   3   4   1    1.21    0.05
  -4  -4  -1   18.25    0.52
  -4  -4  -1   18.30    0.47
  -4  -4  -1   18.53    0.51
  -4  -4  -1   18.36    0.44
  -5  -4  -1    0.00    0.04
  -5  -4  -1    0.00    0.02
  -5  -4  -1    0.02    0.03
  -5  -4  -1    0.03    0.03
  -6  -4  -1   13.04    0.41
  -6  -4  -1   12.48    0.36
  -6  -4  -1   12.49    0.39
  -6  -4  -1   12.75    0.32
   6   4   1   12.62    0.34
  -7  -4  -1    0.45    0.07
  -7  -4  -1    0.43    0.07
   7   4   1    0.35    0.05
  -7   5   1    1.42    0.12
   6  -5  -1    1.86    0.11
  -6   5   1    1.67    0.12
   5  -5  -1    0.03    0.03
  -5   5   1    0.02    0.04
   4  -5  -1    2.53    0.11
  -4   5   1    2.81    0.14
   3  -5  -1    3.96    0.14
   3  -5  -1    4.23    0.14
  -3   5   1    4.09    0.17
   2  -5  -1    1.57    0.07
   2  -5  -1    1.59    0.08
   2  -5  -1    1.51    0.07
   2  -5  -1    1.59    0.05
  -2   5   1    1.66    0.05
  -2   5   1    1.50    0.09
   1  -5  -1   39.32    1.00
   1  -5  -1   40.99    0.90
   1  -5  -1   39.19    1.02
   0  -5  -1    5.50    0.15
   0  -5  -1    5.28    0.17
   0  -5  -1    5.17    0.17
   0   5   1    5.42    0.16
  -1  -5  -1   43.94    1.00
  -1  -5  -1   42.30    1.12
  -1  -5  -1   44.97    1.10
   1   5   1   43.33    1.08
  -2  -5  -1    0.13    0.03
  -2  -5  -1    0.08    0.04
  -2  -5  -1    0.13    0.03
   2   5   1    0.14    0.02
  -3  -5  -1    3.30    0.14
  -3  -5  -1    3.27    0.14
  -3  -5  -1    3.23    0.13
  -4  -5  -1    2.98    0.14
  -4  -5  -1    2.87    0.12
  -4  -5  -1    2.81    0.13
  -5  -5  -1    4.42    0.18
  -5  -5  -1    4.69    0.19
  -5  -5  -1    4.40    0.17
   5   5   1    4.45    0.15
  -6  -5  -1    4.61    0.20
  -6  -5  -1    4.76    0.19
  -6  -5  -1    4.53    0.20
   6   5   1    4.38    0.16
  -7   6   1    0.30    0.08
  -6   6   1    0.08    0.06
   5  -6  -1    0.37    0.05
  -5   6   1    0.29    0.06
   4  -6  -1    0.03    0.03
  -4   6   1   -0.06    0.04
   3  -6  -1    1.01    0.07
  -3   6   1    1.04    0.10
   2  -6  -1    3.09    0.12
   2  -6  -1    3.26    0.13
  -2   6   1    2.94    0.15
   1  -6  -1    1.64    0.07
   1  -6  -1    1.54    0.09
   1  -6  -1    1.55    0.08
   0  -6  -1    5.59    0.18
   0  -6  -1    5.21    0.16
   0  -6  -1    5.04    0.17
   0   6   1    5.39    0.17
  -1  -6  -1   11.30    0.34
  -1  -6  -1   11.85    0.34
  -1  -6  -1   11.88    0.31
   1   6   1   11.86    0.32
  -2  -6  -1   48.19    1.13
  -2  -6  -1   48.84    1.27
  -2  -6  -1   49.65    1.24
  -3  -6  -1   22.59    0.57
  -3  -6  -1   22.95    0.64
  -3  -6  -1   22.94    0.62
  -4  -6  -1    0.44    0.06
  -4  -6  -1    0.50    0.06
  -4  -6  -1    0.41    0.06
   4   6   1    0.38    0.04
  -5  -6  -1    0.09    0.04
  -5  -6  -1    0.09    0.05
   5   6   1    0.03    0.03
  -6  -6  -1    2.78    0.15
  -6   7   1    2.81    0.18
  -5   7   1    0.95    0.10
   4  -7  -1    0.02    0.03
  -4   7   1   -0.03    0.05
   3  -7  -1   12.97    0.37
  -3   7   1   13.08    0.43
   2  -7  -1   -0.01    0.03
   2  -7  -1   -0.03    0.03
  -2   7   1    0.00    0.04
   1  -7  -1    1.75    0.10
   1  -7  -1    1.79    0.09
  -1   7   1    1.75    0.09
   0  -7  -1    0.96    0.07
   0  -7  -1    0.91    0.06
   0  -7  -1    0.99    0.08
   0   7   1    0.95    0.07
  -1  -7  -1    2.40    0.11
  -1  -7  -1    2.41    0.12
  -1  -7  -1    2.47    0.10
  -2  -7  -1    0.06    0.04
  -2  -7  -1    0.05    0.04
  -2  -7  -1    0.03    0.04
   2   7   1   -0.02    0.02
  -3  -7  -1    5.13    0.18
  -3  -7  -1    4.88    0.20
  -3  -7  -1    4.82    0.19
   3   7   1    5.02    0.16
  -4  -7  -1    1.10    0.09
  -4  -7  -1    0.99    0.08
   4   7   1    1.18    0.07
  -5  -7  -1    0.52    0.08
  -5  -7  -1    0.47    0.07
   5   7   1    0.62    0.06
  -5   8   1   -0.09    0.05
  -4   8   1    1.80    0.14
  -3   8   1   -0.07    0.04
   2  -8  -1    2.72    0.12
   2  -8  -1    2.45    0.13
  -2   8   1    2.47    0.15
   1  -8  -1    0.48    0.05
   1  -8  -1    0.48    0.07
  -1   8   1    0.49    0.08
  -1   8   1    0.46    0.06
   0  -8  -1    5.97    0.22
   0  -8  -1    6.43    0.21
  -1  -8  -1    0.66    0.07
  -2  -8  -1    0.08    0.05
  -2  -8  -1    0.14    0.05
  -3  -8  -1    0.40    0.07
  -3  -8  -1    0.67    0.08
   3   8   1    0.49    0.05
  -3   9   1    0.37    0.08
   2  -9  -1    0.08    0.05
  -2   9   1    0.08    0.06
  -2   9   1    0.10    0.04
   1  -9  -1    0.05    0.05
  -1   9   1   -0.05    0.05
   0  -9  -1    3.32    0.16
  -1  -9  -1    0.09    0.06
   2   9  -2    1.73    0.10
  -2  -9   2    2.07    0.12
   1   9  -2    0.17    0.04
   1   9  -2    0.15    0.07
  -1  -9   2    0.20    0.05
   0   9  -2   -0.05    0.04
   0   9  -2    0.02    0.05
   0  -9   2    0.08    0.05
  -1   9  -2   -0.04    0.04
  -1   9  -2   -0.05    0.05
   1  -9   2    0.01    0.04
  -2   9  -2    0.04    0.05
  -2   9  -2    0.07    0.06
  -3   9  -2    1.30    0.13
   4   8  -2    2.70    0.12
  -4  -8   2    2.93    0.14
  -4  -8   2    2.71    0.13
   3   8  -2    0.95    0.07
  -3  -8   2    1.21    0.09
  -3  -8   2    1.02    0.08
   2   8  -2    0.20    0.04
  -2  -8   2    0.17    0.05
  -2  -8   2    0.15    0.04
   1   8  -2    1.52    0.08
   1   8  -2    1.29    0.09
  -1  -8   2    1.53    0.09
  -1  -8   2    1.41    0.10
   0   8  -2    0.23    0.06
   0   8  -2    0.24    0.04
   0   8  -2    0.24    0.05
   0  -8   2    0.16    0.05
   0  -8   2    0.22    0.05
  -1   8  -2    0.30    0.07
  -1   8  -2    0.28    0.04
  -1   8  -2    0.29    0.05
   1  -8   2    0.32    0.05
   1  -8   2    0.26    0.05
  -2   8  -2    1.87    0.14
  -2   8  -2    1.78    0.11
  -3   8  -2   -0.03    0.04
  -3   8  -2   -0.04    0.04
  -4   8  -2    0.00    0.06
  -5   8  -2    0.43    0.09
   5   7  -2    0.15    0.04
  -5  -7   2    0.13    0.05
  -5  -7   2    0.16    0.05
   4   7  -2   -0.03    0.02
  -4  -7   2   -0.02    0.04
  -4  -7   2   -0.03    0.04
  -4  -7   2    0.01    0.04
   3   7  -2    0.27    0.04
  -3  -7   2    0.27    0.05
  -3  -7   2    0.21    0.04
  -3  -7   2    0.25    0.05
   2   7  -2    0.70    0.06
   2   7  -2    0.53    0.05
  -2  -7   2    0.74    0.06
  -2  -7   2    0.52    0.07
  -2  -7   2    0.65    0.06
   1   7  -2   17.71    0.46
   1   7  -2   18.63    0.50
  -1  -7   2   17.89    0.50
  -1  -7   2   18.16    0.52
  -1  -7   2   18.36    0.45
   0   7  -2    0.26    0.05
   0   7  -2    0.28    0.03
   0   7  -2    0.36    0.06
   0  -7   2    0.28    0.04
   0  -7   2    0.34    0.05
  -1   7  -2    6.89    0.23
  -1   7  -2    6.90    0.20
  -1   7  -2    7.16    0.26
   1  -7   2    6.77    0.24
   1  -7   2    6.79    0.23
  -2   7  -2    1.50    0.09
  -2   7  -2    1.51    0.12
  -2   7  -2    1.70    0.08
   2  -7   2    1.80    0.10
  -3   7  -2    0.37    0.04
  -3   7  -2    0.49    0.07
   3  -7   2    0.45    0.06
  -4   7  -2    1.62    0.13
   4  -7   2    1.62    0.11
  -5   7  -2    2.08    0.15
  -6   7  -2   -0.01    0.05
   6   6  -2    0.51    0.05
  -6  -6   2    0.36    0.07
  -6  -6   2    0.32    0.06
   5   6  -2   19.44    0.51
  -5  -6   2   19.67    0.55
  -5  -6   2   20.19    0.59
  -5  -6   2   20.03    0.52
   4   6  -2   -0.02    0.02
  -4  -6   2   -0.03    0.03
  -4  -6   2    0.05    0.04
  -4  -6   2   -0.01    0.03
  -4  -6   2    0.02    0.02
   3   6  -2    4.55    0.16
   3   6  -2    4.37    0.15
  -3  -6   2    4.54    0.16
  -3  -6   2    4.51    0.16
  -3  -6   2    4.56    0.18
   2   6  -2    0.33    0.04
   2   6  -2    0.26    0.03
  -2  -6   2    0.25    0.04
  -2  -6   2    0.31    0.04
  -2  -6   2    0.33    0.05
   1   6  -2    0.13    0.03
   1   6  -2    0.08    0.02
  -1  -6   2    0.07    0.03
  -1  -6   2    0.07    0.03
  -1  -6   2    0.09    0.03
   0   6  -2    2.14    0.10
   0   6  -2    2.10    0.12
   0   6  -2    2.02    0.08
   0  -6   2    2.20    0.10
   0  -6   2    2.16    0.08
   0  -6   2    2.16    0.10
  -1   6  -2    6.18    0.22
  -1   6  -2    6.26    0.20
  -1   6  -2    5.95    0.17
   1  -6   2    6.00    0.21
   1  -6   2    6.01    0.20
  -2   6  -2   36.74    0.98
  -2   6  -2   37.44    0.89
   2  -6   2   37.22    0.99
  -3   6  -2    3.66    0.18
  -3   6  -2    3.56    0.12
   3  -6   2    3.75    0.16
  -4   6  -2   10.17    0.35
  -4   6  -2   10.48    0.29
   4  -6   2   10.24    0.33
  -5   6  -2    5.54    0.19
  -5   6  -2    5.29    0.24
   5  -6   2    5.58    0.22
  -6   6  -2    2.92    0.13
  -6   6  -2    2.71    0.17
  -7  -5   2    1.96    0.09
  -7  -5   2    1.89    0.13
  -7  -5   2    1.88    0.12
   6   5  -2    0.46    0.05
  -6  -5   2    0.41    0.06
  -6  -5   2    0.46    0.06
  -6  -5   2    0.40    0.04
   5   5  -2   13.15    0.35
  -5  -5   2   13.59    0.37
  -5  -5   2   13.50    0.39
  -5  -5   2   13.16    0.34
  -5  -5   2   13.50    0.42
   4   5  -2   16.43    0.45
   4   5  -2   16.05    0.42
  -4  -5   2   16.40    0.43
  -4  -5   2   16.35    0.41
  -4  -5   2   16.87    0.49
  -4  -5   2   16.79    0.45
   3   5  -2   28.46    0.70
   3   5  -2   29.40    0.75
  -3  -5   2   29.38    0.69
  -3  -5   2   28.47    0.79
  -3  -5   2   28.97    0.70
  -3  -5   2   30.58    0.75
   2   5  -2    0.29    0.03
   2   5  -2    0.26    0.03
  -2  -5   2    0.29    0.04
  -2  -5   2    0.22    0.03
  -2  -5   2    0.23    0.02
  -2  -5   2    0.28    0.03
   1   5  -2    5.25    0.15
   1   5  -2    5.24    0.17
  -1  -5   2    5.41    0.15
  -1  -5   2    5.38    0.17
  -1  -5   2    5.24    0.18
   0   5  -2    2.36    0.10
   0   5  -2    2.48    0.08
   0  -5   2    2.43    0.08
   0  -5   2    2.50    0.11
   0  -5   2    2.39    0.10
  -1   5  -2    8.40    0.22
  -1   5  -2    8.24    0.27
  -1   5  -2    8.57    0.25
   1  -5   2    8.75    0.27
   1  -5   2    8.64    0.25
   1  -5   2    8.65    0.21
  -2   5  -2    5.74    0.21
  -2   5  -2    5.88    0.16
   2  -5   2    5.54    0.20
  -3   5  -2    0.17    0.05
  -3   5  -2    0.16    0.03
   3  -5   2    0.13    0.04
  -4   5  -2    0.83    0.06
  -4   5  -2    0.67    0.07
   4  -5   2    0.70    0.07
  -5   5  -2    1.66    0.08
  -5   5  -2    1.51    0.11
   5  -5   2    1.36    0.10
  -6   5  -2    0.24    0.04
  -6   5  -2    0.19    0.06
   6  -5   2    0.20    0.06
  -7   5  -2    0.04    0.04
  -7   5  -2    0.03    0.06
   7   4  -2    0.21    0.04
  -7  -4   2    0.26    0.06
  -7  -4   2    0.16    0.05
  -7  -4   2    0.17    0.04
  -7  -4   2    0.19    0.06
   6   4  -2    0.70    0.05
  -6  -4   2    0.69    0.07
  -6  -4   2    0.66    0.05
  -6  -4   2    0.73    0.08
  -6  -4   2    0.69    0.07
   5   4  -2   11.71    0.32
   5   4  -2   12.06    0.34
  -5  -4   2   11.92    0.32
  -5  -4   2   12.23    0.36
  -5  -4   2   12.58    0.34
  -5  -4   2   12.19    0.38
  -5  -4   2   12.08    0.35
   4   4  -2    0.29    0.04
   4   4  -2    0.23    0.03
  -4  -4   2    0.24    0.03
  -4  -4   2    0.32    0.05
  -4  -4   2    0.25    0.04
  -4  -4   2    0.37    0.04
  -4  -4   2    0.14    0.04
   3   4  -2    1.24    0.05
   3   4  -2    1.06    0.06
  -3  -4   2    1.13    0.05
  -3  -4   2    1.31    0.08
  -3  -4   2    1.09    0.06
  -3  -4   2    1.01    0.06
   2   4  -2   98.42    2.23
   2   4  -2   99.28    2.38
  -2  -4   2   91.72    2.44
  -2  -4   2   97.58    2.17
  -2  -4   2   97.89    2.35
  -2  -4   2   96.82    2.22
   1   4  -2   25.75    0.65
   1   4  -2   26.05    0.61
  -1  -4   2   25.97    0.65
  -1  -4   2   25.03    0.60
  -1  -4   2   25.70    0.59
  -1  -4   2   25.20    0.68
   0   4  -2   75.22    1.83
   0   4  -2   73.43    1.71
   0  -4   2   75.05    1.81
   0  -4   2   75.79    1.66
   0  -4   2   72.73    1.88
  -1   4  -2   25.19    0.65
  -1   4  -2   24.75    0.59
   1  -4   2   24.59    0.66
   1  -4   2   25.17    0.56
  -2   4  -2   27.77    0.72
  -2   4  -2   28.54    0.66
   2  -4   2   26.81    0.74
   2  -4   2   27.16    0.73
  -3   4  -2    0.99    0.05
  -3   4  -2    1.00    0.08
   3  -4   2    1.05    0.07
   3  -4   2    0.90    0.07
  -4   4  -2    0.25    0.03
  -4   4  -2    0.21    0.05
   4  -4   2    0.24    0.04
  -5   4  -2    4.06    0.19
  -5   4  -2    4.11    0.14
   5  -4   2    4.04    0.18
  -6   4  -2    0.71    0.08
  -6   4  -2    0.78    0.06
   6  -4   2    0.82    0.08
  -7   4  -2    0.94    0.10
  -7   4  -2    1.26    0.09
   8   3  -2    1.02    0.06
  -8  -3   2    0.87    0.09
  -8  -3   2    0.84    0.08
  -8  -3   2    0.86    0.09
   7   3  -2   10.89    0.29
  -7  -3   2   10.92    0.32
  -7  -3   2   11.45    0.35
  -7  -3   2   10.98    0.35
  -7  -3   2   10.68    0.31
   6   3  -2    1.83    0.08
  -6  -3   2    1.77    0.08
  -6  -3   2    1.87    0.10
  -6  -3   2    1.77    0.11
  -6  -3   2    2.01    0.11
   5   3  -2    6.96    0.22
   5   3  -2    7.60    0.21
  -5  -3   2    7.64    0.24
  -5  -3   2    7.29    0.21
  -5  -3   2    7.65    0.26
  -5  -3   2    7.51    0.22
  -5  -3   2    7.74    0.24
   4   3  -2    0.60    0.05
   4   3  -2    0.45    0.04
  -4  -3   2    0.58    0.05
  -4  -3   2    0.62    0.04
  -4  -3   2    0.60    0.05
  -4  -3   2    0.52    0.06
  -4  -3   2    0.52    0.05
   3   3  -2    1.70    0.07
   3   3  -2    1.77    0.07
   3   3  -2    1.96    0.09
  -3  -3   2    1.91    0.08
  -3  -3   2    1.73    0.08
  -3  -3   2    1.82    0.07
  -3  -3   2    2.30    0.09
  -3  -3   2    1.85    0.08
   2   3  -2    0.32    0.02
   2   3  -2    0.32    0.03
  -2  -3   2    0.26    0.02
  -2  -3   2    0.27    0.03
  -2  -3   2    0.28    0.03
  -2  -3   2    0.29    0.02
   1   3  -2   30.16    0.70
   1   3  -2   29.88    0.75
   1   3  -2   30.38    0.79
  -1  -3   2   29.89    0.74
  -1  -3   2   30.33    0.69
  -1  -3   2   30.10    0.70
  -1  -3   2   29.73    0.78
   0   3  -2   19.42    0.46
   0   3  -2   18.47    0.50
   0   3  -2   19.62    0.52
   0   3  -2   19.94    0.50
   0  -3   2   19.84    0.45
   0  -3   2   19.15    0.49
   0  -3   2   19.35    0.44
   0  -3   2   19.12    0.52
  -1   3  -2   52.81    1.34
  -1   3  -2   51.63    1.30
  -1   3  -2   53.39    1.21
  -1   3  -2   54.62    1.17
   1  -3   2   51.28    1.17
   1  -3   2   53.46    1.18
   1  -3   2   54.44    1.21
   1  -3   2   50.41    1.34
   1  -3   2   50.46    1.33
  -2   3  -2  178.20    4.08
  -2   3  -2  175.54    4.30
   2  -3   2  174.48    4.44
   2  -3   2  176.11    4.43
   2  -3   2  184.33    4.06
  -3   3  -2   11.05    0.26
  -3   3  -2   11.39    0.29
  -3   3  -2   11.19    0.33
  -3   3  -2   11.60    0.33
   3  -3   2   11.21    0.26
   3  -3   2   11.50    0.33
   3  -3   2   10.51    0.33
   3  -3   2   11.60    0.27
  -4   3  -2   39.30    0.87
  -4   3  -2   38.18    1.01
  -4   3  -2   38.91    0.92
  -4   3  -2   39.83    1.02
   4  -3   2   37.41    1.03
  -5   3  -2    0.02    0.04
  -5   3  -2   -0.02    0.02
   5  -3   2    0.02    0.04
  -6   3  -2    2.25    0.10
  -6   3  -2    2.23    0.14
   6  -3   2    2.36    0.14
  -7   3  -2    0.61    0.06
  -7   3  -2    0.75    0.08
  -7   3  -2    0.54    0.08
   7  -3   2    0.55    0.08
  -8   3  -2    1.05    0.11
   8   2  -2    1.60    0.13
  -8  -2   2    1.44    0.09
  -8  -2   2    1.57    0.11
  -8  -2   2    1.61    0.11
  -8  -2   2    1.59    0.10
   7   2  -2    5.21    0.23
   7   2  -2    5.28    0.15
  -7  -2   2    5.13    0.20
  -7  -2   2    5.47    0.21
  -7  -2   2    5.46    0.18
  -7  -2   2    5.13    0.18
   6   2  -2   40.70    0.96
   6   2  -2   41.59    1.11
  -6  -2   2   40.84    1.05
  -6  -2   2   39.57    0.98
  -6  -2   2   41.39    0.97
  -6  -2   2   40.83    1.05
   5   2  -2   10.43    0.27
  -5  -2   2   10.68    0.33
  -5  -2   2   10.28    0.31
  -5  -2   2   10.56    0.31
  -5  -2   2   10.64    0.28
  -5  -2   2   10.39    0.28
   4   2  -2   19.04    0.46
   4   2  -2   19.78    0.52
   4   2  -2   18.67    0.50
  -4  -2   2   18.56    0.52
  -4  -2   2   18.77    0.46
  -4  -2   2   18.51    0.46
  -4  -2   2   18.87    0.50
  -4  -2   2   18.86    0.50
   3   2  -2    0.04    0.02
   3   2  -2    0.05    0.02
  -3  -2   2    0.10    0.02
  -3  -2   2    0.02    0.02
  -3  -2   2    0.02    0.02
  -3  -2   2    0.05    0.02
  -3  -2   2    0.01    0.02
   2   2  -2    6.15    0.19
   2   2  -2    6.15    0.18
   2   2  -2    6.44    0.16
  -2  -2   2    6.22    0.17
  -2  -2   2    6.29    0.18
  -2  -2   2    6.25    0.16
  -2  -2   2    6.17    0.19
  -2  -2   2    6.41    0.16
   1   2  -2   19.05    0.44
   1   2  -2   19.78    0.47
   1   2  -2   15.66    0.49
  -1  -2   2   19.07    0.46
  -1  -2   2   18.71    0.49
  -1  -2   2   19.23    0.44
  -1  -2   2   18.88    0.43
   0   2  -2    0.12    0.02
   0   2  -2    0.09    0.02
   0   2  -2    0.12    0.02
   0   2  -2    0.07    0.01
   0   2  -2    0.10    0.01
   0  -2   2    0.14    0.02
   0  -2   2    0.11    0.01
   0  -2   2    0.11    0.01
   0  -2   2    0.16    0.01
   0  -2   2    0.08    0.01
  -1   2  -2    7.75    0.22
  -1   2  -2    7.85    0.19
  -1   2  -2    7.63    0.23
   1  -2   2    7.99    0.18
   1  -2   2    7.86    0.18
   1  -2   2    7.47    0.22
   1  -2   2    7.98    0.19
   1  -2   2    7.54    0.22
  -2   2  -2    5.80    0.19
  -2   2  -2    5.62    0.18
  -2   2  -2    5.80    0.18
  -2   2  -2    5.82    0.15
  -2   2  -2    5.54    0.14
   2  -2   2    5.84    0.15
   2  -2   2    5.69    0.18
   2  -2   2    5.82    0.14
   2  -2   2    5.83    0.18
  -3   2  -2   19.50    0.52
  -3   2  -2   19.26    0.44
  -3   2  -2   19.07    0.52
  -3   2  -2   19.75    0.47
   3  -2   2   19.40    0.52
   3  -2   2   18.83    0.53
  -4   2  -2    7.76    0.25
  -4   2  -2    7.64    0.25
  -4   2  -2    7.70    0.20
  -4   2  -2    7.41    0.21
   4  -2   2    8.12    0.24
   4  -2   2    7.31    0.25
  -5   2  -2   25.63    0.65
  -5   2  -2   26.62    0.62
  -5   2  -2   27.01    0.73
  -5   2  -2   27.47    0.73
   5  -2   2   26.20    0.74
  -6   2  -2    0.32    0.06
  -6   2  -2    0.36    0.05
  -6   2  -2    0.39    0.04
   6  -2   2    0.54    0.07
   6  -2   2    0.28    0.03
  -7   2  -2    6.03    0.22
  -7   2  -2    5.71    0.20
  -7   2  -2    5.54    0.24
   7  -2   2    6.08    0.25
  -8   2  -2    3.65    0.20
  -8   2  -2    3.62    0.16
   8   1  -2    1.77    0.14
  -8  -1   2    1.65    0.10
  -8  -1   2    1.80    0.12
  -8  -1   2    1.55    0.12
  -8  -1   2    1.74    0.10
   7   1  -2    5.91    0.25
  -7  -1   2    6.33    0.23
  -7  -1   2    6.40    0.23
  -7  -1   2    6.35    0.20
  -7  -1   2    5.97    0.20
   6   1  -2    0.06    0.02
   6   1  -2    0.04    0.04
  -6  -1   2    0.03    0.03
  -6  -1   2   -0.01    0.03
  -6  -1   2   -0.03    0.03
  -6  -1   2    0.09    0.04
   5   1  -2   25.88    0.73
   5   1  -2   26.73    0.63
  -5  -1   2   26.87    0.69
  -5  -1   2   27.12    0.69
  -5  -1   2   25.94    0.65
  -5  -1   2   26.41    0.72
  -5  -1   2   27.04    0.63
   4   1  -2   49.86    1.16
   4   1  -2   50.69    1.29
  -4  -1   2   50.59    1.15
  -4  -1   2   50.28    1.25
  -4  -1   2   50.48    1.18
  -4  -1   2   50.53    1.25
  -4  -1   2   49.50    1.29
   3   1  -2  246.56    6.08
   3   1  -2  263.91    5.72
   3   1  -2  243.24    6.29
   3   1  -2  249.08    5.74
  -3  -1   2  242.79    5.56
  -3  -1   2  237.28    6.28
  -3  -1   2  256.57    6.07
  -3  -1   2  249.78    6.01
  -3  -1   2  258.37    5.75
   2   1  -2  104.99    2.66
   2   1  -2  104.59    2.46
   2   1  -2  114.49    2.44
   2   1  -2  105.13    2.60
  -2  -1   2  103.88    2.66
  -2  -1   2  108.48    2.57
  -2  -1   2  103.41    2.37
  -2  -1   2  107.91    2.44
  -2  -1   2  106.11    2.57
   1   1  -2   35.34    0.88
   1   1  -2   36.05    0.83
   1   1  -2   34.48    0.91
   1   1  -2   36.45    0.83
  -1  -1   2   34.66    0.91
  -1  -1   2   37.12    0.88
  -1  -1   2   35.57    0.88
  -1  -1   2   34.89    0.80
  -1  -1   2   36.06    0.88
  -1  -1   2   35.87    0.83
  -1  -1   2   37.05    0.82
   0   1  -2   54.26    1.22
   0   1  -2   54.97    1.18
   0   1  -2   54.41    1.21
   0   1  -2   52.85    1.29
   0   1  -2   47.56    1.28
   0  -1   2   53.44    1.22
   0  -1   2   54.64    1.21
   0  -1   2   53.85    1.29
   0  -1   2   52.70    1.18
   0  -1   2   49.02    1.18
  -1   1  -2    0.54    0.03
  -1   1  -2    0.52    0.02
  -1   1  -2    0.47    0.02
  -1   1  -2    0.47    0.03
  -1   1  -2    0.48    0.03
   1  -1   2    0.47    0.03
   1  -1   2    0.47    0.03
   1  -1   2    0.50    0.02
   1  -1   2    0.50    0.02
  -2   1  -2   28.56    0.73
  -2   1  -2   27.79    0.64
  -2   1  -2   28.77    0.66
  -2   1  -2   28.35    0.71
   2  -1   2   27.89    0.74
  -3   1  -2   10.82    0.28
  -3   1  -2   10.68    0.31
  -3   1  -2   10.98    0.31
  -3   1  -2   10.69    0.26
   3  -1   2   11.51    0.31
   3  -1   2   10.58    0.32
  -4   1  -2    8.32    0.26
  -4   1  -2    8.36    0.26
  -4   1  -2    8.51    0.23
  -4   1  -2    8.30    0.22
   4  -1   2    8.40    0.27
   4  -1   2    8.65    0.26
  -5   1  -2   53.64    1.22
  -5   1  -2   52.62    1.26
  -5   1  -2   53.16    1.33
  -5   1  -2   55.19    1.36
  -5   1  -2   53.86    1.39
   5  -1   2   51.54    1.40
  -6   1  -2    4.85    0.20
  -6   1  -2    4.97    0.18
  -6   1  -2    5.06    0.16
  -6   1  -2    4.84    0.17
   6  -1   2    4.91    0.21
  -7   1  -2   10.49    0.37
  -7   1  -2   10.70    0.31
   7  -1   2   10.93    0.28
   7  -1   2   11.16    0.39
  -8   1  -2    0.01    0.04
  -8   1  -2    0.01    0.06
   8   0  -2   12.41    0.42
  -8   0   2   12.24    0.39
  -8   0   2   12.13    0.34
  -8   0   2   11.98    0.35
  -8   0   2   12.05    0.40
   7   0  -2    2.49    0.15
  -7   0   2    2.68    0.12
  -7   0   2    2.82    0.14
  -7   0   2    2.69    0.14
  -7   0   2    2.79    0.11
   6   0  -2    0.68    0.07
  -6   0   2    0.78    0.06
  -6   0   2    0.71    0.07
  -6   0   2    0.59    0.07
  -6   0   2    0.48    0.05
   5   0  -2    7.43    0.24
   5   0  -2    7.14    0.24
   5   0  -2    7.44    0.18
  -5   0   2    7.62    0.24
  -5   0   2    7.39    0.21
  -5   0   2    7.69    0.24
  -5   0   2    7.62    0.24
  -5   0   2    7.58    0.21
   4   0  -2   15.06    0.43
   4   0  -2   15.66    0.42
   4   0  -2   15.66    0.36
   4   0  -2   15.52    0.36
  -4   0   2   15.23    0.42
  -4   0   2   15.46    0.43
  -4   0   2   15.85    0.37
  -4   0   2   15.50    0.42
  -4   0   2   15.34    0.38
   3   0  -2   10.93    0.31
   3   0  -2   11.15    0.30
  -3   0   2   11.07    0.27
  -3   0   2   10.75    0.30
  -3   0   2   10.90    0.29
  -3   0   2   10.98    0.27
  -3   0   2   10.96    0.30
   2   0  -2    0.17    0.02
   2   0  -2    0.13    0.02
  -2   0   2    0.19    0.01
  -2   0   2    0.14    0.02
  -2   0   2    0.18    0.02
  -2   0   2    0.11    0.01
  -2   0   2    0.16    0.01
  -2   0   2    0.13    0.02
   1   0  -2   49.54    1.23
   1   0  -2   51.45    1.12
   1   0  -2   48.39    1.27
  -1   0   2   48.92    1.27
  -1   0   2   51.22    1.23
  -1   0   2   51.41    1.22
  -1   0   2   49.76    1.25
  -1   0   2   49.50    1.12
   0   0  -2    3.11    0.09
   0   0  -2    3.08    0.09
   0   0   2    3.10    0.09
   0   0   2    3.22    0.08
   0   0   2    3.38    0.09
  -1   0  -2  208.82    4.90
  -1   0  -2  208.92    4.64
  -1   0  -2  201.87    5.08
  -1   0  -2  207.72    4.62
  -1   0  -2  196.01    5.05
  -1   0  -2  193.40    4.52
   1   0   2  196.34    5.05
   1   0   2  192.84    5.06
  -2   0  -2  153.60    3.76
  -2   0  -2  143.99    3.35
  -2   0  -2  155.07    3.46
  -2   0  -2  142.53    3.76
  -2   0  -2  151.59    3.63
  -2   0  -2  151.83    3.63
   2   0   2  154.94    3.76
  -3   0  -2  130.65    3.08
  -3   0  -2  124.32    2.95
  -3   0  -2  118.38    2.72
  -3   0  -2  121.60    2.81
  -3   0  -2  123.22    2.97
  -3   0  -2  119.49    3.06
   3   0   2  123.97    3.06
   3   0   2  116.75    3.07
  -4   0  -2    0.15    0.03
  -4   0  -2    0.16    0.03
  -4   0  -2    0.17    0.03
  -4   0  -2    0.16    0.04
  -4   0  -2    0.19    0.03
   4   0   2    0.07    0.03
   4   0   2    0.10    0.03
  -5   0  -2    0.32    0.04
  -5   0  -2    0.42    0.04
  -5   0  -2    0.50    0.06
  -5   0  -2    0.45    0.04
  -5   0  -2    0.36    0.06
   5   0   2    0.41    0.06
  -6   0  -2    3.75    0.17
  -6   0  -2    3.96    0.14
  -6   0  -2    3.69    0.13
  -6   0  -2    3.25    0.14
   6   0   2    3.62    0.18
  -7   0  -2    0.11    0.06
  -7   0  -2    0.06    0.04
  -7   0  -2    0.03    0.04
   7   0   2    0.02    0.03
   7   0   2    0.02    0.06
  -8   0  -2    7.59    0.25
  -8   0  -2    7.98    0.31
  -8   1   2   15.41    0.43
  -8   1   2   15.14    0.48
  -8   1   2   15.68    0.47
   7  -1  -2    0.18    0.05
  -7   1   2    0.13    0.04
  -7   1   2    0.15    0.03
  -7   1   2    0.19    0.05
  -7   1   2    0.17    0.05
   6  -1  -2   85.37    2.23
  -6   1   2   87.58    2.16
  -6   1   2   87.56    2.16
  -6   1   2   87.01    2.03
  -6   1   2   88.24    1.96
   5  -1  -2    3.85    0.15
   5  -1  -2    3.83    0.14
  -5   1   2    3.86    0.15
  -5   1   2    3.91    0.15
  -5   1   2    3.93    0.12
  -5   1   2    3.95    0.12
  -5   1   2    3.63    0.15
   4  -1  -2   11.03    0.31
   4  -1  -2   10.71    0.32
  -4   1   2   11.17    0.31
  -4   1   2   11.35    0.27
  -4   1   2   10.73    0.31
  -4   1   2   10.61    0.31
  -4   1   2   11.32    0.27
   3  -1  -2    0.13    0.02
   3  -1  -2    0.16    0.02
  -3   1   2    0.14    0.02
  -3   1   2    0.21    0.03
  -3   1   2    0.16    0.01
  -3   1   2    0.13    0.03
   2  -1  -2   12.20    0.32
   2  -1  -2   11.58    0.32
  -2   1   2   12.05    0.32
  -2   1   2   12.27    0.32
  -2   1   2   12.22    0.28
  -2   1   2   13.05    0.32
   1  -1  -2  355.86    8.60
   1  -1  -2  359.80    7.94
  -1   1   2  342.56    7.94
  -1   1   2  362.60    7.93
   0  -1  -2  335.64    7.63
   0  -1  -2  279.87    8.27
   0  -1  -2  309.37    7.04
   0   1   2  323.07    7.99
   0   1   2  321.96    7.03
  -1  -1  -2  230.52    5.18
  -1  -1  -2  205.04    4.83
  -1  -1  -2  210.45    5.41
   1   1   2  211.85    5.41
  -2  -1  -2   31.15    0.79
  -2  -1  -2   31.69    0.77
  -2  -1  -2   31.12    0.73
  -2  -1  -2   31.04    0.72
  -2  -1  -2   30.02    0.81
   2   1   2   32.34    0.81
   2   1   2   32.05    0.82
  -3  -1  -2  159.39    3.66
  -3  -1  -2  153.38    3.68
  -3  -1  -2  150.16    3.47
  -3  -1  -2  159.92    3.69
  -3  -1  -2  144.87    3.79
  -3  -1  -2  145.29    3.38
   3   1   2  148.47    3.80
   3   1   2  153.42    3.79
  -4  -1  -2   22.28    0.60
  -4  -1  -2   22.42    0.54
  -4  -1  -2   22.02    0.61
  -4  -1  -2   23.23    0.57
  -4  -1  -2   22.06    0.54
   4   1   2   22.28    0.62
  -5  -1  -2   24.01    0.65
  -5  -1  -2   25.54    0.62
  -5  -1  -2   23.77    0.58
  -5  -1  -2   23.01    0.59
  -5  -1  -2   23.72    0.66
   5   1   2   23.33    0.68
  -6  -1  -2    1.47    0.10
  -6  -1  -2    1.44    0.10
  -6  -1  -2    1.55    0.08
  -6  -1  -2    1.47    0.08
   6   1   2    1.39    0.11
  -7  -1  -2    8.73    0.27
  -7  -1  -2    8.66    0.26
  -7  -1  -2    9.09    0.32
   7   1   2    8.86    0.24
  -8  -1  -2    4.42    0.18
  -8  -1  -2    4.53    0.21
   8   1   2    4.18    0.14
  -8   2   2    0.42    0.06
  -8   2   2    0.49    0.08
  -8   2   2    0.32    0.07
   7  -2  -2    6.62    0.25
  -7   2   2    6.28    0.20
  -7   2   2    6.55    0.24
  -7   2   2    6.16    0.24
   6  -2  -2   14.27    0.43
  -6   2   2   14.73    0.35
  -6   2   2   13.96    0.37
  -6   2   2   13.70    0.42
  -6   2   2   14.20    0.42
   5  -2  -2   43.76    1.18
   5  -2  -2   46.40    1.17
  -5   2   2   45.43    1.16
  -5   2   2   45.23    1.16
  -5   2   2   45.23    1.06
  -5   2   2   45.64    1.03
   4  -2  -2    0.86    0.05
   4  -2  -2    0.81    0.05
  -4   2   2    0.85    0.04
  -4   2   2    0.96    0.04
  -4   2   2    0.95    0.05
  -4   2   2    0.92    0.07
   3  -2  -2   28.39    0.72
   3  -2  -2   28.04    0.73
  -3   2   2   27.95    0.73
  -3   2   2   28.22    0.64
  -3   2   2   28.70    0.73
   2  -2  -2   86.36    2.26
   2  -2  -2   90.56    2.25
  -2   2   2   87.64    1.99
  -2   2   2   93.89    2.24
  -2   2   2   89.62    1.98
  -2   2   2   86.84    2.23
  -2   2   2   89.73    2.17
   1  -2  -2   13.18    0.32
   1  -2  -2   13.49    0.35
  -1   2   2   14.59    0.36
  -1   2   2   13.78    0.32
   0  -2  -2   25.07    0.62
   0  -2  -2   24.29    0.56
   0  -2  -2   23.63    0.61
   0   2   2   24.51    0.62
  -1  -2  -2  164.05    3.87
  -1  -2  -2  158.08    4.07
  -1  -2  -2  155.07    3.57
   1   2   2  165.33    4.05
  -2  -2  -2    4.49    0.13
  -2  -2  -2    4.53    0.15
  -2  -2  -2    4.41    0.14
  -3  -2  -2   45.53    1.08
  -3  -2  -2   49.08    1.14
  -3  -2  -2   47.32    1.14
  -3  -2  -2   45.31    1.20
  -3  -2  -2   45.92    1.07
  -3  -2  -2   46.51    1.17
  -4  -2  -2    0.05    0.03
  -4  -2  -2    0.03    0.03
  -4  -2  -2    0.02    0.02
  -4  -2  -2    0.02    0.02
   4   2   2    0.10    0.04
  -5  -2  -2   27.16    0.67
  -5  -2  -2   27.84    0.70
  -5  -2  -2   27.05    0.66
  -5  -2  -2   27.08    0.74
  -5  -2  -2   27.87    0.76
   5   2   2   27.97    0.77
  -6  -2  -2    5.25    0.21
  -6  -2  -2    5.28    0.18
  -6  -2  -2    4.88    0.16
  -6  -2  -2    4.88    0.20
  -7  -2  -2    3.56    0.13
  -7  -2  -2    3.59    0.15
  -7  -2  -2    3.62    0.18
   7   2   2    3.71    0.13
  -8   3   2    0.23    0.07
  -8   3   2    0.15    0.07
   7  -3  -2    0.63    0.07
  -7   3   2    0.55    0.08
  -7   3   2    0.57    0.08
   6  -3  -2    8.93    0.29
  -6   3   2    8.57    0.30
  -6   3   2    9.37    0.31
   5  -3  -2    0.33    0.05
  -5   3   2    0.42    0.03
  -5   3   2    0.39    0.04
  -5   3   2    0.31    0.05
   4  -3  -2    7.03    0.21
   4  -3  -2    6.54    0.21
  -4   3   2    6.98    0.21
  -4   3   2    7.35    0.17
  -4   3   2    6.70    0.23
  -4   3   2    7.03    0.17
   3  -3  -2   54.96    1.37
   3  -3  -2   54.05    1.38
  -3   3   2   53.92    1.22
  -3   3   2   54.22    1.38
  -3   3   2   54.12    1.36
  -3   3   2   56.42    1.22
   2  -3  -2   43.20    1.10
   2  -3  -2   43.69    1.10
   2  -3  -2   42.76    1.08
   2  -3  -2   42.96    0.98
  -2   3   2   44.64    0.98
  -2   3   2   43.02    1.09
  -2   3   2   44.12    1.10
  -2   3   2   44.75    0.98
   1  -3  -2    6.10    0.16
   1  -3  -2    6.47    0.17
   1  -3  -2    6.19    0.18
   1  -3  -2    6.23    0.17
   0  -3  -2   24.18    0.62
   0  -3  -2   24.68    0.57
   0  -3  -2   24.73    0.63
  -1  -3  -2   62.84    1.58
  -1  -3  -2   61.99    1.53
  -1  -3  -2   61.97    1.41
   1   3   2   63.31    1.53
  -2  -3  -2    1.08    0.07
  -2  -3  -2    1.26    0.06
  -2  -3  -2    1.26    0.06
  -3  -3  -2    1.07    0.07
  -3  -3  -2    0.99    0.03
  -3  -3  -2    0.85    0.06
  -3  -3  -2    0.99    0.06
  -4  -3  -2    7.30    0.24
  -4  -3  -2    7.21    0.22
  -4  -3  -2    7.35    0.24
  -4  -3  -2    7.33    0.19
  -5  -3  -2    0.04    0.04
  -5  -3  -2    0.04    0.03
  -5  -3  -2    0.01    0.03
  -5  -3  -2    0.12    0.03
  -5  -3  -2    0.02    0.02
  -6  -3  -2    0.67    0.08
  -6  -3  -2    0.65    0.07
  -6  -3  -2    0.71    0.05
  -6  -3  -2    0.70    0.08
  -7  -3  -2    3.74    0.18
  -7  -3  -2    3.98    0.17
  -7  -3  -2    3.76    0.13
   7   3   2    3.61    0.13
  -8   4   2    0.90    0.10
  -8   4   2    0.92    0.10
  -7   4   2    3.13    0.17
  -7   4   2    3.00    0.17
   6  -4  -2    0.02    0.03
  -6   4   2    0.02    0.05
   5  -4  -2    1.22    0.08
  -5   4   2    1.13    0.09
   4  -4  -2    4.45    0.16
   4  -4  -2    4.76    0.15
  -4   4   2    4.65    0.18
   3  -4  -2    2.29    0.09
   3  -4  -2    2.31    0.08
  -3   4   2    2.15    0.12
  -3   4   2    2.43    0.06
  -3   4   2    2.39    0.06
   2  -4  -2   32.27    0.73
   2  -4  -2   32.68    0.82
   2  -4  -2   32.38    0.82
   2  -4  -2   31.62    0.81
  -2   4   2   32.45    0.83
   1  -4  -2   11.59    0.27
   1  -4  -2   11.24    0.30
   1  -4  -2   10.93    0.30
   1  -4  -2   10.72    0.30
   0  -4  -2   43.46    0.97
   0  -4  -2   41.93    1.08
   0  -4  -2   42.59    1.06
  -1  -4  -2   85.98    1.90
  -1  -4  -2   83.46    2.13
  -1  -4  -2   84.13    2.07
   1   4   2   85.08    2.07
  -2  -4  -2   70.49    1.71
  -2  -4  -2   69.42    1.58
  -2  -4  -2   68.09    1.77
   2   4   2   70.35    1.70
  -3  -4  -2    2.67    0.12
  -3  -4  -2    2.55    0.12
  -3  -4  -2    2.67    0.11
  -4  -4  -2   24.23    0.68
  -4  -4  -2   24.88    0.66
  -4  -4  -2   24.18    0.60
  -5  -4  -2    7.51    0.26
  -5  -4  -2    7.87    0.24
  -5  -4  -2    7.70    0.27
  -6  -4  -2    2.30    0.14
  -6  -4  -2    2.53    0.13
  -6  -4  -2    2.24    0.14
  -7  -4  -2    1.33    0.10
  -7  -4  -2    1.33    0.11
  -8   5   2    0.00    0.06
  -8   5   2    0.06    0.06
  -7   5   2    1.39    0.12
   6  -5  -2    1.27    0.09
  -6   5   2    1.24    0.11
   5  -5  -2   14.95    0.41
  -5   5   2   13.89    0.44
   4  -5  -2    0.00    0.03
  -4   5   2   -0.04    0.04
   3  -5  -2   24.54    0.65
   3  -5  -2   25.94    0.65
  -3   5   2   24.02    0.68
   2  -5  -2    2.53    0.10
   2  -5  -2    2.35    0.09
   2  -5  -2    2.37    0.09
   2  -5  -2    2.29    0.08
  -2   5   2    2.32    0.12
   1  -5  -2    5.82    0.18
   1  -5  -2    6.00    0.19
   1  -5  -2    6.06    0.16
   0  -5  -2    1.71    0.09
   0  -5  -2    1.69    0.07
   0  -5  -2    1.70    0.07
  -1  -5  -2    7.05    0.22
  -1  -5  -2    7.10    0.20
  -1  -5  -2    7.29    0.23
   1   5   2    7.44    0.20
  -2  -5  -2    5.29    0.18
  -2  -5  -2    5.23    0.18
  -2  -5  -2    5.14    0.16
  -3  -5  -2   18.33    0.53
  -3  -5  -2   18.60    0.51
  -3  -5  -2   18.89    0.47
  -4  -5  -2   16.90    0.45
  -4  -5  -2   17.43    0.50
  -4  -5  -2   16.85    0.48
  -5  -5  -2    0.58    0.07
  -5  -5  -2    0.47    0.07
  -5  -5  -2    0.31    0.05
  -6  -5  -2    2.44    0.13
  -6  -5  -2    2.58    0.15
   6   5   2    2.65    0.11
  -7   6   2    0.05    0.06
  -6   6   2    3.59    0.19
   5  -6  -2    0.63    0.06
  -5   6   2    0.38    0.08
   4  -6  -2    2.05    0.09
  -4   6   2    1.90    0.13
   3  -6  -2    2.85    0.11
  -3   6   2    2.96    0.15
   2  -6  -2    5.16    0.16
   2  -6  -2    5.26    0.18
   2  -6  -2    5.34    0.17
  -2   6   2    5.28    0.21
   1  -6  -2    0.25    0.03
   1  -6  -2    0.24    0.04
   1  -6  -2    0.37    0.04
   1  -6  -2    0.25    0.03
   0  -6  -2    6.60    0.20
   0  -6  -2    6.54    0.22
   0  -6  -2    6.41    0.19
   0   6   2    6.60    0.20
  -1  -6  -2    1.10    0.08
  -1  -6  -2    1.03    0.07
  -1  -6  -2    1.08    0.07
   1   6   2    0.94    0.06
  -2  -6  -2   -0.03    0.04
  -2  -6  -2   -0.02    0.04
  -2  -6  -2    0.03    0.04
  -3  -6  -2    2.75    0.14
  -3  -6  -2    2.70    0.13
  -3  -6  -2    2.77    0.13
  -4  -6  -2    2.59    0.12
  -4  -6  -2    2.38    0.13
  -4  -6  -2    2.63    0.13
  -5  -6  -2    0.36    0.06
  -5  -6  -2    0.33    0.07
  -6   7   2    0.01    0.05
  -5   7   2    1.35    0.12
   4  -7  -2    3.43    0.12
  -4   7   2    3.12    0.18
   3  -7  -2    9.40    0.27
  -3   7   2    9.21    0.33
   2  -7  -2    0.12    0.04
   2  -7  -2    0.06    0.03
  -2   7   2    0.12    0.05
   1  -7  -2    1.10    0.08
   1  -7  -2    1.12    0.06
   0  -7  -2    3.07    0.12
   0  -7  -2    3.08    0.12
   0  -7  -2    3.00    0.13
   0   7   2    3.14    0.12
  -1  -7  -2    0.07    0.04
  -1  -7  -2    0.17    0.04
  -1  -7  -2    0.13    0.04
  -2  -7  -2    0.33    0.05
  -2  -7  -2    0.39    0.06
  -2  -7  -2    0.32    0.05
  -3  -7  -2    0.02    0.04
  -3  -7  -2    0.07    0.05
  -4  -7  -2    0.10    0.05
  -4  -7  -2    0.05    0.05
   4   7   2    0.07    0.03
  -5   8   2    0.19    0.07
  -4   8   2    0.61    0.10
  -3   8   2    0.40    0.08
   2  -8  -2    0.11    0.05
   2  -8  -2    0.07    0.03
  -2   8   2    0.14    0.06
   1  -8  -2    0.10    0.03
   1  -8  -2    0.15    0.05
  -1   8   2    0.10    0.04
   0  -8  -2    0.73    0.08
  -1  -8  -2    1.21    0.10
  -2  -8  -2    4.86    0.18
  -2  -8  -2    4.98    0.20
  -3  -8  -2   12.87    0.40
  -3  -8  -2   13.13    0.38
  -3   9   2    0.26    0.08
   2  -9  -2    0.53    0.08
  -2   9   2    0.78    0.10
   1  -9  -2   -0.01    0.05
  -1   9   2    0.03    0.06
   0  -9  -2    0.08    0.05
  -1  -9  -2   -0.07    0.04
   2   9  -3    0.43    0.05
  -2  -9   3    0.58    0.07
   1   9  -3    4.61    0.22
   1   9  -3    4.19    0.16
  -1  -9   3    4.30    0.18
   0   9  -3    0.00    0.04
   0   9  -3   -0.01    0.03
   0   9  -3    0.05    0.06
   0  -9   3    0.02    0.04
  -1   9  -3    0.99    0.08
  -1   9  -3    1.18    0.12
  -1   9  -3    1.14    0.10
  -2   9  -3    0.36    0.08
  -4  -8   3    4.64    0.18
   3   8  -3   -0.02    0.03
  -3  -8   3   -0.04    0.04
  -3  -8   3   -0.01    0.04
   2   8  -3    1.90    0.10
  -2  -8   3    1.94    0.12
  -2  -8   3    2.07    0.11
   1   8  -3    1.30    0.08
   1   8  -3    1.30    0.11
   1   8  -3    1.31    0.09
  -1  -8   3    1.47    0.09
  -1  -8   3    1.35    0.10
   0   8  -3    0.40    0.04
   0   8  -3    0.28    0.07
   0   8  -3    0.43    0.06
   0  -8   3    0.42    0.06
   0  -8   3    0.44    0.06
  -1   8  -3    0.03    0.03
  -1   8  -3    0.06    0.05
  -1   8  -3    0.01    0.05
   1  -8   3    0.05    0.04
  -2   8  -3    3.45    0.14
  -2   8  -3    3.40    0.16
  -2   8  -3    3.31    0.18
  -3   8  -3    3.23    0.19
  -3   8  -3    3.53    0.17
  -3   8  -3    3.61    0.14
  -4   8  -3    2.83    0.18
   5   7  -3    0.62    0.06
  -5  -7   3    0.66    0.07
   4   7  -3    0.14    0.03
  -4  -7   3    0.21    0.04
  -4  -7   3    0.13    0.04
  -4  -7   3    0.16    0.05
   3   7  -3    0.48    0.05
  -3  -7   3    0.53    0.06
  -3  -7   3    0.50    0.05
  -3  -7   3    0.49    0.06
   2   7  -3    3.02    0.12
   2   7  -3    3.29    0.14
  -2  -7   3    3.28    0.16
  -2  -7   3    3.32    0.12
  -2  -7   3    3.30    0.13
   1   7  -3   10.42    0.30
   1   7  -3   11.28    0.34
  -1  -7   3   11.23    0.33
  -1  -7   3   11.50    0.35
  -1  -7   3   10.74    0.29
   0   7  -3    1.68    0.10
   0   7  -3    1.74    0.11
   0   7  -3    1.61    0.08
   0  -7   3    1.65    0.10
   0  -7   3    1.64    0.09
  -1   7  -3    0.15    0.03
  -1   7  -3    0.18    0.04
  -1   7  -3    0.14    0.05
   1  -7   3    0.12    0.04
  -2   7  -3    0.04    0.04
  -2   7  -3   -0.01    0.04
   2  -7   3    0.03    0.04
  -3   7  -3    0.30    0.04
  -3   7  -3    0.18    0.05
  -3   7  -3    0.26    0.06
   3  -7   3    0.28    0.05
  -4   7  -3    0.83    0.07
  -4   7  -3    0.98    0.10
  -5   7  -3    0.82    0.07
  -5   7  -3    0.64    0.09
   6   6  -3    5.36    0.18
  -6  -6   3    5.17    0.20
  -6  -6   3    5.28    0.16
   5   6  -3    0.67    0.06
  -5  -6   3    0.69    0.08
  -5  -6   3    0.59    0.07
  -5  -6   3    0.62    0.05
  -5  -6   3    0.63    0.07
   4   6  -3    2.57    0.10
  -4  -6   3    2.57    0.12
  -4  -6   3    2.43    0.11
  -4  -6   3    2.50    0.13
  -4  -6   3    2.49    0.09
   3   6  -3    7.12    0.23
   3   6  -3    6.62    0.21
  -3  -6   3    6.98    0.21
  -3  -6   3    7.04    0.25
  -3  -6   3    7.29    0.22
  -3  -6   3    7.08    0.18
   2   6  -3   26.15    0.69
   2   6  -3   25.18    0.63
  -2  -6   3   25.79    0.62
  -2  -6   3   26.76    0.67
  -2  -6   3   26.02    0.72
   1   6  -3    2.96    0.11
   1   6  -3    3.07    0.13
  -1  -6   3    3.02    0.11
  -1  -6   3    3.02    0.13
  -1  -6   3    2.98    0.12
   0   6  -3    3.44    0.12
   0   6  -3    3.58    0.15
   0   6  -3    3.64    0.14
   0  -6   3    3.55    0.15
   0  -6   3    3.62    0.11
   0  -6   3    3.80    0.14
  -1   6  -3    5.53    0.19
  -1   6  -3    5.77    0.21
  -1   6  -3    5.38    0.17
   1  -6   3    5.63    0.20
  -2   6  -3   30.01    0.81
  -2   6  -3   29.70    0.73
  -2   6  -3   29.91    0.79
   2  -6   3   30.36    0.82
  -3   6  -3    0.05    0.04
  -3   6  -3    0.06    0.03
   3  -6   3    0.03    0.04
  -4   6  -3   -0.02    0.02
  -4   6  -3   -0.04    0.04
   4  -6   3    0.01    0.04
  -5   6  -3    0.13    0.04
  -5   6  -3    0.13    0.06
   5  -6   3    0.14    0.06
  -6   6  -3    0.91    0.10
  -6   6  -3    0.78    0.07
   7   5  -3   13.16    0.35
  -7  -5   3   12.83    0.35
  -7  -5   3   12.97    0.38
   6   5  -3    0.01    0.03
  -6  -5   3    0.00    0.03
  -6  -5   3    0.02    0.04
  -6  -5   3    0.03    0.04
   5   5  -3    1.68    0.08
  -5  -5   3    1.56    0.10
  -5  -5   3    1.60    0.08
  -5  -5   3    1.55    0.11
  -5  -5   3    1.58    0.09
   4   5  -3    9.94    0.29
   4   5  -3    9.17    0.26
  -4  -5   3    9.21    0.25
  -4  -5   3    9.88    0.32
  -4  -5   3   10.01    0.28
  -4  -5   3    9.18    0.27
   3   5  -3    0.01    0.03
   3   5  -3    0.07    0.02
  -3  -5   3   -0.06    0.03
  -3  -5   3   -0.03    0.03
  -3  -5   3    0.06    0.02
  -3  -5   3    0.09    0.04
   2   5  -3    0.00    0.02
   2   5  -3    0.04    0.02
  -2  -5   3    0.01    0.03
  -2  -5   3    0.03    0.02
  -2  -5   3    0.02    0.02
  -2  -5   3    0.02    0.02
   1   5  -3    8.99    0.24
   1   5  -3    9.17    0.27
  -1  -5   3    8.99    0.23
  -1  -5   3    8.95    0.25
  -1  -5   3    8.93    0.28
   0   5  -3    5.06    0.17
   0   5  -3    5.00    0.18
   0   5  -3    4.95    0.15
   0  -5   3    5.36    0.16
   0  -5   3    5.16    0.14
   0  -5   3    5.22    0.18
  -1   5  -3    0.03    0.03
  -1   5  -3    0.04    0.02
  -1   5  -3    0.04    0.03
   1  -5   3    0.02    0.01
   1  -5   3    0.09    0.03
  -2   5  -3   48.41    1.22
  -2   5  -3   48.23    1.13
   2  -5   3   46.76    1.25
  -3   5  -3    3.48    0.16
  -3   5  -3    3.55    0.12
   3  -5   3    3.52    0.15
  -4   5  -3    2.54    0.14
  -4   5  -3    2.61    0.11
   4  -5   3    2.75    0.14
  -5   5  -3    0.66    0.06
  -5   5  -3    0.54    0.08
   5  -5   3    0.66    0.08
  -6   5  -3    0.58    0.06
  -6   5  -3    0.69    0.09
   6  -5   3    0.75    0.09
  -7   5  -3    0.12    0.07
  -7   5  -3    0.12    0.05
   7   4  -3    7.51    0.22
  -7  -4   3    7.83    0.26
  -7  -4   3    7.38    0.25
  -7  -4   3    7.69    0.27
  -7  -4   3    7.65    0.23
   6   4  -3    2.48    0.10
  -6  -4   3    2.59    0.11
  -6  -4   3    2.56    0.12
  -6  -4   3    2.65    0.12
  -6  -4   3    2.49    0.13
   5   4  -3    9.42    0.26
   5   4  -3    9.94    0.29
  -5  -4   3    9.74    0.27
  -5  -4   3    9.47    0.30
  -5  -4   3    9.85    0.32
  -5  -4   3    9.83    0.28
  -5  -4   3    9.82    0.29
   4   4  -3   51.42    1.28
   4   4  -3   49.83    1.19
  -4  -4   3   51.46    1.26
  -4  -4   3   49.81    1.18
  -4  -4   3   51.62    1.28
  -4  -4   3   50.02    1.19
  -4  -4   3   52.03    1.33
   3   4  -3    2.03    0.09
   3   4  -3    2.07    0.08
  -3  -4   3    1.98    0.07
  -3  -4   3    1.91    0.08
  -3  -4   3    1.89    0.08
  -3  -4   3    2.01    0.10
   2   4  -3    8.78    0.23
   2   4  -3    8.99    0.26
  -2  -4   3    8.86    0.23
  -2  -4   3    8.88    0.27
  -2  -4   3    8.82    0.24
  -2  -4   3    8.93    0.23
   1   4  -3   29.97    0.70
   1   4  -3   29.57    0.75
  -1  -4   3   29.05    0.78
  -1  -4   3   29.46    0.73
  -1  -4   3   29.37    0.68
  -1  -4   3   29.25    0.69
   0   4  -3   25.43    0.61
   0   4  -3   25.73    0.66
   0   4  -3   25.70    0.66
   0  -4   3   25.51    0.58
   0  -4   3   25.33    0.68
   0  -4   3   24.82    0.64
  -1   4  -3    2.39    0.08
  -1   4  -3    2.41    0.11
  -1   4  -3    2.44    0.10
   1  -4   3    2.64    0.07
   1  -4   3    2.31    0.07
   1  -4   3    2.32    0.11
  -2   4  -3    2.78    0.13
  -2   4  -3    2.77    0.10
   2  -4   3    2.86    0.07
   2  -4   3    2.77    0.12
   2  -4   3    3.03    0.08
   2  -4   3    2.88    0.07
   2  -4   3    2.86    0.12
  -3   4  -3    3.71    0.16
  -3   4  -3    3.75    0.12
   3  -4   3    3.58    0.15
  -4   4  -3    4.92    0.20
  -4   4  -3    5.18    0.16
   4  -4   3    4.85    0.19
  -5   4  -3   21.36    0.55
  -5   4  -3   21.87    0.62
   5  -4   3   21.48    0.63
  -6   4  -3    5.33    0.18
  -6   4  -3    5.15    0.23
   6  -4   3    5.33    0.23
  -7   4  -3    1.30    0.09
  -7   4  -3    1.33    0.12
  -8  -3   3    0.93    0.09
  -8  -3   3    0.85    0.08
   7   3  -3    5.64    0.25
   7   3  -3    5.60    0.17
  -7  -3   3    5.77    0.22
  -7  -3   3    5.18    0.20
  -7  -3   3    5.65    0.21
  -7  -3   3    5.53    0.19
   6   3  -3    0.91    0.05
  -6  -3   3    0.89    0.08
  -6  -3   3    1.05    0.07
  -6  -3   3    0.96    0.06
  -6  -3   3    0.86    0.07
   5   3  -3   12.03    0.31
   5   3  -3   12.48    0.35
  -5  -3   3   11.75    0.32
  -5  -3   3   12.44    0.35
  -5  -3   3   12.24    0.36
  -5  -3   3   11.80    0.37
  -5  -3   3   12.38    0.33
   4   3  -3   68.21    1.72
   4   3  -3   71.81    1.79
   4   3  -3   68.64    1.61
  -4  -3   3   69.93    1.70
  -4  -3   3   71.32    1.78
  -4  -3   3   69.16    1.72
  -4  -3   3   67.86    1.61
  -4  -3   3   69.26    1.58
   3   3  -3    1.46    0.07
   3   3  -3    1.48    0.08
   3   3  -3    1.43    0.06
  -3  -3   3    1.44    0.07
  -3  -3   3    1.39    0.08
  -3  -3   3    1.47    0.06
  -3  -3   3    1.44    0.08
  -3  -3   3    1.40    0.06
   2   3  -3   50.47    1.18
   2   3  -3   52.19    1.31
   2   3  -3   50.54    1.26
  -2  -3   3   51.06    1.15
  -2  -3   3   50.59    1.30
  -2  -3   3   50.87    1.24
  -2  -3   3   50.54    1.18
   1   3  -3   20.43    0.49
   1   3  -3   20.66    0.53
  -1  -3   3   20.71    0.51
  -1  -3   3   20.73    0.48
  -1  -3   3   20.22    0.55
  -1  -3   3   20.54    0.49
   0   3  -3    0.08    0.02
   0  -3   3    0.08    0.01
   0  -3   3    0.13    0.02
  -1   3  -3    6.70    0.18
  -1   3  -3    6.72    0.20
  -1   3  -3    6.66    0.20
  -1   3  -3    6.88    0.22
   1  -3   3    6.70    0.21
   1  -3   3    6.52    0.21
   1  -3   3    6.69    0.16
   1  -3   3    7.08    0.17
  -2   3  -3    0.62    0.04
  -2   3  -3    0.60    0.06
   2  -3   3    0.68    0.03
   2  -3   3    0.65    0.05
   2  -3   3    0.64    0.05
  -3   3  -3    0.01    0.01
  -3   3  -3    0.01    0.02
  -3   3  -3    0.03    0.02
  -3   3  -3    0.06    0.03
   3  -3   3    0.00    0.02
   3  -3   3    0.01    0.02
  -4   3  -3    0.99    0.08
  -4   3  -3    0.87    0.08
  -4   3  -3    0.89    0.06
  -4   3  -3    0.94    0.04
   4  -3   3    0.87    0.08
  -5   3  -3   25.34    0.70
  -5   3  -3   24.27    0.62
   5  -3   3   25.27    0.71
  -6   3  -3    1.74    0.09
  -6   3  -3    1.80    0.12
   6  -3   3    1.76    0.13
  -7   3  -3    5.26    0.24
  -7   3  -3    5.00    0.19
   7  -3   3    5.34    0.24
   8   2  -3    9.91    0.36
  -8  -2   3    9.53    0.29
  -8  -2   3    9.75    0.30
  -8  -2   3    9.52    0.32
  -8  -2   3    9.52    0.32
   7   2  -3    1.54    0.12
   7   2  -3    1.53    0.06
  -7  -2   3    1.63    0.11
  -7  -2   3    1.42    0.08
  -7  -2   3    1.48    0.09
  -7  -2   3    1.39    0.10
   6   2  -3    4.46    0.13
  -6  -2   3    4.39    0.17
  -6  -2   3    4.32    0.16
  -6  -2   3    4.41    0.15
  -6  -2   3    4.63    0.17
   5   2  -3    2.07    0.07
  -5  -2   3    2.23    0.10
  -5  -2   3    2.11    0.11
  -5  -2   3    2.09    0.10
  -5  -2   3    2.22    0.09
  -5  -2   3    2.01    0.09
   4   2  -3    3.63    0.13
   4   2  -3    3.69    0.14
   4   2  -3    3.57    0.11
  -4  -2   3    3.69    0.12
  -4  -2   3    3.83    0.14
  -4  -2   3    3.77    0.13
  -4  -2   3    3.52    0.12
  -4  -2   3    3.44    0.14
   3   2  -3    1.86    0.08
   3   2  -3    2.13    0.09
   3   2  -3    1.86    0.06
  -3  -2   3    1.90    0.07
  -3  -2   3    1.85    0.07
  -3  -2   3    1.77    0.08
  -3  -2   3    1.92    0.07
  -3  -2   3    1.90    0.08
   2   2  -3    0.25    0.02
   2   2  -3    0.21    0.03
   2   2  -3    0.20    0.02
  -2  -2   3    0.22    0.02
  -2  -2   3    0.24    0.02
  -2  -2   3    0.16    0.02
  -2  -2   3    0.19    0.02
   1   2  -3  132.19    3.04
   1   2  -3  131.35    3.28
   1   2  -3  136.50    3.20
  -1  -2   3  130.17    3.20
  -1  -2   3  129.03    3.28
  -1  -2   3  128.57    2.92
  -1  -2   3  130.54    3.03
   0   2  -3   10.15    0.27
   0   2  -3   10.53    0.29
   0   2  -3   10.47    0.25
   0  -2   3   10.16    0.29
   0  -2   3   10.38    0.24
   0  -2   3   10.12    0.25
  -1   2  -3   21.00    0.50
  -1   2  -3   21.15    0.53
  -1   2  -3   20.89    0.54
  -1   2  -3   20.75    0.48
   1  -2   3   21.06    0.48
   1  -2   3   20.64    0.56
   1  -2   3   21.02    0.48
   1  -2   3   20.69    0.55
  -2   2  -3   56.71    1.31
  -2   2  -3   56.09    1.26
  -2   2  -3   57.19    1.43
  -2   2  -3   56.24    1.39
   2  -2   3   56.02    1.43
   2  -2   3   55.27    1.44
  -3   2  -3    0.42    0.03
  -3   2  -3    0.36    0.04
   3  -2   3    0.44    0.05
   3  -2   3    0.48    0.05
  -4   2  -3    9.92    0.31
  -4   2  -3   10.09    0.27
  -4   2  -3   10.22    0.31
  -4   2  -3   10.09    0.25
   4  -2   3    9.79    0.32
   4  -2   3   10.64    0.31
  -5   2  -3    4.99    0.20
  -5   2  -3    4.73    0.16
  -5   2  -3    5.19    0.15
  -5   2  -3    5.01    0.20
   5  -2   3    5.16    0.21
  -6   2  -3    0.60    0.06
  -6   2  -3    0.49    0.07
  -6   2  -3    0.59    0.06
   6  -2   3    0.66    0.08
  -7   2  -3   -0.07    0.05
  -7   2  -3   -0.01    0.03
   7  -2   3    0.00    0.05
  -8   2  -3    1.62    0.14
   8   1  -3    5.91    0.25
  -8  -1   3    5.51    0.20
  -8  -1   3    5.64    0.23
  -8  -1   3    6.08    0.23
  -8  -1   3    6.11    0.20
   7   1  -3    7.88    0.29
  -7  -1   3    7.61    0.24
  -7  -1   3    7.83    0.24
  -7  -1   3    8.13    0.27
  -7  -1   3    7.76    0.27
   6   1  -3   23.96    0.69
   6   1  -3   24.74    0.57
  -6  -1   3   24.10    0.61
  -6  -1   3   24.81    0.60
  -6  -1   3   24.47    0.65
  -6  -1   3   24.45    0.66
   5   1  -3   -0.01    0.03
  -5  -1   3    0.01    0.03
  -5  -1   3   -0.03    0.02
  -5  -1   3    0.00    0.02
  -5  -1   3    0.00    0.02
  -5  -1   3   -0.03    0.02
   4   1  -3   45.29    1.17
   4   1  -3   45.65    1.07
   4   1  -3   47.83    1.20
   4   1  -3   48.13    1.08
  -4  -1   3   44.73    1.20
  -4  -1   3   46.78    1.06
  -4  -1   3   46.72    1.16
  -4  -1   3   46.61    1.15
  -4  -1   3   47.66    1.09
   3   1  -3   16.37    0.37
   3   1  -3   15.26    0.43
   3   1  -3   15.85    0.37
   3   1  -3   16.39    0.42
  -3  -1   3   15.26    0.42
  -3  -1   3   15.86    0.38
  -3  -1   3   15.50    0.40
  -3  -1   3   15.98    0.38
  -3  -1   3   15.43    0.42
   2   1  -3   24.90    0.56
   2   1  -3   24.48    0.56
   2   1  -3   24.02    0.61
   2   1  -3   23.28    0.62
  -2  -1   3   24.07    0.61
  -2  -1   3   24.51    0.57
  -2  -1   3   23.29    0.62
  -2  -1   3   23.53    0.56
  -2  -1   3   25.14    0.59
   1   1  -3    3.12    0.10
   1   1  -3    3.03    0.08
   1   1  -3    3.31    0.08
   1   1  -3    3.19    0.09
   1   1  -3    3.14    0.08
   1   1  -3    3.06    0.10
  -1  -1   3    3.15    0.09
  -1  -1   3    3.06    0.10
  -1  -1   3    3.11    0.08
  -1  -1   3    3.10    0.10
  -1  -1   3    3.13    0.08
   0   1  -3    0.26    0.02
   0   1  -3    0.26    0.02
   0   1  -3    0.28    0.02
   0   1  -3    0.31    0.02
   0   1  -3    0.31    0.02
   0   1  -3    0.33    0.02
   0  -1   3    0.26    0.02
   0  -1   3    0.28    0.02
   0  -1   3    0.27    0.03
   0  -1   3    0.28    0.02
  -1   1  -3  126.73    3.15
  -1   1  -3  133.26    3.20
  -1   1  -3  127.77    2.96
  -1   1  -3  125.11    3.19
  -1   1  -3  124.55    2.86
  -1   1  -3  130.05    3.09
   1  -1   3  128.55    3.20
  -2   1  -3   34.76    0.92
  -2   1  -3   35.54    0.84
  -2   1  -3   36.07    0.90
  -2   1  -3   37.16    0.93
  -2   1  -3   34.49    0.81
   2  -1   3   36.36    0.92
   2  -1   3   36.18    0.93
  -3   1  -3   43.94    1.04
  -3   1  -3   44.04    1.01
  -3   1  -3   46.37    1.16
  -3   1  -3   43.60    1.11
  -3   1  -3   43.79    1.14
   3  -1   3   42.84    1.15
   3  -1   3   45.49    1.14
  -4   1  -3    0.58    0.05
  -4   1  -3    0.51    0.06
  -4   1  -3    0.60    0.05
  -4   1  -3    0.57    0.04
  -4   1  -3    0.59    0.04
   4  -1   3    0.59    0.06
  -5   1  -3   48.06    1.10
  -5   1  -3   49.24    1.20
  -5   1  -3   46.28    1.14
  -5   1  -3   48.52    1.26
  -5   1  -3   46.67    1.23
   5  -1   3   47.83    1.27
  -6   1  -3   10.49    0.30
  -6   1  -3   10.41    0.35
  -6   1  -3   11.10    0.29
   6  -1   3   10.78    0.37
  -7   1  -3    8.33    0.26
  -7   1  -3    8.35    0.32
   7  -1   3    8.78    0.34
  -8   1  -3    0.61    0.10
  -9   0   3    0.39    0.07
  -9   0   3    0.41    0.08
   8   0  -3    0.10    0.06
  -8   0   3    0.08    0.04
  -8   0   3    0.05    0.05
  -8   0   3    0.06    0.06
  -8   0   3   -0.03    0.04
   7   0  -3    2.57    0.14
  -7   0   3    2.77    0.12
  -7   0   3    2.90    0.14
  -7   0   3    2.75    0.14
  -7   0   3    2.80    0.11
   6   0  -3    3.32    0.15
  -6   0   3    3.34    0.12
  -6   0   3    3.15    0.12
  -6   0   3    3.31    0.15
  -6   0   3    3.31    0.14
   5   0  -3   41.40    1.10
   5   0  -3   42.01    1.09
  -5   0   3   41.72    0.97
  -5   0   3   43.37    1.10
  -5   0   3   42.91    0.99
  -5   0   3   40.79    1.07
  -5   0   3   42.04    1.06
   4   0  -3  119.23    3.00
   4   0  -3  121.17    2.99
  -4   0   3  118.63    2.66
  -4   0   3  121.56    2.90
  -4   0   3  123.26    2.74
  -4   0   3  118.90    2.91
  -4   0   3  114.29    2.99
   3   0  -3   83.52    2.08
   3   0  -3   76.59    2.03
  -3   0   3   83.29    2.02
  -3   0   3   86.98    1.90
  -3   0   3   84.37    1.85
  -3   0   3   84.09    2.01
  -3   0   3   81.23    2.08
   2   0  -3    7.72    0.22
   2   0  -3    7.81    0.21
  -2   0   3    7.89    0.19
  -2   0   3    8.00    0.21
  -2   0   3    7.73    0.20
  -2   0   3    7.76    0.22
   1   0  -3    0.47    0.02
   1   0  -3    0.41    0.03
   1   0  -3    0.42    0.02
  -1   0   3    0.42    0.02
  -1   0   3    0.37    0.03
  -1   0   3    0.54    0.03
  -1   0   3    0.43    0.02
   0   0  -3  141.85    3.73
   0   0  -3  145.43    3.30
   0   0  -3  152.11    3.65
   0   0   3  148.94    3.69
   0   0   3  146.00    3.61
   0   0   3  148.70    3.63
  -1   0  -3   15.12    0.40
  -1   0  -3   14.86    0.38
  -1   0  -3   14.83    0.35
  -1   0  -3   15.05    0.39
  -1   0  -3   14.80    0.39
  -1   0  -3   15.48    0.35
   1   0   3   14.97    0.39
   1   0   3   14.51    0.40
  -2   0  -3  101.92    2.28
  -2   0  -3  100.35    2.41
  -2   0  -3   94.95    2.21
  -2   0  -3   96.90    2.49
  -2   0  -3  101.65    2.49
  -2   0  -3   99.40    2.40
   2   0   3  100.42    2.49
   2   0   3   98.04    2.50
  -3   0  -3    3.08    0.12
  -3   0  -3    2.73    0.09
  -3   0  -3    2.78    0.11
  -3   0  -3    3.17    0.09
  -3   0  -3    2.71    0.09
   3   0   3    2.72    0.12
  -4   0  -3   23.67    0.57
  -4   0  -3   23.66    0.64
  -4   0  -3   24.28    0.58
  -4   0  -3   23.89    0.65
  -4   0  -3   24.07    0.61
   4   0   3   23.79    0.67
  -5   0  -3    0.30    0.05
  -5   0  -3    0.27    0.06
  -5   0  -3    0.37    0.04
  -5   0  -3    0.29    0.04
  -5   0  -3    0.32    0.04
   5   0   3    0.43    0.06
  -6   0  -3   -0.06    0.04
  -6   0  -3    0.00    0.03
  -6   0  -3    0.02    0.03
   6   0   3    0.01    0.04
  -7   0  -3    0.88    0.09
  -7   0  -3    0.80    0.07
  -7   0  -3    0.91    0.08
  -8   0  -3    6.88    0.29
   8   0   3    6.95    0.20
  -9   1   3    0.82    0.10
  -9   1   3    0.72    0.08
  -9   1   3    0.74    0.09
  -8   1   3    5.01    0.18
  -8   1   3    5.29    0.22
  -8   1   3    5.17    0.22
   7  -1  -3    0.22    0.05
  -7   1   3    0.12    0.05
  -7   1   3    0.09    0.05
  -7   1   3    0.16    0.03
  -7   1   3    0.16    0.03
   6  -1  -3    0.17    0.05
  -6   1   3    0.18    0.05
  -6   1   3    0.18    0.03
  -6   1   3    0.11    0.04
  -6   1   3    0.18    0.05
   5  -1  -3    6.02    0.21
   5  -1  -3    6.31    0.20
  -5   1   3    6.23    0.17
  -5   1   3    5.84    0.20
  -5   1   3    6.15    0.17
  -5   1   3    6.07    0.20
  -5   1   3    6.03    0.20
   4  -1  -3    0.80    0.05
  -4   1   3    0.72    0.06
  -4   1   3    0.82    0.04
  -4   1   3    0.78    0.04
  -4   1   3    0.87    0.06
  -4   1   3    0.83    0.05
   3  -1  -3   44.88    1.15
   3  -1  -3   45.47    1.16
  -3   1   3   45.67    1.03
  -3   1   3   45.55    1.13
  -3   1   3   45.75    1.13
  -3   1   3   46.19    1.15
   2  -1  -3    6.22    0.17
   2  -1  -3    6.14    0.17
  -2   1   3    6.48    0.18
  -2   1   3    6.25    0.16
  -2   1   3    6.24    0.17
  -2   1   3    6.19    0.18
   1  -1  -3  919.14   21.20
   1  -1  -3 1000.00   22.04
  -1   1   3  831.95   23.07
  -1   1   3  858.41   20.99
   0  -1  -3   30.09    0.75
   0  -1  -3   30.67    0.77
   0  -1  -3   31.78    0.75
   0  -1  -3   29.58    0.69
   0   1   3   29.88    0.77
   0   1   3   30.66    0.77
   0   1   3   29.87    0.75
  -1  -1  -3  159.80    3.66
  -1  -1  -3  162.55    4.11
  -1  -1  -3  167.33    3.97
  -1  -1  -3  177.04    4.15
   1   1   3  165.30    4.13
   1   1   3  157.48    4.16
  -2  -1  -3   27.98    0.68
  -2  -1  -3   27.14    0.65
  -2  -1  -3   27.63    0.71
  -2  -1  -3   27.63    0.72
  -2  -1  -3   27.25    0.65
  -2  -1  -3   29.64    0.64
   2   1   3   27.59    0.73
   2   1   3   27.94    0.72
  -3  -1  -3   16.50    0.40
  -3  -1  -3   16.96    0.41
  -3  -1  -3   15.99    0.45
  -3  -1  -3   16.18    0.40
  -3  -1  -3   16.49    0.44
   3   1   3   15.81    0.46
  -4  -1  -3    1.67    0.08
  -4  -1  -3    1.80    0.10
  -4  -1  -3    1.85    0.07
  -4  -1  -3    1.68    0.07
  -4  -1  -3    1.74    0.09
   4   1   3    1.70    0.10
  -5  -1  -3    1.94    0.08
  -5  -1  -3    1.78    0.09
  -5  -1  -3    1.70    0.11
  -5  -1  -3    1.80    0.11
   5   1   3    1.81    0.12
  -6  -1  -3    7.69    0.23
  -6  -1  -3    7.55    0.27
  -6  -1  -3    7.74    0.24
  -6  -1  -3    7.79    0.28
  -7  -1  -3    1.09    0.09
  -7  -1  -3    1.01    0.11
  -7  -1  -3    1.02    0.07
  -8   2   3    1.90    0.10
  -8   2   3    1.97    0.13
  -8   2   3    1.95    0.14
   7  -2  -3    1.32    0.10
  -7   2   3    1.24    0.08
  -7   2   3    1.39    0.10
  -7   2   3    1.35    0.11
   6  -2  -3    0.64    0.07
  -6   2   3    0.72    0.07
  -6   2   3    0.77    0.08
  -6   2   3    0.62    0.05
  -6   2   3    0.79    0.06
   5  -2  -3    8.44    0.25
   5  -2  -3    7.84    0.25
  -5   2   3    8.31    0.21
  -5   2   3    8.53    0.22
  -5   2   3    7.95    0.26
  -5   2   3    8.18    0.27
   4  -2  -3    0.22    0.03
   4  -2  -3    0.29    0.03
  -4   2   3    0.28    0.04
  -4   2   3    0.25    0.02
  -4   2   3    0.30    0.03
  -4   2   3    0.31    0.03
   3  -2  -3   17.27    0.45
   3  -2  -3   17.28    0.45
  -3   2   3   17.69    0.45
  -3   2   3   16.95    0.40
  -3   2   3   17.78    0.46
   2  -2  -3    0.58    0.04
   2  -2  -3    0.57    0.03
  -2   2   3    0.62    0.03
  -2   2   3    0.57    0.04
  -2   2   3    0.60    0.03
  -2   2   3    0.68    0.03
   1  -2  -3   67.98    1.66
   1  -2  -3   66.17    1.53
  -1   2   3   71.64    1.81
   0  -2  -3    0.67    0.03
   0  -2  -3    0.60    0.03
   0  -2  -3    0.65    0.04
   0   2   3    0.69    0.03
   0   2   3    0.69    0.03
  -1  -2  -3   16.73    0.44
  -1  -2  -3   17.17    0.40
  -1  -2  -3   16.84    0.44
  -2  -2  -3   24.20    0.62
  -2  -2  -3   24.16    0.57
  -2  -2  -3   23.39    0.63
  -3  -2  -3    8.45    0.25
  -3  -2  -3    7.68    0.25
  -3  -2  -3    8.16    0.22
  -3  -2  -3    7.96    0.22
  -3  -2  -3    8.10    0.20
   3   2   3    8.01    0.26
  -4  -2  -3   25.62    0.64
  -4  -2  -3   25.18    0.62
  -4  -2  -3   25.42    0.61
  -4  -2  -3   25.22    0.70
  -4  -2  -3   26.02    0.68
   4   2   3   25.98    0.71
  -5  -2  -3    1.22    0.06
  -5  -2  -3    1.31    0.10
  -5  -2  -3    1.23    0.08
  -5  -2  -3    1.24    0.09
  -6  -2  -3    1.80    0.08
  -6  -2  -3    1.55    0.10
  -6  -2  -3    1.67    0.11
  -6  -2  -3    1.82    0.12
  -7  -2  -3    0.10    0.05
  -7  -2  -3    0.04    0.03
  -7  -2  -3    0.20    0.06
  -8   3   3    2.86    0.16
  -8   3   3    2.58    0.16
   7  -3  -3    3.70    0.17
  -7   3   3    3.88    0.18
  -7   3   3    4.01    0.19
   6  -3  -3    1.51    0.09
  -6   3   3    1.49    0.11
  -6   3   3    1.36    0.10
   5  -3  -3   47.43    1.26
   5  -3  -3   49.96    1.25
  -5   3   3   48.24    1.25
  -5   3   3   50.44    1.11
   4  -3  -3   10.77    0.29
   4  -3  -3   10.25    0.29
  -4   3   3   10.51    0.25
  -4   3   3   10.68    0.30
  -4   3   3   10.73    0.32
   3  -3  -3    9.45    0.25
   3  -3  -3    9.73    0.26
  -3   3   3    9.39    0.28
  -3   3   3    9.64    0.23
  -3   3   3    9.39    0.26
   2  -3  -3   21.03    0.54
   2  -3  -3   21.13    0.49
  -2   3   3   21.48    0.49
  -2   3   3   21.21    0.56
   1  -3  -3    0.13    0.02
   1  -3  -3    0.15    0.02
   0  -3  -3    1.05    0.04
   0  -3  -3    1.07    0.05
   0  -3  -3    1.07    0.06
  -1  -3  -3   16.47    0.44
  -1  -3  -3   16.78    0.40
  -1  -3  -3   16.36    0.44
   1   3   3   16.76    0.42
  -2  -3  -3   40.02    1.02
  -2  -3  -3   39.39    0.92
  -2  -3  -3   39.22    0.99
  -3  -3  -3    1.75    0.09
  -3  -3  -3    1.74    0.09
  -3  -3  -3    1.88    0.09
  -4  -3  -3   12.65    0.30
  -4  -3  -3   12.25    0.37
  -4  -3  -3   12.58    0.37
  -4  -3  -3   12.55    0.34
  -5  -3  -3    0.16    0.05
  -5  -3  -3    0.20    0.05
  -5  -3  -3    0.15    0.04
  -5  -3  -3    0.14    0.02
  -6  -3  -3    0.79    0.09
  -6  -3  -3    0.91    0.05
  -6  -3  -3    0.90    0.09
  -6  -3  -3    0.82    0.07
  -7  -3  -3    0.02    0.05
  -7  -3  -3    0.06    0.05
  -8   4   3    1.57    0.13
  -8   4   3    1.91    0.14
  -7   4   3    0.01    0.05
  -7   4   3    0.04    0.05
   6  -4  -3    3.83    0.15
  -6   4   3    3.80    0.18
   5  -4  -3    6.30    0.20
  -5   4   3    6.28    0.24
   4  -4  -3   22.60    0.59
   4  -4  -3   22.62    0.58
  -4   4   3   21.44    0.61
  -4   4   3   22.86    0.51
   3  -4  -3    0.20    0.02
   3  -4  -3    0.23    0.02
  -3   4   3    0.25    0.05
  -3   4   3    0.21    0.02
   2  -4  -3   57.51    1.41
   2  -4  -3   53.38    1.36
   2  -4  -3   54.31    1.24
  -2   4   3   54.88    1.38
   1  -4  -3   13.21    0.32
   1  -4  -3   12.45    0.33
   1  -4  -3   13.11    0.34
   1  -4  -3   12.67    0.35
   0  -4  -3   20.45    0.54
   0  -4  -3   21.10    0.50
   0  -4  -3   21.02    0.54
  -1  -4  -3    4.51    0.15
  -1  -4  -3    4.56    0.14
  -1  -4  -3    4.78    0.16
   1   4   3    4.73    0.13
  -2  -4  -3    0.64    0.06
  -2  -4  -3    0.76    0.06
  -2  -4  -3    0.51    0.05
  -3  -4  -3   13.63    0.36
  -3  -4  -3   13.00    0.39
  -3  -4  -3   13.58    0.39
  -4  -4  -3    3.09    0.14
  -4  -4  -3    3.10    0.13
  -4  -4  -3    3.00    0.14
  -5  -4  -3    3.28    0.14
  -5  -4  -3    3.05    0.15
  -5  -4  -3    3.01    0.15
  -6  -4  -3    3.38    0.17
  -6  -4  -3    3.41    0.15
  -6  -4  -3    3.48    0.18
  -8   5   3   -0.02    0.05
  -8   5   3   -0.05    0.05
  -7   5   3    0.41    0.08
   6  -5  -3    1.37    0.08
  -6   5   3    1.31    0.11
   5  -5  -3    4.43    0.15
  -5   5   3    3.88    0.19
   3  -5  -3    0.70    0.07
   3  -5  -3    0.70    0.04
   3  -5  -3    0.65    0.04
  -3   5   3    0.81    0.08
  -3   5   3    0.71    0.04
   2  -5  -3   22.21    0.56
   2  -5  -3   22.10    0.51
   2  -5  -3   21.88    0.56
   2  -5  -3   21.29    0.57
  -2   5   3   21.68    0.60
   1  -5  -3    2.89    0.09
   1  -5  -3    2.79    0.10
   1  -5  -3    2.73    0.09
   1  -5  -3    2.85    0.11
   0  -5  -3    0.72    0.06
   0  -5  -3    0.72    0.05
   0  -5  -3    0.76    0.05
  -1  -5  -3    0.04    0.03
  -1  -5  -3    0.00    0.03
   1   5   3    0.02    0.02
  -2  -5  -3   34.82    0.83
  -2  -5  -3   34.75    0.92
  -2  -5  -3   35.33    0.90
  -3  -5  -3   11.25    0.31
  -3  -5  -3   10.85    0.33
  -3  -5  -3   10.73    0.33
  -4  -5  -3    1.69    0.11
  -4  -5  -3    1.77    0.11
  -4  -5  -3    1.60    0.10
  -5  -5  -3    1.83    0.12
  -5  -5  -3    1.79    0.12
  -5  -5  -3    1.81    0.11
  -6  -5  -3    0.21    0.06
  -6  -5  -3    0.28    0.07
  -7   6   3    2.81    0.18
  -6   6   3    3.38    0.19
   5  -6  -3    0.22    0.03
  -5   6   3    0.18    0.06
   4  -6  -3   10.55    0.29
  -4   6   3   10.19    0.35
   3  -6  -3    5.54    0.16
   3  -6  -3    5.75    0.16
   3  -6  -3    5.34    0.20
  -3   6   3    5.63    0.22
   2  -6  -3    0.42    0.05
   2  -6  -3    0.54    0.04
   2  -6  -3    0.54    0.04
  -2   6   3    0.54    0.07
   1  -6  -3    0.03    0.03
   1  -6  -3    0.01    0.02
   1  -6  -3   -0.01    0.02
   1  -6  -3    0.01    0.03
   0  -6  -3   -0.01    0.02
   0  -6  -3   -0.02    0.03
   0  -6  -3   -0.01    0.03
   0   6   3   -0.01    0.02
  -1  -6  -3    1.02    0.08
  -1  -6  -3    1.21    0.07
  -1  -6  -3    1.07    0.07
  -2  -6  -3   40.32    0.96
  -2  -6  -3   40.55    1.06
  -2  -6  -3   41.13    1.05
  -3  -6  -3   -0.05    0.03
  -3  -6  -3   -0.02    0.03
  -3  -6  -3   -0.07    0.03
  -4  -6  -3   13.37    0.42
  -4  -6  -3   14.10    0.39
  -5  -6  -3    3.10    0.15
  -5  -6  -3    3.01    0.16
  -6   7   3    0.52    0.09
   5  -7  -3    0.91    0.05
  -5   7   3    0.78    0.10
   4  -7  -3    2.87    0.10
  -4   7   3    2.77    0.17
   3  -7  -3   11.92    0.31
   3  -7  -3   11.43    0.35
  -3   7   3   10.86    0.38
   2  -7  -3    0.07    0.04
   2  -7  -3   -0.06    0.02
  -2   7   3   -0.02    0.04
   1  -7  -3    0.09    0.04
   1  -7  -3    0.04    0.02
   0  -7  -3    0.05    0.03
   0  -7  -3    0.05    0.04
   0  -7  -3    0.07    0.03
  -1  -7  -3    1.26    0.08
  -1  -7  -3    0.95    0.09
  -1  -7  -3    1.02    0.07
  -2  -7  -3    7.83    0.25
  -2  -7  -3    8.13    0.26
  -2  -7  -3    8.06    0.27
  -3  -7  -3    2.10    0.11
  -3  -7  -3    2.00    0.12
  -4  -7  -3    0.63    0.08
  -4  -7  -3    0.66    0.08
  -5   8   3    0.09    0.07
  -4   8   3    4.85    0.24
   3  -8  -3    9.18    0.24
   3  -8  -3    8.82    0.30
  -3   8   3    8.75    0.34
   2  -8  -3    0.25    0.05
   2  -8  -3    0.23    0.03
  -2   8   3    0.22    0.07
   1  -8  -3    0.26    0.06
   1  -8  -3    0.27    0.04
   0  -8  -3    0.01    0.04
  -1  -8  -3    2.15    0.13
  -1  -8  -3    2.29    0.11
  -2  -8  -3    3.53    0.17
  -2  -8  -3    3.53    0.15
  -3  -8  -3    0.94    0.09
  -3  -8  -3    1.12    0.10
   3  -9  -3    0.09    0.06
  -3   9   3    0.07    0.07
   2  -9  -3    0.07    0.05
  -2   9   3    0.17    0.07
   1  -9  -3    0.71    0.08
   0  -9  -3    0.78    0.09
  -1  -9  -3    1.24    0.11
   1   9  -4    1.30    0.12
   1   9  -4    1.25    0.09
   1   9  -4    1.35    0.11
  -1  -9   4    1.39    0.10
   0   9  -4    0.08    0.06
   0   9  -4    0.17    0.06
   0   9  -4    0.14    0.04
  -1   9  -4    2.53    0.14
  -1   9  -4    2.44    0.12
  -1   9  -4    2.54    0.17
  -2   9  -4    2.43    0.17
  -2   9  -4    2.16    0.12
  -4  -8   4    0.11    0.05
   3   8  -4    5.38    0.19
  -3  -8   4    5.53    0.19
   2   8  -4    0.78    0.06
   2   8  -4    0.81    0.08
  -2  -8   4    0.72    0.07
  -2  -8   4    0.74    0.08
   1   8  -4    5.02    0.18
   1   8  -4    5.41    0.21
   1   8  -4    5.46    0.23
  -1  -8   4    5.31    0.22
  -1  -8   4    5.37    0.19
   0   8  -4    0.66    0.07
   0   8  -4    0.65    0.06
   0   8  -4    0.67    0.08
   0  -8   4    0.55    0.07
   0  -8   4    0.64    0.07
  -1   8  -4    4.61    0.16
  -1   8  -4    4.30    0.19
  -1   8  -4    4.62    0.21
   1  -8   4    4.50    0.20
  -2   8  -4    1.32    0.08
  -2   8  -4    1.33    0.10
  -2   8  -4    1.42    0.12
  -3   8  -4    0.39    0.08
  -3   8  -4    0.26    0.06
  -3   8  -4    0.40    0.05
  -4   8  -4    1.00    0.08
  -4   8  -4    0.96    0.11
   5   7  -4    0.04    0.03
  -5  -7   4   -0.02    0.04
   4   7  -4    0.79    0.06
  -4  -7   4    0.97    0.10
  -4  -7   4    0.80    0.08
   3   7  -4    0.01    0.02
   3   7  -4    0.00    0.03
  -3  -7   4   -0.02    0.03
  -3  -7   4    0.05    0.04
  -3  -7   4    0.00    0.04
   2   7  -4    0.05    0.03
   2   7  -4    0.08    0.04
  -2  -7   4    0.10    0.03
  -2  -7   4    0.11    0.04
  -2  -7   4    0.05    0.04
   1   7  -4    7.74    0.24
   1   7  -4    8.24    0.27
   1   7  -4    8.42    0.28
  -1  -7   4    8.01    0.23
  -1  -7   4    8.16    0.25
  -1  -7   4    8.28    0.28
   0   7  -4    2.08    0.12
   0   7  -4    2.16    0.09
   0   7  -4    2.13    0.12
   0  -7   4    2.07    0.10
   0  -7   4    2.13    0.12
  -1   7  -4   -0.02    0.02
  -1   7  -4    0.04    0.04
  -1   7  -4    0.05    0.05
   1  -7   4    0.02    0.04
  -2   7  -4    7.15    0.25
  -2   7  -4    7.17    0.22
  -2   7  -4    7.33    0.28
   2  -7   4    7.64    0.27
  -3   7  -4    0.91    0.08
  -3   7  -4    1.08    0.07
  -3   7  -4    1.01    0.10
   3  -7   4    1.09    0.10
  -4   7  -4    0.03    0.05
  -4   7  -4    0.04    0.03
  -4   7  -4   -0.03    0.05
  -5   7  -4    2.53    0.17
  -5   7  -4    2.63    0.13
   6   6  -4    2.22    0.10
  -6  -6   4    2.13    0.12
  -6  -6   4    2.16    0.09
  -5  -6   4    0.69    0.05
  -5  -6   4    0.78    0.07
   4   6  -4    3.01    0.13
   4   6  -4    2.92    0.11
  -4  -6   4    2.78    0.14
  -4  -6   4    2.87    0.12
  -4  -6   4    2.83    0.10
  -4  -6   4    2.88    0.12
   3   6  -4    1.79    0.09
   3   6  -4    1.71    0.08
  -3  -6   4    1.70    0.07
  -3  -6   4    1.81    0.11
  -3  -6   4    1.78    0.09
  -3  -6   4    1.85    0.09
   2   6  -4    1.45    0.09
   2   6  -4    1.44    0.07
  -2  -6   4    1.37    0.08
  -2  -6   4    1.56    0.10
  -2  -6   4    1.44    0.08
   1   6  -4    0.35    0.05
   1   6  -4    0.42    0.05
   1   6  -4    0.41    0.04
  -1  -6   4    0.42    0.05
  -1  -6   4    0.44    0.05
  -1  -6   4    0.33    0.04
   0   6  -4    0.88    0.08
   0   6  -4    0.99    0.07
   0   6  -4    0.90    0.06
   0  -6   4    0.86    0.06
   0  -6   4    0.88    0.08
   0  -6   4    0.93    0.05
  -1   6  -4    4.07    0.14
  -1   6  -4    4.39    0.18
  -1   6  -4    4.08    0.16
   1  -6   4    4.13    0.17
  -2   6  -4    5.21    0.21
  -2   6  -4    4.77    0.18
  -2   6  -4    4.96    0.16
   2  -6   4    5.11    0.20
  -3   6  -4    0.69    0.06
  -3   6  -4    0.71    0.08
  -3   6  -4    0.58    0.06
   3  -6   4    0.81    0.08
  -4   6  -4    4.61    0.21
  -4   6  -4    4.16    0.16
   4  -6   4    4.13    0.19
  -5   6  -4    3.39    0.14
  -5   6  -4    3.46    0.19
   5  -6   4    3.76    0.18
  -6   6  -4    2.39    0.17
  -6   6  -4    2.51    0.13
   7   5  -4    0.51    0.05
  -7  -5   4    0.55    0.06
  -7  -5   4    0.40    0.07
   6   5  -4    9.27    0.26
  -6  -5   4    8.90    0.28
  -6  -5   4    8.71    0.25
   5   5  -4   11.32    0.34
   5   5  -4   11.41    0.31
  -5  -5   4   11.19    0.30
  -5  -5   4   11.27    0.32
  -5  -5   4   11.42    0.33
   4   5  -4   31.51    0.78
   4   5  -4   32.16    0.84
  -4  -5   4   33.37    0.82
  -4  -5   4   31.25    0.77
  -4  -5   4   33.13    0.88
  -4  -5   4   32.08    0.78
   3   5  -4    0.26    0.03
   3   5  -4    0.19    0.04
  -3  -5   4    0.16    0.04
  -3  -5   4    0.27    0.05
  -3  -5   4    0.24    0.03
  -3  -5   4    0.20    0.03
   2   5  -4    9.65    0.26
   2   5  -4    9.70    0.29
  -2  -5   4    9.95    0.26
  -2  -5   4    9.94    0.27
  -2  -5   4    9.71    0.25
  -2  -5   4   10.01    0.31
   1   5  -4    5.51    0.18
   1   5  -4    5.37    0.16
  -1  -5   4    5.59    0.17
  -1  -5   4    5.18    0.19
  -1  -5   4    5.44    0.16
   0   5  -4    9.38    0.28
   0   5  -4    9.48    0.28
   0   5  -4    9.18    0.25
   0  -5   4    9.57    0.24
   0  -5   4    9.49    0.27
   0  -5   4    9.29    0.30
  -1   5  -4    0.05    0.03
  -1   5  -4    0.06    0.02
  -1   5  -4    0.12    0.03
   1  -5   4    0.09    0.02
   1  -5   4    0.06    0.03
  -2   5  -4   10.21    0.28
  -2   5  -4   10.06    0.31
  -2   5  -4   10.32    0.32
   2  -5   4    9.94    0.32
  -3   5  -4    1.64    0.11
  -3   5  -4    1.72    0.08
   3  -5   4    1.65    0.10
  -4   5  -4    0.45    0.07
  -4   5  -4    0.36    0.04
   4  -5   4    0.38    0.06
  -5   5  -4   20.71    0.53
  -5   5  -4   19.80    0.61
   5  -5   4   20.85    0.62
  -6   5  -4    0.82    0.07
  -6   5  -4    0.93    0.10
   7   4  -4    3.59    0.12
  -7  -4   4    3.32    0.13
  -7  -4   4    3.47    0.15
  -7  -4   4    3.46    0.17
   6   4  -4    2.95    0.11
  -6  -4   4    3.10    0.13
  -6  -4   4    2.87    0.12
  -6  -4   4    2.99    0.14
  -6  -4   4    3.07    0.13
   5   4  -4    0.52    0.05
   5   4  -4    0.63    0.06
  -5  -4   4    0.73    0.06
  -5  -4   4    0.57    0.06
  -5  -4   4    0.59    0.06
  -5  -4   4    0.61    0.05
  -5  -4   4    0.69    0.07
   4   4  -4   17.53    0.47
   4   4  -4   17.00    0.43
  -4  -4   4   16.52    0.43
  -4  -4   4   16.84    0.49
  -4  -4   4   16.82    0.43
  -4  -4   4   17.81    0.45
  -4  -4   4   16.49    0.47
   3   4  -4    3.00    0.10
   3   4  -4    2.79    0.11
  -3  -4   4    3.00    0.10
  -3  -4   4    2.93    0.10
  -3  -4   4    2.69    0.11
  -3  -4   4    2.77    0.12
   2   4  -4    5.63    0.18
   2   4  -4    5.61    0.16
  -2  -4   4    5.74    0.16
  -2  -4   4    5.64    0.19
  -2  -4   4    5.73    0.16
  -2  -4   4    5.56    0.16
   1   4  -4   24.08    0.64
   1   4  -4   24.94    0.59
  -1  -4   4   24.03    0.58
  -1  -4   4   24.69    0.58
  -1  -4   4   25.44    0.67
  -1  -4   4   24.48    0.62
   0   4  -4   75.59    1.85
   0   4  -4   73.34    1.74
   0   4  -4   76.10    1.86
   0  -4   4   76.83    1.68
   0  -4   4   74.21    1.92
  -1   4  -4   14.13    0.39
  -1   4  -4   14.59    0.40
  -1   4  -4   13.95    0.36
   1  -4   4   14.04    0.41
   1  -4   4   14.49    0.41
   1  -4   4   14.46    0.34
  -2   4  -4   16.27    0.41
  -2   4  -4   16.51    0.46
  -2   4  -4   16.43    0.45
   2  -4   4   15.97    0.47
   2  -4   4   17.00    0.38
   2  -4   4   16.65    0.47
  -3   4  -4    0.01    0.03
  -3   4  -4    0.06    0.02
   3  -4   4    0.05    0.03
  -4   4  -4   10.46    0.29
  -4   4  -4   10.37    0.34
   4  -4   4    9.80    0.33
  -5   4  -4    0.22    0.06
  -5   4  -4    0.19    0.04
   5  -4   4    0.25    0.05
  -6   4  -4    0.09    0.06
  -6   4  -4    0.12    0.04
   6  -4   4    0.08    0.05
  -7   4  -4    2.25    0.16
  -7   4  -4    2.07    0.12
  -8  -3   4    4.24    0.17
  -8  -3   4    4.25    0.16
  -8  -3   4    4.22    0.19
   7   3  -4    0.01    0.02
  -7  -3   4   -0.04    0.04
  -7  -3   4    0.02    0.03
  -7  -3   4   -0.03    0.04
   6   3  -4    2.52    0.09
  -6  -3   4    2.45    0.10
  -6  -3   4    2.44    0.11
  -6  -3   4    2.43    0.13
  -6  -3   4    2.45    0.11
   5   3  -4    6.83    0.22
   5   3  -4    6.58    0.18
  -5  -3   4    6.42    0.20
  -5  -3   4    6.88    0.21
  -5  -3   4    6.71    0.20
  -5  -3   4    6.71    0.23
  -5  -3   4    6.86    0.24
   4   3  -4   15.28    0.38
   4   3  -4   15.24    0.42
  -4  -3   4   15.15    0.44
  -4  -3   4   15.64    0.40
  -4  -3   4   14.76    0.38
  -4  -3   4   15.45    0.39
  -4  -3   4   14.86    0.42
   3   3  -4    0.99    0.06
   3   3  -4    1.01    0.05
   3   3  -4    1.04    0.07
  -3  -3   4    1.00    0.05
  -3  -3   4    1.03    0.05
  -3  -3   4    1.01    0.07
  -3  -3   4    1.05    0.07
  -3  -3   4    1.06    0.06
   2   3  -4    8.94    0.23
   2   3  -4    8.83    0.26
   2   3  -4    9.03    0.27
  -2  -3   4    9.10    0.23
  -2  -3   4    9.07    0.23
  -2  -3   4    8.34    0.26
  -2  -3   4    8.89    0.23
  -2  -3   4    9.23    0.26
   1   3  -4   62.91    1.58
   1   3  -4   65.85    1.63
   1   3  -4   65.74    1.56
   1   3  -4   63.86    1.48
  -1  -3   4   63.09    1.47
  -1  -3   4   62.65    1.63
  -1  -3   4   63.88    1.55
  -1  -3   4   63.83    1.44
   0   3  -4   18.99    0.46
   0   3  -4   18.86    0.50
   0   3  -4   19.93    0.53
   0  -3   4   18.93    0.52
   0  -3   4   19.15    0.46
   0  -3   4   19.16    0.45
  -1   3  -4    1.99    0.07
  -1   3  -4    2.05    0.09
  -1   3  -4    1.92    0.08
   1  -3   4    1.86    0.09
   1  -3   4    1.99    0.06
   1  -3   4    2.02    0.09
  -2   3  -4    4.77    0.14
  -2   3  -4    4.92    0.16
  -2   3  -4    4.85    0.13
  -2   3  -4    4.86    0.17
   2  -3   4    4.73    0.17
   2  -3   4    4.85    0.12
   2  -3   4    4.78    0.17
  -3   3  -4   38.63    1.01
  -3   3  -4   39.49    1.04
  -3   3  -4   39.24    0.89
  -3   3  -4   39.45    0.93
   3  -3   4   41.14    1.04
   3  -3   4   37.90    1.04
  -4   3  -4    0.08    0.04
  -4   3  -4    0.12    0.04
  -4   3  -4    0.08    0.02
  -4   3  -4    0.07    0.03
   4  -3   4    0.07    0.04
  -5   3  -4    4.24    0.15
  -5   3  -4    3.85    0.18
   5  -3   4    4.29    0.19
  -6   3  -4    5.83    0.25
  -6   3  -4    5.89    0.20
   6  -3   4    6.29    0.26
  -7   3  -4    3.05    0.14
  -7   3  -4    3.09    0.18
   7  -3   4    2.87    0.18
   8   2  -4    1.21    0.11
  -8  -2   4    1.06    0.10
  -8  -2   4    0.85    0.08
  -8  -2   4    0.91    0.08
   7   2  -4    3.33    0.17
  -7  -2   4    3.37    0.13
  -7  -2   4    3.17    0.14
  -7  -2   4    3.27    0.15
  -7  -2   4    3.24    0.14
   6   2  -4    9.76    0.24
  -6  -2   4    9.71    0.31
  -6  -2   4    9.81    0.29
  -6  -2   4    9.30    0.27
  -6  -2   4    9.81    0.28
   5   2  -4    5.40    0.19
   5   2  -4    5.56    0.15
  -5  -2   4    5.44    0.19
  -5  -2   4    5.81    0.20
  -5  -2   4    5.76    0.17
  -5  -2   4    5.59    0.17
  -5  -2   4    5.66    0.18
   4   2  -4  131.95    3.03
   4   2  -4  136.56    3.33
   4   2  -4  132.38    3.24
  -4  -2   4  129.53    3.04
  -4  -2   4  130.80    3.32
  -4  -2   4  135.79    3.20
  -4  -2   4  129.50    3.21
  -4  -2   4  131.93    2.96
   3   2  -4   12.21    0.30
   3   2  -4   12.25    0.35
   3   2  -4   12.19    0.33
  -3  -2   4   12.12    0.30
  -3  -2   4   12.22    0.34
  -3  -2   4   11.78    0.34
  -3  -2   4   11.95    0.30
  -3  -2   4   12.32    0.31
   2   2  -4   22.89    0.60
   2   2  -4   22.78    0.58
   2   2  -4   22.73    0.53
  -2  -2   4   22.85    0.56
  -2  -2   4   21.89    0.60
  -2  -2   4   22.63    0.54
  -2  -2   4   22.87    0.58
  -2  -2   4   22.56    0.53
   1   2  -4    0.40    0.02
   1   2  -4    0.36    0.04
   1   2  -4    0.38    0.03
   1   2  -4    0.38    0.02
  -1  -2   4    0.34    0.03
  -1  -2   4    0.46    0.04
  -1  -2   4    0.35    0.03
  -1  -2   4    0.38    0.02
   0   2  -4    0.24    0.02
   0   2  -4    0.29    0.03
   0   2  -4    0.22    0.02
   0   2  -4    0.19    0.02
   0  -2   4    0.25    0.02
   0  -2   4    0.30    0.03
   0  -2   4    0.24    0.02
  -1   2  -4    2.09    0.07
  -1   2  -4    2.06    0.07
  -1   2  -4    2.14    0.08
  -1   2  -4    2.21    0.09
  -1   2  -4    2.07    0.09
   1  -2   4    2.13    0.07
   1  -2   4    2.30    0.09
   1  -2   4    2.12    0.09
  -2   2  -4  109.03    2.46
  -2   2  -4  112.26    2.79
  -2   2  -4  109.12    2.54
  -2   2  -4  109.87    2.78
  -2   2  -4  113.17    2.69
   2  -2   4  112.92    2.78
   2  -2   4  106.71    2.78
  -3   2  -4   17.15    0.40
  -3   2  -4   16.69    0.48
  -3   2  -4   17.23    0.47
  -3   2  -4   16.36    0.42
   3  -2   4   16.84    0.49
   3  -2   4   17.54    0.48
  -4   2  -4    6.93    0.19
  -4   2  -4    7.09    0.24
  -4   2  -4    7.29    0.25
  -4   2  -4    6.76    0.20
   4  -2   4    6.93    0.25
  -5   2  -4   10.78    0.31
  -5   2  -4   11.76    0.36
  -5   2  -4   10.73    0.36
  -5   2  -4   11.45    0.29
   5  -2   4   11.53    0.38
  -6   2  -4    4.56    0.21
  -6   2  -4    4.30    0.16
   6  -2   4    4.51    0.21
  -7   2  -4    0.87    0.07
  -7   2  -4    0.70    0.09
   8   1  -4    1.49    0.12
  -8  -1   4    1.55    0.09
  -8  -1   4    1.46    0.10
  -8  -1   4    1.55    0.11
  -8  -1   4    1.65    0.11
   7   1  -4    1.12    0.10
  -7  -1   4    1.02    0.07
  -7  -1   4    1.09    0.09
  -7  -1   4    1.11    0.09
  -7  -1   4    1.00    0.08
   6   1  -4    0.76    0.08
  -6  -1   4    0.99    0.08
  -6  -1   4    0.87    0.07
  -6  -1   4    0.71    0.06
  -6  -1   4    0.76    0.06
  -5  -1   4    1.06    0.07
  -5  -1   4    1.04    0.08
  -5  -1   4    1.08    0.06
  -5  -1   4    0.93    0.06
  -5  -1   4    1.03    0.07
   4   1  -4    0.25    0.03
   4   1  -4    0.17    0.03
  -4  -1   4    0.17    0.03
  -4  -1   4    0.17    0.03
  -4  -1   4    0.20    0.03
  -4  -1   4    0.17    0.03
  -4  -1   4    0.18    0.03
   3   1  -4   40.16    1.03
   3   1  -4   39.43    1.00
  -3  -1   4   39.91    0.91
  -3  -1   4   40.25    1.00
  -3  -1   4   38.52    1.02
  -3  -1   4   40.84    0.98
  -3  -1   4   40.45    0.93
   2   1  -4    4.17    0.13
   2   1  -4    4.18    0.13
  -2  -1   4    4.13    0.13
  -2  -1   4    4.22    0.11
  -2  -1   4    4.07    0.13
  -2  -1   4    4.23    0.12
  -2  -1   4    4.42    0.11
   1   1  -4  359.82    8.52
   1   1  -4  341.65    8.57
   1   1  -4  378.14    8.91
   1   1  -4  368.22    9.18
  -1  -1   4  357.04    8.13
  -1  -1   4  377.12    8.36
  -1  -1   4  355.66    9.15
  -1  -1   4  373.37    8.85
   0   1  -4   29.42    0.74
   0   1  -4   29.93    0.68
   0   1  -4   29.11    0.67
   0   1  -4   29.69    0.76
   0   1  -4   29.33    0.68
   0   1  -4   29.69    0.73
   0  -1   4   29.50    0.68
   0  -1   4   29.49    0.67
   0  -1   4   29.28    0.76
  -1   1  -4  145.15    3.59
  -1   1  -4  140.40    3.25
  -1   1  -4  149.29    3.65
  -1   1  -4  151.08    3.33
  -1   1  -4  148.73    3.53
  -1   1  -4  144.74    3.37
   1  -1   4  144.85    3.65
   1  -1   4  144.79    3.64
  -2   1  -4    5.80    0.16
  -2   1  -4    5.35    0.15
  -2   1  -4    5.69    0.18
  -2   1  -4    5.59    0.18
  -2   1  -4    5.48    0.15
  -2   1  -4    5.72    0.19
   2  -1   4    5.47    0.19
  -3   1  -4    4.96    0.18
  -3   1  -4    5.08    0.18
  -3   1  -4    4.99    0.15
  -3   1  -4    5.01    0.14
  -3   1  -4    5.32    0.19
   3  -1   4    5.17    0.17
   3  -1   4    4.91    0.18
  -4   1  -4    7.63    0.21
  -4   1  -4    7.63    0.26
  -4   1  -4    7.73    0.25
  -4   1  -4    7.47    0.21
  -4   1  -4    7.65    0.22
   4  -1   4    7.35    0.26
  -5   1  -4    4.16    0.15
  -5   1  -4    4.44    0.15
  -5   1  -4    4.34    0.18
  -5   1  -4    4.27    0.19
   5  -1   4    4.36    0.19
  -6   1  -4    4.96    0.17
  -6   1  -4    4.96    0.17
  -6   1  -4    4.86    0.21
   6  -1   4    5.21    0.23
  -7   1  -4    0.04    0.04
  -7   1  -4    0.00    0.06
  -9   0   4    2.84    0.14
  -9   0   4    2.93    0.17
  -8   0   4    1.96    0.13
  -8   0   4    2.09    0.11
  -8   0   4    2.24    0.11
  -8   0   4    1.87    0.13
   7   0  -4    0.91    0.09
  -7   0   4    1.00    0.07
  -7   0   4    0.98    0.09
  -7   0   4    0.95    0.09
  -7   0   4    0.86    0.07
   6   0  -4   -0.01    0.03
  -6   0   4    0.03    0.03
  -6   0   4    0.02    0.02
  -6   0   4    0.02    0.03
  -6   0   4   -0.03    0.02
   5   0  -4    0.40    0.04
   5   0  -4    0.36    0.05
  -5   0   4    0.48    0.05
  -5   0   4    0.44    0.05
  -5   0   4    0.33    0.04
  -5   0   4    0.27    0.05
  -5   0   4    0.40    0.04
   4   0  -4   69.06    1.75
   4   0  -4   69.71    1.74
  -4   0   4   67.01    1.55
  -4   0   4   68.28    1.70
  -4   0   4   69.49    1.69
  -4   0   4   68.27    1.74
  -4   0   4   71.03    1.59
   3   0  -4   44.74    1.13
   3   0  -4   44.41    1.12
  -3   0   4   43.86    1.11
  -3   0   4   44.90    1.13
  -3   0   4   45.69    1.03
  -3   0   4   44.07    1.01
  -3   0   4   44.89    1.09
   2   0  -4   24.16    0.61
   2   0  -4   23.48    0.62
  -2   0   4   23.86    0.62
  -2   0   4   23.88    0.59
  -2   0   4   24.46    0.61
  -2   0   4   24.22    0.55
   1   0  -4  307.46    6.81
   1   0  -4  301.90    7.46
   1   0  -4  300.52    7.63
   1   0  -4  317.43    7.42
  -1   0   4  299.73    7.63
  -1   0   4  288.37    6.76
  -1   0   4  307.19    7.35
   0   0  -4  169.21    4.40
   0   0  -4  172.11    3.94
   0   0  -4  179.56    4.34
   0   0   4  176.84    4.28
   0   0   4  171.57    4.43
   0   0   4  180.95    4.09
   0   0   4  178.27    4.10
   0   0   4  175.47    4.27
  -1   0  -4    0.27    0.01
  -1   0  -4    0.22    0.03
  -1   0  -4    0.26    0.03
  -1   0  -4    0.24    0.03
  -1   0  -4    0.29    0.02
  -1   0  -4    0.30    0.01
   1   0   4    0.29    0.03
   1   0   4    0.28    0.03
   1   0   4    0.28    0.02
  -2   0  -4   33.35    0.84
  -2   0  -4   34.20    0.88
  -2   0  -4   33.89    0.88
  -2   0  -4   33.94    0.86
  -2   0  -4   34.11    0.83
  -2   0  -4   33.00    0.78
  -2   0  -4   35.47    0.78
  -2   0  -4   33.16    0.79
   2   0   4   33.81    0.89
  -3   0  -4   16.05    0.44
  -3   0  -4   16.00    0.40
  -3   0  -4   16.41    0.46
  -3   0  -4   16.66    0.41
  -3   0  -4   15.93    0.45
  -3   0  -4   15.97    0.40
   3   0   4   15.83    0.46
  -4   0  -4   21.28    0.58
  -4   0  -4   21.15    0.52
  -4   0  -4   20.85    0.52
  -4   0  -4   22.59    0.54
  -4   0  -4   21.14    0.59
   4   0   4   21.00    0.61
  -5   0  -4    7.29    0.26
  -5   0  -4    6.93    0.21
  -5   0  -4    7.24    0.26
  -5   0  -4    7.05    0.21
   5   0   4    7.65    0.27
  -6   0  -4    1.45    0.09
  -6   0  -4    1.34    0.08
  -6   0  -4    1.34    0.11
  -7   0  -4    0.00    0.06
  -7   0  -4    0.00    0.03
  -7   0  -4    0.04    0.04
  -9   1   4    3.59    0.19
  -9   1   4    3.46    0.19
  -9   1   4    3.68    0.16
  -8   1   4    4.77    0.17
  -8   1   4    4.76    0.21
  -8   1   4    4.72    0.21
   7  -1  -4    2.25    0.13
  -7   1   4    2.07    0.09
  -7   1   4    2.01    0.12
  -7   1   4    2.09    0.12
  -7   1   4    2.12    0.10
   6  -1  -4    8.40    0.28
  -6   1   4    8.77    0.24
  -6   1   4    8.47    0.23
  -6   1   4    8.53    0.27
  -6   1   4    8.14    0.28
   5  -1  -4   65.44    1.61
   5  -1  -4   62.29    1.62
  -5   1   4   63.93    1.57
  -5   1   4   59.68    1.58
  -5   1   4   64.21    1.43
  -5   1   4   64.45    1.46
  -5   1   4   62.47    1.61
   4  -1  -4    8.06    0.23
   4  -1  -4    7.81    0.23
  -4   1   4    7.86    0.20
  -4   1   4    7.94    0.19
  -4   1   4    7.81    0.23
  -4   1   4    7.96    0.23
  -4   1   4    7.47    0.24
   3  -1  -4   16.82    0.44
   3  -1  -4   16.38    0.43
  -3   1   4   16.87    0.43
  -3   1   4   16.76    0.44
  -3   1   4   16.69    0.45
  -3   1   4   16.79    0.40
   2  -1  -4   91.46    2.39
   2  -1  -4   91.52    2.17
  -2   1   4   89.99    2.18
  -2   1   4   89.58    2.28
  -2   1   4   88.83    2.19
  -2   1   4   89.27    2.01
   1  -1  -4   31.02    0.77
   1  -1  -4   30.04    0.71
  -1   1   4   31.03    0.76
  -1   1   4   31.30    0.79
   0  -1  -4   17.12    0.43
   0  -1  -4   16.83    0.41
   0  -1  -4   17.74    0.43
   0   1   4   17.20    0.44
   0   1   4   17.17    0.43
   0   1   4   16.72    0.45
   0   1   4   17.64    0.43
  -1  -1  -4    3.13    0.11
  -1  -1  -4    2.98    0.10
  -1  -1  -4    3.20    0.09
  -1  -1  -4    3.07    0.10
   1   1   4    3.19    0.08
   1   1   4    3.07    0.09
   1   1   4    3.03    0.11
  -2  -1  -4  108.92    2.44
  -2  -1  -4  103.00    2.64
  -2  -1  -4  103.03    2.35
  -2  -1  -4  107.25    2.57
  -2  -1  -4  106.05    2.56
   2   1   4  103.39    2.65
  -3  -1  -4    1.55    0.05
  -3  -1  -4    1.34    0.07
  -3  -1  -4    1.51    0.05
  -3  -1  -4    1.43    0.05
  -3  -1  -4    1.44    0.05
  -3  -1  -4    1.47    0.09
  -3  -1  -4    1.39    0.08
   3   1   4    1.40    0.09
  -4  -1  -4   27.05    0.72
  -4  -1  -4   26.88    0.65
  -4  -1  -4   26.70    0.64
  -4  -1  -4   26.39    0.73
   4   1   4   27.50    0.75
  -5  -1  -4    0.05    0.04
  -5  -1  -4    0.05    0.03
  -5  -1  -4    0.13    0.03
  -5  -1  -4    0.05    0.04
  -6  -1  -4    4.74    0.20
  -6  -1  -4    4.55    0.15
  -6  -1  -4    4.68    0.20
  -6  -1  -4    4.65    0.17
  -7  -1  -4    0.47    0.06
  -7  -1  -4    0.46    0.08
  -7  -1  -4    0.45    0.05
  -9   2   4   -0.04    0.06
  -9   2   4   -0.01    0.06
  -8   2   4    5.40    0.23
  -8   2   4    5.76    0.23
   7  -2  -4    0.34    0.06
  -7   2   4    0.28    0.06
  -7   2   4    0.29    0.06
   6  -2  -4    8.52    0.28
  -6   2   4    9.04    0.23
  -6   2   4    8.52    0.29
  -6   2   4    8.78    0.28
   5  -2  -4    8.90    0.27
   5  -2  -4    9.38    0.26
  -5   2   4    8.95    0.29
  -5   2   4    8.92    0.28
  -5   2   4    9.01    0.23
   4  -2  -4    9.96    0.29
   4  -2  -4   10.60    0.28
  -4   2   4   10.41    0.31
  -4   2   4   10.20    0.30
  -4   2   4   10.60    0.26
  -4   2   4   10.32    0.29
   3  -2  -4   95.05    2.54
   3  -2  -4  103.91    2.55
  -3   2   4  100.76    2.50
  -3   2   4  102.03    2.44
  -3   2   4   99.04    2.23
   2  -2  -4  135.21    3.03
   2  -2  -4  138.24    3.28
  -2   2   4  140.42    3.03
  -2   2   4  131.69    3.49
   1  -2  -4    1.86    0.07
   1  -2  -4    2.00    0.07
  -1   2   4    2.09    0.06
   0  -2  -4    1.94    0.07
   0  -2  -4    1.89    0.06
   0  -2  -4    1.81    0.07
   0   2   4    1.83    0.06
  -1  -2  -4   33.56    0.86
  -1  -2  -4   33.51    0.79
  -1  -2  -4   33.84    0.88
   1   2   4   35.78    0.89
   1   2   4   35.18    0.79
  -2  -2  -4   57.84    1.32
  -2  -2  -4   57.76    1.44
  -2  -2  -4   58.84    1.48
   2   2   4   58.22    1.49
  -3  -2  -4   14.83    0.42
  -3  -2  -4   14.98    0.42
  -3  -2  -4   14.72    0.38
   3   2   4   15.33    0.44
  -4  -2  -4    1.35    0.09
  -4  -2  -4    1.23    0.08
  -4  -2  -4    1.28    0.05
  -4  -2  -4    1.30    0.07
  -5  -2  -4   12.00    0.38
  -5  -2  -4   12.42    0.38
  -5  -2  -4   12.01    0.31
  -5  -2  -4   12.37    0.34
  -6  -2  -4   13.17    0.33
  -6  -2  -4   12.81    0.41
  -6  -2  -4   12.76    0.42
  -6  -2  -4   13.55    0.37
  -7  -2  -4    5.18    0.20
  -7  -2  -4    5.14    0.23
  -7  -2  -4    5.01    0.16
  -8   3   4    0.87    0.10
  -8   3   4    0.88    0.09
   7  -3  -4    7.44    0.25
  -7   3   4    7.25    0.27
  -7   3   4    7.19    0.27
   6  -3  -4    3.69    0.15
  -6   3   4    3.67    0.16
  -6   3   4    3.64    0.17
   5  -3  -4   21.64    0.54
   5  -3  -4   20.21    0.55
  -5   3   4   20.19    0.57
  -5   3   4   20.31    0.48
   4  -3  -4    1.55    0.06
   4  -3  -4    1.51    0.06
  -4   3   4    1.49    0.06
  -4   3   4    1.53    0.07
  -4   3   4    1.49    0.09
   3  -3  -4    2.73    0.10
  -3   3   4    2.83    0.12
  -3   3   4    2.75    0.09
   2  -3  -4    6.88    0.18
   2  -3  -4    7.05    0.20
  -2   3   4    6.64    0.18
   1  -3  -4    1.24    0.06
   1  -3  -4    1.21    0.06
   0  -3  -4    2.69    0.10
   0  -3  -4    2.81    0.09
   0  -3  -4    2.75    0.09
   0   3   4    2.92    0.09
  -1  -3  -4    0.93    0.05
  -1  -3  -4    0.89    0.05
  -1  -3  -4    0.80    0.06
   1   3   4    1.03    0.03
  -2  -3  -4    6.69    0.19
  -2  -3  -4    6.38    0.20
  -2  -3  -4    6.33    0.20
  -3  -3  -4    3.88    0.15
  -3  -3  -4    4.12    0.14
  -3  -3  -4    3.87    0.15
  -4  -3  -4    4.12    0.15
  -4  -3  -4    3.78    0.16
  -4  -3  -4    4.05    0.17
  -5  -3  -4    1.26    0.09
  -5  -3  -4    1.38    0.10
  -5  -3  -4    1.29    0.10
  -6  -3  -4    1.94    0.12
  -6  -3  -4    1.80    0.11
  -6  -3  -4    1.76    0.12
  -7  -3  -4    0.95    0.09
  -7  -3  -4    0.75    0.10
  -8   4   4    2.75    0.17
  -8   4   4    2.69    0.17
   7  -4  -4    6.63    0.23
  -7   4   4    6.57    0.26
  -7   4   4    6.75    0.27
   6  -4  -4    5.30    0.18
  -6   4   4    5.33    0.22
   5  -4  -4    0.90    0.05
   5  -4  -4    0.91    0.05
  -5   4   4    0.87    0.08
   4  -4  -4    0.08    0.02
  -4   4   4    0.10    0.04
  -4   4   4    0.09    0.02
   3  -4  -4   17.35    0.41
   3  -4  -4   16.72    0.45
  -3   4   4   17.32    0.40
  -3   4   4   16.87    0.48
   2  -4  -4   26.48    0.60
   2  -4  -4   25.34    0.66
   1  -4  -4    7.22    0.22
   1  -4  -4    7.77    0.20
   0  -4  -4    0.51    0.04
   0  -4  -4    0.52    0.03
   0  -4  -4    0.49    0.05
  -1  -4  -4   20.34    0.54
  -1  -4  -4   20.25    0.54
  -1  -4  -4   20.64    0.51
   1   4   4   21.67    0.52
   1   4   4   20.45    0.51
  -2  -4  -4   10.80    0.32
  -2  -4  -4   10.58    0.31
  -2  -4  -4   10.52    0.29
  -3  -4  -4    0.05    0.03
  -3  -4  -4   -0.01    0.03
  -3  -4  -4   -0.03    0.03
  -4  -4  -4    7.24    0.23
  -4  -4  -4    7.12    0.25
  -4  -4  -4    6.95    0.25
  -5  -4  -4    0.23    0.06
  -5  -4  -4    0.31    0.06
  -5  -4  -4    0.23    0.05
  -6  -4  -4    0.00    0.04
  -6  -4  -4    0.03    0.05
  -8   5   4    0.90    0.11
  -8   5   4    1.21    0.13
  -7   5   4    0.08    0.06
   6  -5  -4    2.61    0.10
  -6   5   4    2.35    0.14
   5  -5  -4    1.55    0.06
   5  -5  -4    1.61    0.06
  -5   5   4    1.42    0.11
  -4   5   4   29.25    0.80
   3  -5  -4    2.05    0.10
   3  -5  -4    2.14    0.08
  -3   5   4    1.93    0.11
  -3   5   4    2.17    0.08
   2  -5  -4   12.54    0.31
   2  -5  -4   12.52    0.35
   1  -5  -4   10.65    0.31
   1  -5  -4   10.89    0.28
   1  -5  -4   10.91    0.28
   0  -5  -4    1.16    0.05
   0  -5  -4    1.04    0.07
   0  -5  -4    1.12    0.07
  -1  -5  -4    1.82    0.09
  -1  -5  -4    1.89    0.10
  -1  -5  -4    1.77    0.08
  -2  -5  -4    0.86    0.06
  -2  -5  -4    0.90    0.07
  -2  -5  -4    0.93    0.07
  -3  -5  -4    8.91    0.29
  -3  -5  -4    8.99    0.29
  -3  -5  -4    9.00    0.27
  -4  -5  -4    2.18    0.12
  -4  -5  -4    2.22    0.12
  -4  -5  -4    2.27    0.12
  -5  -5  -4   11.19    0.34
  -5  -5  -4   10.65    0.36
  -6  -5  -4    0.45    0.08
  -7   6   4    0.16    0.07
   6  -6  -4    0.77    0.05
  -6   6   4    0.58    0.08
  -5   6   4    0.17    0.06
  -4   6   4    6.07    0.24
   3  -6  -4    2.97    0.13
  -3   6   4    3.06    0.16
   2  -6  -4   11.37    0.34
   2  -6  -4   12.17    0.30
   1  -6  -4    2.71    0.08
   1  -6  -4    2.56    0.08
   1  -6  -4    2.56    0.12
   1  -6  -4    2.74    0.11
   0  -6  -4    3.08    0.14
   0  -6  -4    3.59    0.13
   0  -6  -4    3.59    0.12
  -1  -6  -4   -0.01    0.03
  -1  -6  -4    0.05    0.03
  -1  -6  -4    0.05    0.03
  -2  -6  -4    0.25    0.05
  -2  -6  -4    0.28    0.05
  -2  -6  -4    0.23    0.06
  -3  -6  -4    0.70    0.07
  -3  -6  -4    0.62    0.06
  -3  -6  -4    0.72    0.07
  -4  -6  -4    0.03    0.04
  -4  -6  -4    0.02    0.05
  -5  -6  -4    0.52    0.08
  -5  -6  -4    0.65    0.08
  -6   7   4    0.11    0.06
  -5   7   4    0.74    0.10
  -4   7   4    0.17    0.06
   3  -7  -4    0.25    0.05
  -3   7   4    0.10    0.06
   2  -7  -4    1.43    0.10
   1  -7  -4    1.19    0.05
   1  -7  -4    1.12    0.09
   0  -7  -4    0.19    0.03
   0  -7  -4    0.22    0.04
   0  -7  -4    0.06    0.04
  -1  -7  -4    3.02    0.12
  -1  -7  -4    2.69    0.13
  -1  -7  -4    2.88    0.13
  -2  -7  -4    0.23    0.05
  -2  -7  -4    0.32    0.06
  -3  -7  -4    0.18    0.06
  -3  -7  -4    0.30    0.06
  -4  -7  -4    0.41    0.07
  -4  -7  -4    0.37    0.06
  -5   8   4    0.36    0.09
  -4   8   4    0.23    0.08
   3  -8  -4    1.00    0.10
  -3   8   4    0.94    0.11
   2  -8  -4    0.17    0.05
  -2   8   4    0.21    0.07
   1  -8  -4    0.25    0.03
   1  -8  -4    0.22    0.06
   0  -8  -4    0.95    0.09
  -1  -8  -4    0.59    0.08
  -1  -8  -4    0.62    0.07
  -2  -8  -4    0.44    0.07
  -2  -8  -4    0.53    0.07
   3  -9  -4    2.25    0.14
  -3   9   4    2.21    0.17
   2  -9  -4    0.02    0.05
  -2   9   4    0.11    0.07
   1  -9  -4    2.21    0.13
   0  -9  -4    0.34    0.07
   1   9  -5    0.07    0.05
   0   9  -5    9.24    0.32
   0   9  -5    9.17    0.34
   0   9  -5    8.71    0.28
  -1   9  -5    0.01    0.04
  -1   9  -5    0.04    0.06
  -4  -8   5    3.54    0.16
   3   8  -5    0.21    0.04
  -3  -8   5    0.21    0.05
   2   8  -5    0.06    0.04
   2   8  -5    0.03    0.03
  -2  -8   5   -0.02    0.05
   1   8  -5    0.65    0.08
   1   8  -5    0.52    0.07
   1   8  -5    0.60    0.06
  -1  -8   5    0.56    0.06
  -1  -8   5    0.51    0.08
   0   8  -5    0.62    0.08
   0   8  -5    0.70    0.08
   0   8  -5    0.52    0.06
   0  -8   5    0.62    0.08
  -1   8  -5    0.07    0.05
  -1   8  -5    0.10    0.04
  -1   8  -5    0.11    0.06
   1  -8   5    0.03    0.05
  -2   8  -5    1.06    0.10
  -2   8  -5    1.04    0.08
  -2   8  -5    0.98    0.11
  -3   8  -5    0.52    0.09
  -3   8  -5    0.41    0.06
   5   7  -5    0.99    0.07
  -5  -7   5    1.05    0.06
  -5  -7   5    1.13    0.09
   4   7  -5    6.00    0.19
  -4  -7   5    6.00    0.17
  -4  -7   5    5.59    0.20
  -4  -7   5    5.82    0.24
   3   7  -5    0.63    0.06
   3   7  -5    0.52    0.05
  -3  -7   5    0.51    0.07
  -3  -7   5    0.53    0.06
   2   7  -5    0.26    0.04
   2   7  -5    0.25    0.06
   2   7  -5    0.37    0.05
  -2  -7   5    0.17    0.05
  -2  -7   5    0.15    0.04
  -2  -7   5    0.16    0.04
   1   7  -5    0.42    0.05
   1   7  -5    0.52    0.07
   1   7  -5    0.41    0.06
  -1  -7   5    0.52    0.05
  -1  -7   5    0.45    0.06
   0   7  -5    0.02    0.04
   0   7  -5   -0.05    0.02
   0   7  -5   -0.05    0.03
   0  -7   5   -0.05    0.04
  -1   7  -5   11.27    0.33
  -1   7  -5   11.68    0.37
  -1   7  -5   11.86    0.38
   1  -7   5   12.10    0.38
  -2   7  -5    4.26    0.16
  -2   7  -5    4.46    0.20
  -2   7  -5    4.38    0.18
   2  -7   5    4.36    0.19
  -3   7  -5    2.00    0.10
  -3   7  -5    1.91    0.12
  -3   7  -5    2.11    0.14
   3  -7   5    2.25    0.14
  -4   7  -5   -0.01    0.04
  -4   7  -5    0.03    0.03
  -4   7  -5    0.07    0.05
  -5   7  -5    0.31    0.08
  -5   7  -5    0.31    0.05
   6   6  -5    0.28    0.04
  -6  -6   5    0.32    0.06
  -6  -6   5    0.36    0.04
   5   6  -5    0.51    0.05
  -5  -6   5    0.41    0.06
  -5  -6   5    0.40    0.04
   4   6  -5    0.13    0.03
   4   6  -5    0.08    0.04
  -4  -6   5    0.07    0.03
  -4  -6   5    0.12    0.03
  -4  -6   5    0.09    0.05
   3   6  -5    0.93    0.07
   3   6  -5    0.99    0.06
  -3  -6   5    0.97    0.05
  -3  -6   5    1.00    0.07
  -3  -6   5    1.00    0.07
  -3  -6   5    0.97    0.09
   2   6  -5   23.63    0.64
   2   6  -5   23.34    0.59
  -2  -6   5   23.75    0.57
  -2  -6   5   23.30    0.57
  -2  -6   5   23.85    0.67
  -2  -6   5   23.98    0.61
   1   6  -5   16.93    0.48
   1   6  -5   16.38    0.44
   1   6  -5   17.36    0.48
  -1  -6   5   17.28    0.50
  -1  -6   5   17.68    0.42
  -1  -6   5   16.36    0.45
   0   6  -5    9.58    0.29
   0   6  -5    8.75    0.25
   0   6  -5    9.01    0.29
   0  -6   5    9.22    0.24
   0  -6   5    9.16    0.30
  -1   6  -5    5.36    0.20
  -1   6  -5    5.02    0.17
  -1   6  -5    5.43    0.20
   1  -6   5    5.13    0.20
  -2   6  -5    0.57    0.06
  -2   6  -5    0.52    0.07
  -2   6  -5    0.56    0.05
   2  -6   5    0.55    0.07
  -3   6  -5    1.43    0.11
  -3   6  -5    1.40    0.08
  -3   6  -5    1.51    0.10
   3  -6   5    1.58    0.11
  -4   6  -5    0.02    0.03
  -4   6  -5    0.08    0.05
  -4   6  -5    0.15    0.05
   4  -6   5   -0.04    0.04
  -5   6  -5    0.32    0.08
  -5   6  -5    0.27    0.06
  -5   6  -5    0.35    0.05
  -6   6  -5    0.18    0.08
   7   5  -5    0.03    0.03
  -7  -5   5    0.07    0.06
  -7  -5   5   -0.03    0.04
   6   5  -5    8.92    0.25
  -6  -5   5    8.35    0.25
  -6  -5   5    8.74    0.27
   5   5  -5    0.61    0.06
   5   5  -5    0.70    0.05
  -5  -5   5    0.60    0.05
  -5  -5   5    0.45    0.06
   4   5  -5   13.39    0.38
   4   5  -5   13.17    0.34
  -4  -5   5   13.04    0.36
  -4  -5   5   12.82    0.35
  -4  -5   5   12.76    0.34
  -4  -5   5   13.53    0.41
   3   5  -5    2.74    0.12
   3   5  -5    2.61    0.10
  -3  -5   5    2.61    0.10
  -3  -5   5    2.64    0.11
  -3  -5   5    2.66    0.10
  -3  -5   5    2.57    0.13
   2   5  -5    5.35    0.16
   2   5  -5    5.20    0.18
  -2  -5   5    5.32    0.15
  -2  -5   5    5.44    0.20
  -2  -5   5    5.35    0.16
  -2  -5   5    5.35    0.16
   1   5  -5   26.62    0.66
   1   5  -5   25.96    0.71
  -1  -5   5   27.45    0.68
  -1  -5   5   28.12    0.64
  -1  -5   5   27.26    0.64
  -1  -5   5   26.59    0.74
   0   5  -5    3.83    0.13
   0   5  -5    4.01    0.15
   0   5  -5    3.94    0.15
   0  -5   5    4.00    0.12
   0  -5   5    4.18    0.17
  -1   5  -5   70.49    1.78
  -1   5  -5   73.39    1.78
  -1   5  -5   70.04    1.66
   1  -5   5   73.07    1.60
   1  -5   5   69.51    1.84
  -2   5  -5   35.72    0.86
  -2   5  -5   35.95    0.93
  -2   5  -5   35.51    0.94
   2  -5   5   36.08    0.97
  -3   5  -5   16.11    0.47
  -3   5  -5   15.90    0.41
  -3   5  -5   15.49    0.45
   3  -5   5   15.16    0.48
  -4   5  -5    4.04    0.17
  -4   5  -5    4.25    0.15
  -4   5  -5    4.21    0.19
   4  -5   5    4.18    0.19
  -5   5  -5    5.37    0.24
  -5   5  -5    5.51    0.19
   5  -5   5    5.81    0.24
  -6   5  -5   -0.04    0.05
  -6   5  -5   -0.02    0.03
   7   4  -5    3.74    0.12
  -7  -4   5    3.76    0.14
  -7  -4   5    3.70    0.18
  -7  -4   5    3.91    0.16
   6   4  -5   15.82    0.40
   6   4  -5   16.02    0.46
  -6  -4   5   16.08    0.42
  -6  -4   5   15.57    0.43
  -6  -4   5   15.46    0.46
   5   4  -5   10.62    0.28
   5   4  -5   10.34    0.32
  -5  -4   5   10.14    0.32
  -5  -4   5   10.48    0.30
  -5  -4   5   10.22    0.29
   4   4  -5   65.12    1.65
   4   4  -5   65.62    1.53
  -4  -4   5   65.51    1.64
  -4  -4   5   67.80    1.61
  -4  -4   5   66.36    1.70
  -4  -4   5   64.23    1.51
  -4  -4   5   65.37    1.53
   3   4  -5    1.10    0.05
   3   4  -5    1.10    0.07
  -3  -4   5    1.26    0.06
  -3  -4   5    1.15    0.06
  -3  -4   5    1.15    0.06
  -3  -4   5    1.23    0.08
   2   4  -5    1.36    0.06
   2   4  -5    1.45    0.08
   2   4  -5    1.91    0.10
  -2  -4   5    1.56    0.07
  -2  -4   5    1.47    0.08
  -2  -4   5    1.42    0.06
  -2  -4   5    1.46    0.06
   1   4  -5   12.19    0.31
   1   4  -5   12.35    0.33
   1   4  -5   11.94    0.34
  -1  -4   5   12.21    0.31
  -1  -4   5   12.21    0.30
  -1  -4   5   12.16    0.36
  -1  -4   5   12.26    0.32
   0   4  -5    6.65    0.19
   0   4  -5    6.82    0.21
   0  -4   5    6.93    0.18
   0  -4   5    7.02    0.23
  -1   4  -5   16.77    0.46
  -1   4  -5   16.62    0.46
  -1   4  -5   16.92    0.42
   1  -4   5   16.81    0.48
   1  -4   5   17.21    0.40
   1  -4   5   16.98    0.49
  -2   4  -5    4.49    0.17
  -2   4  -5    4.44    0.14
  -2   4  -5    4.55    0.16
   2  -4   5    4.52    0.12
   2  -4   5    4.47    0.18
  -3   4  -5    8.84    0.29
  -3   4  -5    8.62    0.27
  -3   4  -5    8.59    0.24
   3  -4   5    8.35    0.29
  -4   4  -5    0.03    0.04
  -4   4  -5   -0.01    0.02
   4  -4   5   -0.03    0.04
  -5   4  -5    4.59    0.17
  -5   4  -5    4.58    0.21
   5  -4   5    4.82    0.21
  -6   4  -5    1.18    0.12
  -6   4  -5    1.16    0.08
   6  -4   5    1.22    0.11
  -7   4  -5    4.66    0.24
  -8  -3   5    0.94    0.08
  -8  -3   5    0.86    0.09
  -8  -3   5    0.97    0.09
  -7  -3   5    0.10    0.04
  -7  -3   5    0.17    0.05
  -7  -3   5    0.15    0.04
   6   3  -5    0.08    0.02
   6   3  -5    0.10    0.04
  -6  -3   5    0.04    0.03
  -6  -3   5    0.12    0.03
  -6  -3   5    0.12    0.04
   5   3  -5    0.92    0.07
   5   3  -5    0.82    0.05
  -5  -3   5    0.90    0.06
  -5  -3   5    0.80    0.06
  -5  -3   5    0.83    0.06
  -5  -3   5    0.92    0.07
   4   3  -5    7.76    0.25
   4   3  -5    8.01    0.21
  -4  -3   5    7.87    0.22
  -4  -3   5    8.01    0.22
  -4  -3   5    8.28    0.26
  -4  -3   5    8.05    0.25
  -4  -3   5    7.88    0.23
   3   3  -5   69.63    1.60
   3   3  -5   70.26    1.78
   3   3  -5   68.16    1.72
  -3  -3   5   67.60    1.71
  -3  -3   5   69.98    1.68
  -3  -3   5   68.76    1.57
  -3  -3   5   69.88    1.61
  -3  -3   5   70.94    1.77
   2   3  -5    2.46    0.08
   2   3  -5    2.49    0.10
  -2  -3   5    2.62    0.08
  -2  -3   5    2.48    0.09
  -2  -3   5    2.45    0.10
  -2  -3   5    2.52    0.08
  -2  -3   5    2.50    0.11
   1   3  -5  101.26    2.40
   1   3  -5   97.66    2.43
   1   3  -5  101.49    2.50
   1   3  -5   97.50    2.27
  -1  -3   5   97.90    2.27
  -1  -3   5   98.06    2.21
  -1  -3   5   97.92    2.49
   0   3  -5   81.58    1.95
   0   3  -5   82.47    2.04
   0   3  -5   78.63    1.84
   0   3  -5   78.56    1.97
   0  -3   5   77.56    2.03
   0  -3   5   81.16    1.84
   0  -3   5   79.67    1.79
  -1   3  -5   28.82    0.74
  -1   3  -5   28.72    0.69
  -1   3  -5   30.44    0.78
  -1   3  -5   28.95    0.74
   1  -3   5   27.95    0.76
   1  -3   5   28.56    0.66
   1  -3   5   28.03    0.77
  -2   3  -5    7.45    0.20
  -2   3  -5    7.55    0.21
  -2   3  -5    7.75    0.23
  -2   3  -5    7.80    0.24
   2  -3   5    7.89    0.19
   2  -3   5    7.89    0.25
   2  -3   5    7.68    0.26
  -3   3  -5    1.54    0.09
  -3   3  -5    1.54    0.07
  -3   3  -5    1.53    0.08
  -3   3  -5    1.61    0.06
   3  -3   5    1.68    0.10
   3  -3   5    1.64    0.06
  -4   3  -5    2.26    0.12
  -4   3  -5    2.11    0.09
  -4   3  -5    2.19    0.13
   4  -3   5    2.22    0.13
  -5   3  -5    0.11    0.05
  -5   3  -5    0.18    0.04
   5  -3   5    0.21    0.06
  -6   3  -5    6.94    0.22
  -6   3  -5    6.39    0.27
   6  -3   5    6.37    0.27
  -7   3  -5    1.23    0.13
  -8  -2   5    0.76    0.07
  -8  -2   5    0.72    0.07
  -8  -2   5    0.75    0.09
   7   2  -5   -0.04    0.04
  -7  -2   5   -0.04    0.03
  -7  -2   5   -0.03    0.03
  -7  -2   5    0.00    0.04
  -6  -2   5    0.02    0.03
  -6  -2   5    0.11    0.03
  -6  -2   5    0.05    0.04
  -6  -2   5    0.05    0.03
   5   2  -5    0.25    0.04
   5   2  -5    0.21    0.02
  -5  -2   5    0.21    0.04
  -5  -2   5    0.20    0.03
  -5  -2   5    0.22    0.03
  -5  -2   5    0.19    0.03
   4   2  -5   17.05    0.48
   4   2  -5   16.99    0.41
   4   2  -5   17.03    0.47
   4   2  -5   17.72    0.41
  -4  -2   5   16.55    0.42
  -4  -2   5   17.05    0.48
  -4  -2   5   16.78    0.47
  -4  -2   5   17.44    0.44
  -4  -2   5   17.32    0.43
   3   2  -5    1.35    0.07
   3   2  -5    1.42    0.07
   3   2  -5    1.38    0.05
   3   2  -5    1.44    0.05
  -3  -2   5    1.38    0.06
  -3  -2   5    1.44    0.05
  -3  -2   5    1.36    0.06
  -3  -2   5    1.44    0.07
  -3  -2   5    1.41    0.07
   2   2  -5    0.05    0.02
   2   2  -5    0.04    0.01
   2   2  -5    0.04    0.01
  -2  -2   5    0.05    0.02
  -2  -2   5    0.01    0.02
  -2  -2   5    0.04    0.01
  -2  -2   5    0.03    0.02
   1   2  -5   24.10    0.56
   1   2  -5   23.08    0.56
   1   2  -5   23.53    0.63
   1   2  -5   24.75    0.59
   1   2  -5   23.61    0.61
  -1  -2   5   23.37    0.60
  -1  -2   5   23.47    0.63
  -1  -2   5   23.57    0.56
  -1  -2   5   23.29    0.55
   0   2  -5   66.49    1.57
   0   2  -5   66.96    1.68
   0   2  -5   69.50    1.73
   0   2  -5   69.30    1.66
   0  -2   5   67.83    1.52
   0  -2   5   68.36    1.57
   0  -2   5   67.78    1.73
  -1   2  -5   50.92    1.27
  -1   2  -5   48.17    1.22
  -1   2  -5   50.21    1.21
  -1   2  -5   48.30    1.14
  -1   2  -5   48.33    1.11
   1  -2   5   48.43    1.27
   1  -2   5   49.01    1.11
  -2   2  -5   46.07    1.13
  -2   2  -5   43.98    1.05
  -2   2  -5   46.63    1.18
  -2   2  -5   44.55    1.02
  -2   2  -5   44.10    1.12
   2  -2   5   43.64    1.18
   2  -2   5   46.37    1.17
  -3   2  -5   26.11    0.66
  -3   2  -5   26.06    0.60
  -3   2  -5   25.78    0.70
  -3   2  -5   26.22    0.71
  -3   2  -5   25.20    0.62
  -3   2  -5   25.11    0.68
   3  -2   5   25.10    0.71
  -4   2  -5    1.63    0.10
  -4   2  -5    1.67    0.10
  -4   2  -5    1.57    0.08
  -4   2  -5    1.73    0.07
   4  -2   5    1.70    0.11
  -5   2  -5    0.29    0.05
  -5   2  -5    0.24    0.04
  -5   2  -5    0.27    0.04
  -5   2  -5    0.25    0.06
   5  -2   5    0.26    0.06
  -6   2  -5    0.00    0.05
  -6   2  -5    0.05    0.04
  -7   2  -5    0.38    0.08
  -7   2  -5    0.29    0.05
  -8  -1   5    0.58    0.06
  -8  -1   5    0.53    0.06
  -8  -1   5    0.58    0.08
   7   1  -5   28.28    0.81
  -7  -1   5   28.05    0.72
  -7  -1   5   30.26    0.77
  -7  -1   5   29.49    0.71
  -7  -1   5   28.14    0.78
   6   1  -5    2.16    0.12
  -6  -1   5    2.67    0.11
  -6  -1   5    2.27    0.10
  -6  -1   5    2.42    0.12
  -6  -1   5    2.16    0.10
   5   1  -5    2.62    0.12
  -5  -1   5    2.68    0.10
  -5  -1   5    2.69    0.10
  -5  -1   5    2.65    0.12
  -5  -1   5    2.71    0.12
  -5  -1   5    2.77    0.10
   4   1  -5   18.67    0.50
   4   1  -5   17.67    0.49
  -4  -1   5   17.87    0.49
  -4  -1   5   17.63    0.44
  -4  -1   5   18.51    0.46
  -4  -1   5   18.32    0.44
  -4  -1   5   17.62    0.49
   3   1  -5    0.77    0.05
   3   1  -5    0.73    0.05
  -3  -1   5    0.62    0.05
  -3  -1   5    0.82    0.04
  -3  -1   5    0.76    0.05
  -3  -1   5    0.71    0.05
  -3  -1   5    0.84    0.03
   2   1  -5    6.78    0.20
   2   1  -5    7.06    0.21
  -2  -1   5    6.66    0.20
  -2  -1   5    7.06    0.17
  -2  -1   5    6.78    0.20
  -2  -1   5    7.02    0.18
   1   1  -5    0.14    0.02
   1   1  -5    0.22    0.03
   1   1  -5    0.22    0.01
  -1  -1   5    0.18    0.02
  -1  -1   5    0.18    0.02
  -1  -1   5    0.20    0.02
  -1  -1   5    0.19    0.02
   0   1  -5  103.97    2.41
   0   1  -5  103.37    2.55
   0   1  -5  105.83    2.62
   0   1  -5  106.08    2.52
   0   1  -5  104.14    2.33
   0  -1   5  102.31    2.62
   0  -1   5  105.02    2.41
   0  -1   5  103.97    2.32
  -1   1  -5   -0.02    0.01
  -1   1  -5    0.00    0.02
  -1   1  -5    0.00    0.02
  -1   1  -5   -0.01    0.01
  -1   1  -5    0.00    0.01
   1  -1   5    0.07    0.02
   1  -1   5    0.01    0.02
   1  -1   5   -0.01    0.01
  -2   1  -5    3.84    0.12
  -2   1  -5    3.52    0.14
  -2   1  -5    3.90    0.12
  -2   1  -5    3.85    0.14
  -2   1  -5    3.86    0.15
  -2   1  -5    3.74    0.11
   2  -1   5    3.85    0.15
  -3   1  -5    9.82    0.30
  -3   1  -5    9.47    0.29
  -3   1  -5    9.20    0.26
  -3   1  -5    9.11    0.28
  -3   1  -5    8.79    0.24
  -3   1  -5    9.17    0.24
   3  -1   5    8.53    0.29
  -4   1  -5   18.26    0.47
  -4   1  -5   17.67    0.44
  -4   1  -5   17.58    0.45
  -4   1  -5   18.00    0.52
  -4   1  -5   17.93    0.51
   4  -1   5   17.78    0.53
  -5   1  -5    6.81    0.20
  -5   1  -5    6.57    0.25
  -5   1  -5    7.10    0.25
  -5   1  -5    6.76    0.21
   5  -1   5    6.89    0.27
  -6   1  -5    0.61    0.06
  -6   1  -5    0.43    0.08
  -6   1  -5    0.48    0.05
  -7   1  -5    1.16    0.08
  -7   1  -5    1.13    0.11
  -9   0   5    0.03    0.04
  -9   0   5   -0.06    0.05
  -8   0   5    0.48    0.06
  -8   0   5    0.41    0.07
  -8   0   5    0.45    0.05
  -8   0   5    0.49    0.07
   7   0  -5    2.82    0.14
  -7   0   5    2.72    0.14
  -7   0   5    2.74    0.11
  -7   0   5    2.82    0.12
  -7   0   5    2.79    0.14
   6   0  -5    7.17    0.25
  -6   0   5    7.54    0.24
  -6   0   5    7.22    0.25
  -6   0   5    7.13    0.21
  -6   0   5    7.38    0.21
   5   0  -5   10.91    0.31
   5   0  -5   10.23    0.31
  -5   0   5   10.24    0.27
  -5   0   5   10.01    0.31
  -5   0   5   10.49    0.30
  -5   0   5   10.57    0.27
   4   0  -5   64.94    1.70
   4   0  -5   69.90    1.73
  -4   0   5   67.06    1.73
  -4   0   5   68.48    1.54
  -4   0   5   70.84    1.57
  -4   0   5   67.52    1.69
  -4   0   5   69.22    1.67
   3   0  -5  122.44    3.05
   3   0  -5  119.35    2.99
  -3   0   5  124.07    2.95
  -3   0   5  122.61    2.97
  -3   0   5  125.85    2.82
  -3   0   5  122.98    2.73
  -3   0   5  118.83    3.05
   2   0  -5    0.46    0.03
   2   0  -5    0.57    0.04
  -2   0   5    0.44    0.04
  -2   0   5    0.52    0.03
  -2   0   5    0.52    0.03
  -2   0   5    0.54    0.03
   1   0  -5  220.24    5.47
   1   0  -5  218.78    5.24
   1   0  -5  215.43    5.25
   1   0  -5  217.14    4.79
  -1   0   5  211.77    4.85
  -1   0   5  214.02    5.27
  -1   0   5  214.95    5.39
   0   0  -5    0.01    0.01
   0   0  -5    0.02    0.01
   0   0  -5    0.05    0.02
   0   0  -5    0.02    0.02
   0   0   5    0.02    0.01
   0   0   5    0.05    0.01
   0   0   5    0.09    0.02
  -1   0  -5    2.55    0.09
  -1   0  -5    2.51    0.09
  -1   0  -5    2.49    0.10
  -1   0  -5    2.77    0.08
  -1   0  -5    2.45    0.09
   1   0   5    2.44    0.10
   1   0   5    2.59    0.07
  -2   0  -5    1.36    0.04
  -2   0  -5    1.22    0.07
  -2   0  -5    1.28    0.06
  -2   0  -5    1.28    0.05
  -2   0  -5    1.29    0.07
  -2   0  -5    1.28    0.04
  -2   0  -5    1.31    0.07
   2   0   5    1.32    0.08
  -3   0  -5    4.69    0.17
  -3   0  -5    4.83    0.13
  -3   0  -5    5.02    0.18
  -3   0  -5    4.84    0.14
  -3   0  -5    4.67    0.13
  -3   0  -5    4.65    0.17
  -3   0  -5    4.62    0.15
   3   0   5    4.64    0.18
  -4   0  -5   51.51    1.20
  -4   0  -5   51.42    1.22
  -4   0  -5   51.25    1.36
  -4   0  -5   52.35    1.33
   4   0   5   54.22    1.38
  -5   0  -5   11.42    0.37
  -5   0  -5   11.13    0.36
  -5   0  -5   11.66    0.31
  -5   0  -5   11.69    0.32
  -6   0  -5   34.98    0.83
  -6   0  -5   34.54    0.83
  -6   0  -5   33.35    0.93
  -7   0  -5    1.08    0.09
  -7   0  -5    1.03    0.07
  -7   0  -5    1.05    0.11
  -9   1   5    1.15    0.12
  -8   1   5    0.05    0.05
  -8   1   5    0.07    0.04
  -8   1   5    0.00    0.05
   7  -1  -5    0.00    0.04
  -7   1   5   -0.07    0.04
  -7   1   5    0.04    0.03
  -7   1   5   -0.06    0.04
   6  -1  -5    1.26    0.08
  -6   1   5    1.24    0.07
  -6   1   5    1.21    0.08
  -6   1   5    1.14    0.09
   5  -1  -5    0.21    0.04
   5  -1  -5    0.29    0.03
  -5   1   5    0.27    0.04
  -5   1   5    0.19    0.03
  -5   1   5    0.24    0.04
  -5   1   5    0.26    0.02
   4  -1  -5   52.73    1.37
   4  -1  -5   54.74    1.37
  -4   1   5   53.40    1.33
  -4   1   5   57.03    1.37
  -4   1   5   52.92    1.22
  -4   1   5   53.20    1.35
   3  -1  -5    3.20    0.10
   3  -1  -5    3.00    0.10
  -3   1   5    3.26    0.10
  -3   1   5    3.06    0.12
  -3   1   5    3.23    0.10
  -3   1   5    3.25    0.11
   2  -1  -5   20.39    0.54
   2  -1  -5   21.26    0.52
   2  -1  -5   21.35    0.49
  -2   1   5   20.26    0.53
  -2   1   5   20.40    0.53
  -2   1   5   20.84    0.49
   1  -1  -5   14.09    0.37
   1  -1  -5   14.01    0.34
  -1   1   5   14.39    0.37
  -1   1   5   14.16    0.34
  -1   1   5   14.13    0.36
   0  -1  -5    0.15    0.02
   0  -1  -5    0.15    0.02
   0  -1  -5    0.17    0.02
   0   1   5    0.15    0.01
   0   1   5    0.22    0.02
   0   1   5    0.19    0.02
  -1  -1  -5    8.80    0.22
  -1  -1  -5    8.40    0.24
  -1  -1  -5    8.28    0.22
  -1  -1  -5    8.61    0.24
   1   1   5    8.52    0.25
   1   1   5    8.49    0.21
   1   1   5    8.41    0.22
  -2  -1  -5   41.91    0.99
  -2  -1  -5   44.74    1.06
  -2  -1  -5   44.15    1.08
  -2  -1  -5   42.29    1.11
   2   1   5   42.62    1.12
  -3  -1  -5    0.83    0.06
  -3  -1  -5    0.82    0.07
  -3  -1  -5    0.82    0.06
  -3  -1  -5    0.85    0.04
   3   1   5    0.99    0.08
  -4  -1  -5    0.17    0.04
  -4  -1  -5    0.12    0.04
  -4  -1  -5    0.26    0.05
  -5  -1  -5    1.56    0.07
  -5  -1  -5    1.52    0.10
  -5  -1  -5    1.54    0.10
  -6  -1  -5    1.58    0.10
  -6  -1  -5    1.50    0.07
  -6  -1  -5    1.66    0.12
  -6  -1  -5    1.44    0.11
  -7  -1  -5    9.12    0.26
  -7  -1  -5    9.15    0.29
  -7  -1  -5    9.12    0.34
  -9   2   5    5.74    0.25
  -9   2   5    5.09    0.24
  -8   2   5    6.54    0.25
  -8   2   5    6.00    0.25
   7  -2  -5   28.27    0.79
  -7   2   5   30.19    0.69
  -7   2   5   28.75    0.79
  -7   2   5   28.18    0.78
   6  -2  -5    1.95    0.10
  -6   2   5    1.96    0.11
  -6   2   5    1.87    0.11
  -6   2   5    2.04    0.08
   5  -2  -5    5.28    0.16
   5  -2  -5    5.09    0.17
  -5   2   5    5.06    0.15
  -5   2   5    5.19    0.18
  -5   2   5    5.04    0.19
   4  -2  -5    0.05    0.02
   4  -2  -5    0.04    0.01
  -4   2   5    0.04    0.03
  -4   2   5    0.02    0.03
  -4   2   5    0.02    0.02
  -4   2   5    0.02    0.02
  -3   2   5   16.62    0.43
  -3   2   5   16.63    0.45
  -3   2   5   16.74    0.40
  -3   2   5   16.74    0.44
   2  -2  -5    1.83    0.07
  -2   2   5    1.85    0.07
   1  -2  -5  153.02    3.41
   1  -2  -5  154.83    3.69
  -1   2   5  151.58    3.88
   0  -2  -5   74.63    1.71
   0  -2  -5   77.02    1.90
   0  -2  -5   73.12    1.84
   0   2   5   76.28    1.90
   0   2   5   77.75    1.85
  -1  -2  -5    0.15    0.03
  -1  -2  -5    0.10    0.02
  -1  -2  -5    0.14    0.03
   1   2   5    0.10    0.01
  -2  -2  -5   80.92    1.98
  -2  -2  -5   80.17    1.82
  -2  -2  -5   80.07    2.03
   2   2   5   80.70    2.05
  -3  -2  -5    1.23    0.07
  -3  -2  -5    1.27    0.09
  -3  -2  -5    1.31    0.08
   3   2   5    1.22    0.08
  -4  -2  -5    8.46    0.28
  -4  -2  -5    8.07    0.25
  -4  -2  -5    8.61    0.28
  -5  -2  -5    1.04    0.09
  -5  -2  -5    1.15    0.08
  -5  -2  -5    1.10    0.09
  -6  -2  -5    1.27    0.11
  -6  -2  -5    1.39    0.10
  -6  -2  -5    1.47    0.11
  -7  -2  -5    2.13    0.15
  -7  -2  -5    2.46    0.14
  -8   3   5   -0.02    0.05
  -8   3   5    0.00    0.05
   7  -3  -5    0.97    0.08
  -7   3   5    0.89    0.09
  -7   3   5    0.92    0.10
   6  -3  -5    0.84    0.06
  -6   3   5    0.88    0.08
  -6   3   5    0.91    0.09
   5  -3  -5    0.11    0.02
   5  -3  -5    0.21    0.03
  -5   3   5    0.08    0.04
  -5   3   5    0.09    0.02
  -5   3   5    0.11    0.04
  -4   3   5    9.03    0.25
  -4   3   5    8.71    0.23
  -4   3   5    8.91    0.28
   3  -3  -5   10.20    0.29
  -3   3   5   10.44    0.26
  -3   3   5   10.43    0.30
   2  -3  -5   16.39    0.40
   2  -3  -5   16.52    0.43
  -2   3   5   16.82    0.40
   1  -3  -5    2.00    0.08
   1  -3  -5    1.51    0.07
   0  -3  -5    6.21    0.19
   0  -3  -5    6.39    0.18
   0  -3  -5    6.47    0.18
   0   3   5    6.65    0.18
  -1  -3  -5    1.46    0.07
  -1  -3  -5    1.52    0.07
  -1  -3  -5    1.59    0.08
  -2  -3  -5   11.43    0.33
  -2  -3  -5   11.24    0.32
  -2  -3  -5   11.28    0.31
   2   3   5   11.34    0.34
  -3  -3  -5    4.41    0.16
  -3  -3  -5    4.30    0.17
  -3  -3  -5    4.49    0.16
  -4  -3  -5    2.42    0.11
  -4  -3  -5    2.18    0.12
  -4  -3  -5    2.41    0.12
  -5  -3  -5    8.46    0.30
  -5  -3  -5    8.63    0.27
  -5  -3  -5    8.74    0.30
  -6  -3  -5    1.09    0.10
  -6  -3  -5    1.26    0.10
  -8   4   5    0.74    0.10
  -8   4   5    0.97    0.10
   7  -4  -5    1.32    0.08
  -7   4   5    1.17    0.11
  -7   4   5    1.45    0.12
   6  -4  -5    0.17    0.03
  -6   4   5    0.20    0.05
  -6   4   5    0.10    0.05
  -5   4   5    5.05    0.20
  -4   4   5   20.86    0.48
  -4   4   5   19.74    0.56
   3  -4  -5    0.21    0.04
   3  -4  -5    0.22    0.03
  -3   4   5    0.18    0.04
  -3   4   5    0.19    0.03
   2  -4  -5   25.21    0.60
   2  -4  -5   25.18    0.65
   1  -4  -5   29.47    0.70
   1  -4  -5   29.65    0.75
   0  -4  -5    0.20    0.04
   0  -4  -5    0.16    0.03
   0  -4  -5    0.18    0.02
  -1  -4  -5    0.26    0.04
  -1  -4  -5    0.28    0.03
  -1  -4  -5    0.24    0.04
  -2  -4  -5   -0.02    0.02
  -2  -4  -5    0.02    0.03
  -2  -4  -5    0.04    0.03
  -3  -4  -5    0.34    0.05
  -3  -4  -5    0.39    0.05
  -3  -4  -5    0.41    0.05
  -4  -4  -5    0.81    0.08
  -4  -4  -5    0.76    0.08
  -4  -4  -5    0.67    0.07
  -5  -4  -5    0.55    0.07
  -5  -4  -5    0.66    0.08
  -5  -4  -5    0.68    0.08
  -6  -4  -5    1.35    0.12
  -6  -4  -5    1.49    0.11
  -8   5   5    0.53    0.10
  -8   5   5    0.66    0.10
  -7   5   5    1.05    0.11
  -7   5   5    1.04    0.11
  -6   5   5    1.36    0.11
  -5   5   5    1.58    0.11
  -4   5   5    0.84    0.08
   3  -5  -5    7.50    0.20
   3  -5  -5    7.09    0.23
  -3   5   5    6.95    0.25
  -3   5   5    7.23    0.19
   2  -5  -5    0.25    0.04
   2  -5  -5    0.15    0.04
   1  -5  -5   33.45    0.78
   1  -5  -5   33.24    0.85
   0  -5  -5    5.83    0.18
   0  -5  -5    5.86    0.17
   0  -5  -5    5.71    0.19
  -1  -5  -5   12.57    0.36
  -1  -5  -5   12.32    0.34
  -1  -5  -5   12.30    0.33
  -2  -5  -5    0.32    0.05
  -2  -5  -5    0.24    0.04
  -2  -5  -5    0.25    0.05
  -3  -5  -5    0.78    0.08
  -3  -5  -5    0.79    0.08
  -3  -5  -5    0.83    0.07
  -4  -5  -5    0.75    0.08
  -4  -5  -5    0.71    0.08
  -4  -5  -5    0.69    0.07
  -5  -5  -5    1.40    0.11
  -5  -5  -5    1.28    0.10
  -7   6   5    0.29    0.07
  -6   6   5    1.17    0.11
  -5   6   5    0.77    0.09
  -4   6   5    2.84    0.16
   3  -6  -5    0.27    0.05
  -3   6   5    0.24    0.06
   2  -6  -5    0.41    0.04
   2  -6  -5    0.30    0.05
   1  -6  -5    5.34    0.17
   1  -6  -5    5.21    0.19
   0  -6  -5    0.34    0.05
   0  -6  -5    0.36    0.03
   0  -6  -5    0.32    0.05
  -1  -6  -5    1.41    0.09
  -1  -6  -5    1.46    0.09
  -1  -6  -5    1.44    0.07
  -2  -6  -5   18.73    0.51
  -2  -6  -5   17.61    0.51
  -2  -6  -5   17.90    0.48
  -3  -6  -5    0.93    0.08
  -3  -6  -5    0.94    0.08
  -4  -6  -5    0.27    0.06
  -4  -6  -5    0.23    0.06
  -6   7   5    0.30    0.08
  -5   7   5    0.33    0.08
  -4   7   5    9.15    0.33
   3  -7  -5    1.32    0.09
  -3   7   5    1.61    0.12
   2  -7  -5    0.31    0.06
   1  -7  -5    0.23    0.05
   1  -7  -5    0.25    0.04
   0  -7  -5    0.15    0.05
   0  -7  -5    0.27    0.05
   0  -7  -5    0.27    0.03
  -1  -7  -5    2.31    0.13
  -1  -7  -5    2.47    0.12
  -1  -7  -5    2.55    0.11
  -2  -7  -5    0.06    0.05
  -2  -7  -5    0.11    0.05
  -3  -7  -5    2.38    0.13
  -3  -7  -5    2.48    0.14
  -5   8   5    1.43    0.14
  -4   8   5    1.25    0.13
   3  -8  -5    0.06    0.05
  -3   8   5    0.14    0.07
   2  -8  -5    1.78    0.11
  -2   8   5    1.72    0.13
   1  -8  -5    2.95    0.15
   0  -8  -5    3.03    0.15
  -1  -8  -5    0.16    0.05
  -1  -8  -5    0.20    0.06
  -2  -8  -5   -0.01    0.05
  -2  -8  -5    0.03    0.05
   2  -9  -5    0.09    0.05
  -2   9   5    0.05    0.06
   3   8  -6    0.12    0.05
   3   8  -6    0.11    0.04
  -3  -8   6    0.09    0.04
   2   8  -6   14.25    0.44
   2   8  -6   14.30    0.40
  -2  -8   6   14.81    0.47
   1   8  -6    0.30    0.06
   1   8  -6    0.32    0.05
  -1  -8   6    0.33    0.07
   0   8  -6    9.52    0.32
   0   8  -6    9.12    0.28
   0   8  -6    9.03    0.33
   0  -8   6    9.73    0.34
  -1   8  -6    1.27    0.12
  -1   8  -6    1.28    0.11
  -1   8  -6    1.24    0.08
  -2   8  -6    0.71    0.09
  -2   8  -6    0.71    0.07
  -2   8  -6    0.77    0.09
  -3   8  -6    0.12    0.04
  -3   8  -6    0.09    0.06
   5   7  -6    4.57    0.17
  -5  -7   6    4.57    0.18
  -5  -7   6    4.62    0.15
   4   7  -6    1.43    0.08
   4   7  -6    1.37    0.10
  -4  -7   6    1.39    0.10
  -4  -7   6    1.47    0.07
   3   7  -6    0.61    0.06
   3   7  -6    0.64    0.07
  -3  -7   6    0.69    0.05
  -3  -7   6    0.70    0.07
  -3  -7   6    0.48    0.08
   2   7  -6    6.91    0.25
   2   7  -6    7.08    0.22
  -2  -7   6    7.21    0.22
  -2  -7   6    7.02    0.26
   1   7  -6    0.79    0.08
   1   7  -6    0.74    0.08
   1   7  -6    0.70    0.06
  -1  -7   6    0.68    0.08
   0   7  -6    4.18    0.15
   0   7  -6    4.50    0.18
   0   7  -6    4.27    0.19
   0  -7   6    4.24    0.19
  -1   7  -6   20.83    0.60
  -1   7  -6   20.48    0.55
  -1   7  -6   21.69    0.62
   1  -7   6   22.33    0.63
  -2   7  -6    0.00    0.03
  -2   7  -6   -0.06    0.04
  -2   7  -6    0.02    0.04
   2  -7   6    0.01    0.04
  -3   7  -6    4.26    0.19
  -3   7  -6    4.39    0.21
  -3   7  -6    4.45    0.17
   3  -7   6    4.52    0.21
  -4   7  -6    0.52    0.06
  -4   7  -6    0.39    0.08
   6   6  -6    2.95    0.12
  -6  -6   6    2.64    0.14
  -6  -6   6    2.85    0.12
   5   6  -6    0.43    0.06
   5   6  -6    0.24    0.04
  -5  -6   6    0.30    0.05
  -5  -6   6    0.18    0.04
   4   6  -6    2.13    0.10
   4   6  -6    2.30    0.12
  -4  -6   6    2.20    0.09
  -4  -6   6    2.03    0.10
   3   6  -6    0.31    0.04
   3   6  -6    0.33    0.05
  -3  -6   6    0.28    0.03
  -3  -6   6    0.30    0.04
  -3  -6   6    0.27    0.06
   2   6  -6    0.03    0.03
   2   6  -6    0.02    0.02
  -2  -6   6    0.02    0.03
  -2  -6   6   -0.06    0.03
  -2  -6   6   -0.02    0.04
  -2  -6   6   -0.01    0.02
   1   6  -6    9.25    0.29
   1   6  -6    8.95    0.26
  -1  -6   6    9.61    0.32
  -1  -6   6    9.37    0.25
   0   6  -6    3.65    0.15
   0   6  -6    3.81    0.16
   0   6  -6    3.31    0.13
   0  -6   6    3.52    0.16
   0  -6   6    3.51    0.12
  -1   6  -6    0.06    0.03
  -1   6  -6    0.11    0.05
  -1   6  -6    0.08    0.04
   1  -6   6    0.04    0.04
  -2   6  -6    2.85    0.12
  -2   6  -6    2.90    0.15
  -2   6  -6    2.99    0.15
   2  -6   6    2.99    0.15
  -3   6  -6    0.39    0.06
  -3   6  -6    0.29    0.05
  -3   6  -6    0.22    0.04
   3  -6   6    0.26    0.06
  -4   6  -6    0.05    0.04
  -4   6  -6    0.04    0.03
  -4   6  -6    0.06    0.05
   4  -6   6    0.04    0.05
  -5   6  -6    1.33    0.11
  -5   6  -6    1.29    0.13
  -5   6  -6    1.38    0.09
  -7  -5   6    5.14    0.20
  -7  -5   6    5.11    0.22
   6   5  -6   -0.05    0.04
   6   5  -6    0.00    0.02
  -6  -5   6   -0.03    0.04
  -6  -5   6   -0.04    0.03
  -6  -5   6    0.02    0.05
   5   5  -6    3.11    0.14
   5   5  -6    3.19    0.11
  -5  -5   6    3.08    0.12
  -5  -5   6    3.02    0.13
   4   5  -6    2.30    0.09
   4   5  -6    2.40    0.12
  -4  -5   6    2.41    0.10
  -4  -5   6    2.46    0.11
   3   5  -6   54.06    1.26
   3   5  -6   52.12    1.36
  -3  -5   6   53.45    1.24
  -3  -5   6   54.53    1.41
  -3  -5   6   53.65    1.26
   2   5  -6    0.35    0.04
   2   5  -6    0.38    0.05
   2   5  -6    0.31    0.03
  -2  -5   6    0.40    0.05
  -2  -5   6    0.36    0.03
  -2  -5   6    0.33    0.04
  -2  -5   6    0.36    0.04
   1   5  -6    7.10    0.21
   1   5  -6    7.15    0.24
   1   5  -6    7.33    0.23
  -1  -5   6    7.54    0.20
  -1  -5   6    7.46    0.25
  -1  -5   6    7.14    0.20
   0   5  -6    5.19    0.16
   0   5  -6    4.37    0.17
   0   5  -6    5.25    0.19
   0  -5   6    5.46    0.20
   0  -5   6    5.70    0.15
  -1   5  -6   13.83    0.38
  -1   5  -6   14.79    0.42
  -1   5  -6   14.46    0.42
   1  -5   6   14.11    0.44
   1  -5   6   14.88    0.35
  -2   5  -6    6.62    0.23
  -2   5  -6    6.86    0.24
  -2   5  -6    6.79    0.20
   2  -5   6    6.57    0.25
  -3   5  -6    3.18    0.15
  -3   5  -6    3.22    0.13
  -3   5  -6    3.34    0.16
   3  -5   6    3.34    0.17
  -4   5  -6    2.50    0.15
  -4   5  -6    2.62    0.12
  -4   5  -6    2.86    0.14
   4  -5   6    2.74    0.16
  -5   5  -6    0.43    0.05
  -5   5  -6    0.45    0.08
  -5   5  -6    0.44    0.06
   5  -5   6    0.61    0.08
  -6   5  -6    3.41    0.17
  -6   5  -6    3.14    0.19
  -7  -4   6    0.27    0.05
  -7  -4   6    0.27    0.05
  -7  -4   6    0.25    0.06
   6   4  -6    0.29    0.06
   6   4  -6    0.12    0.03
  -6  -4   6    0.20    0.05
  -6  -4   6    0.16    0.04
  -6  -4   6    0.12    0.05
   5   4  -6    2.97    0.10
   5   4  -6    2.97    0.14
  -5  -4   6    2.78    0.11
  -5  -4   6    2.95    0.14
  -5  -4   6    2.96    0.13
   4   4  -6    0.67    0.05
   4   4  -6    0.63    0.07
  -4  -4   6    0.70    0.07
  -4  -4   6    0.72    0.06
  -4  -4   6    0.62    0.06
  -4  -4   6    0.61    0.07
   3   4  -6    3.48    0.14
   3   4  -6    3.68    0.12
  -3  -4   6    3.57    0.13
  -3  -4   6    3.70    0.15
  -3  -4   6    3.45    0.12
  -3  -4   6    3.64    0.11
   2   4  -6    0.16    0.03
   2   4  -6    0.16    0.02
   2   4  -6    0.24    0.03
   2   4  -6    0.15    0.04
  -2  -4   6    0.18    0.03
  -2  -4   6    0.28    0.03
  -2  -4   6    0.23    0.04
  -2  -4   6    0.17    0.03
   1   4  -6   52.59    1.35
   1   4  -6   55.04    1.40
   1   4  -6   55.31    1.32
   1   4  -6   52.91    1.25
  -1  -4   6   52.01    1.24
  -1  -4   6   53.20    1.39
  -1  -4   6   53.22    1.22
   0   4  -6   23.28    0.59
   0   4  -6   22.33    0.55
   0   4  -6   22.24    0.60
   0  -4   6   22.19    0.54
   0  -4   6   23.17    0.53
   0  -4   6   22.75    0.63
  -1   4  -6   54.27    1.32
  -1   4  -6   57.77    1.41
  -1   4  -6   55.19    1.42
   1  -4   6   57.37    1.27
   1  -4   6   56.90    1.47
  -2   4  -6    1.31    0.07
  -2   4  -6    1.53    0.09
  -2   4  -6    1.43    0.10
   2  -4   6    1.40    0.06
   2  -4   6    1.53    0.10
  -3   4  -6   10.50    0.32
  -3   4  -6   10.71    0.34
  -3   4  -6   10.06    0.29
   3  -4   6   10.33    0.35
  -4   4  -6    5.17    0.17
  -4   4  -6    5.30    0.22
  -4   4  -6    5.18    0.19
   4  -4   6    5.05    0.22
  -5   4  -6    0.07    0.05
  -5   4  -6    0.13    0.04
  -5   4  -6    0.07    0.06
   5  -4   6    0.05    0.06
  -6   4  -6    0.44    0.06
  -6   4  -6    0.37    0.08
  -6   4  -6    0.32    0.05
  -8  -3   6    2.29    0.14
  -8  -3   6    2.33    0.12
  -8  -3   6    2.11    0.11
  -7  -3   6    4.95    0.21
  -7  -3   6    4.99    0.19
  -7  -3   6    5.27    0.18
   6   3  -6    9.24    0.30
  -6  -3   6    8.88    0.27
  -6  -3   6    8.88    0.30
  -6  -3   6    8.92    0.26
   5   3  -6    9.88    0.25
   5   3  -6    9.59    0.30
  -5  -3   6    9.70    0.31
  -5  -3   6    9.87    0.28
  -5  -3   6    9.77    0.27
   4   3  -6    0.46    0.03
   4   3  -6    0.44    0.05
  -4  -3   6    0.51    0.04
  -4  -3   6    0.56    0.06
  -4  -3   6    0.48    0.05
  -4  -3   6    0.54    0.04
  -4  -3   6    0.37    0.05
   3   3  -6    0.04    0.03
   3   3  -6   -0.01    0.02
   3   3  -6    0.02    0.01
  -3  -3   6    0.03    0.02
  -3  -3   6    0.08    0.03
  -3  -3   6    0.01    0.01
  -3  -3   6    0.00    0.02
  -3  -3   6    0.02    0.02
   2   3  -6   43.22    1.10
   2   3  -6   44.66    1.14
   2   3  -6   45.15    1.07
   2   3  -6   41.93    1.01
  -2  -3   6   42.55    1.00
  -2  -3   6   42.97    1.09
  -2  -3   6   42.77    1.02
  -2  -3   6   44.74    1.13
   1   3  -6   38.35    0.99
   1   3  -6   37.11    0.96
   1   3  -6   36.86    0.88
   1   3  -6   39.13    0.93
  -1  -3   6   37.73    0.86
  -1  -3   6   36.99    0.99
  -1  -3   6   36.81    0.88
   0   3  -6   22.11    0.55
   0   3  -6   23.19    0.60
   0   3  -6   23.97    0.59
   0   3  -6   23.41    0.63
   0  -3   6   22.06    0.63
   0  -3   6   23.12    0.55
   0  -3   6   22.48    0.54
  -1   3  -6   35.18    0.91
  -1   3  -6   34.24    0.86
  -1   3  -6   32.49    0.86
  -1   3  -6   32.63    0.80
   1  -3   6   34.51    0.77
   1  -3   6   32.49    0.90
  -2   3  -6   20.50    0.56
  -2   3  -6   20.56    0.49
  -2   3  -6   20.17    0.51
  -2   3  -6   20.20    0.55
   2  -3   6   20.86    0.48
   2  -3   6   20.74    0.59
  -3   3  -6    0.91    0.05
  -3   3  -6    0.84    0.08
  -3   3  -6    0.89    0.06
  -3   3  -6    0.96    0.07
   3  -3   6    0.92    0.05
   3  -3   6    0.91    0.08
  -4   3  -6    7.28    0.22
  -4   3  -6    7.53    0.27
  -4   3  -6    7.15    0.24
   4  -3   6    7.13    0.27
  -5   3  -6    4.36    0.16
  -5   3  -6    4.10    0.19
  -5   3  -6    4.04    0.16
   5  -3   6    4.48    0.21
  -6   3  -6    2.44    0.12
  -6   3  -6    2.19    0.15
  -8  -2   6    3.38    0.15
  -8  -2   6    3.64    0.15
  -8  -2   6    3.49    0.17
   7   2  -6    0.37    0.07
  -7  -2   6    0.42    0.06
  -7  -2   6    0.43    0.05
  -7  -2   6    0.40    0.05
   6   2  -6   11.81    0.36
  -6  -2   6   11.55    0.32
  -6  -2   6   11.59    0.36
  -6  -2   6   11.51    0.32
   5   2  -6   15.46    0.45
  -5  -2   6   15.66    0.45
  -5  -2   6   15.63    0.40
  -5  -2   6   16.39    0.41
  -5  -2   6   15.86    0.41
   4   2  -6   18.56    0.52
  -4  -2   6   19.67    0.48
  -4  -2   6   18.62    0.52
  -4  -2   6   19.26    0.53
  -4  -2   6   18.78    0.47
  -4  -2   6   19.50    0.47
   3   2  -6   27.92    0.72
   3   2  -6   28.25    0.74
  -3  -2   6   27.50    0.74
  -3  -2   6   27.78    0.66
  -3  -2   6   27.68    0.68
  -3  -2   6   27.97    0.66
  -3  -2   6   27.52    0.72
   2   2  -6    2.52    0.11
   2   2  -6    2.59    0.07
   2   2  -6    2.47    0.10
  -2  -2   6    2.53    0.10
  -2  -2   6    2.52    0.10
  -2  -2   6    2.47    0.08
  -2  -2   6    2.52    0.09
   1   2  -6   14.57    0.39
   1   2  -6   14.16    0.34
   1   2  -6   14.69    0.41
   1   2  -6   14.69    0.34
   1   2  -6   14.69    0.36
  -1  -2   6   14.45    0.41
  -1  -2   6   13.94    0.35
  -1  -2   6   14.46    0.35
   0   2  -6   67.95    1.52
   0   2  -6   68.40    1.70
   0   2  -6   65.74    1.53
   0   2  -6   63.79    1.64
   0   2  -6   66.57    1.62
   0  -2   6   65.53    1.49
   0  -2   6   66.47    1.69
   0  -2   6   66.04    1.53
  -1   2  -6   10.10    0.28
  -1   2  -6   10.18    0.28
  -1   2  -6    9.61    0.25
  -1   2  -6   10.46    0.31
  -1   2  -6   10.02    0.26
   1  -2   6    9.89    0.31
   1  -2   6   10.06    0.25
  -2   2  -6    3.72    0.15
  -2   2  -6    3.48    0.11
  -2   2  -6    3.48    0.12
  -2   2  -6    3.35    0.14
  -2   2  -6    3.51    0.11
   2  -2   6    3.34    0.15
  -3   2  -6    6.72    0.23
  -3   2  -6    6.42    0.19
  -3   2  -6    6.54    0.20
  -3   2  -6    6.42    0.19
  -3   2  -6    6.75    0.23
   3  -2   6    6.62    0.24
  -4   2  -6   16.17    0.40
  -4   2  -6   15.60    0.41
  -4   2  -6   15.70    0.47
  -4   2  -6   15.65    0.43
  -4   2  -6   15.96    0.47
   4  -2   6   15.40    0.49
  -5   2  -6    0.23    0.04
  -5   2  -6    0.25    0.04
  -5   2  -6    0.19    0.06
  -6   2  -6   12.74    0.42
  -6   2  -6   12.34    0.35
  -7   2  -6   -0.10    0.05
  -8  -1   6    0.01    0.03
  -8  -1   6    0.06    0.04
  -8  -1   6   -0.04    0.03
   7   1  -6    2.19    0.13
  -7  -1   6    1.82    0.10
  -7  -1   6    1.96    0.10
  -7  -1   6    2.15    0.13
  -6  -1   6    7.64    0.26
  -6  -1   6    7.59    0.22
  -6  -1   6    7.56    0.23
  -6  -1   6    7.44    0.22
   5   1  -6    1.57    0.09
  -5  -1   6    1.54    0.09
  -5  -1   6    1.60    0.08
  -5  -1   6    1.63    0.07
  -5  -1   6    1.61    0.07
   4   1  -6   39.64    1.02
   4   1  -6   37.95    1.00
  -4  -1   6   40.45    0.96
  -4  -1   6   37.41    0.90
  -4  -1   6   38.45    0.99
  -4  -1   6   39.94    0.92
  -4  -1   6   39.49    1.02
   3   1  -6    1.47    0.07
   3   1  -6    1.50    0.07
  -3  -1   6    1.46    0.07
  -3  -1   6    1.53    0.07
  -3  -1   6    1.54    0.06
  -3  -1   6    1.78    0.08
   2   1  -6   64.37    1.60
   2   1  -6   63.29    1.57
  -2  -1   6   61.86    1.43
  -2  -1   6   61.50    1.55
  -2  -1   6   62.37    1.60
  -2  -1   6   65.60    1.45
   1   1  -6   24.83    0.65
   1   1  -6   25.60    0.67
   1   1  -6   26.43    0.62
  -1  -1   6   24.74    0.67
  -1  -1   6   25.37    0.59
  -1  -1   6   24.86    0.59
  -1  -1   6   25.27    0.64
   0   1  -6    7.28    0.23
   0   1  -6    7.25    0.21
   0   1  -6    7.29    0.20
   0   1  -6    7.48    0.20
   0  -1   6    7.23    0.19
   0  -1   6    7.44    0.23
   0  -1   6    7.39    0.19
  -1   1  -6    2.97    0.11
  -1   1  -6    2.82    0.11
  -1   1  -6    3.67    0.09
  -1   1  -6    3.17    0.08
  -1   1  -6    3.08    0.12
   1  -1   6    3.27    0.13
   1  -1   6    3.00    0.09
  -2   1  -6    0.44    0.04
  -2   1  -6    0.47    0.05
  -2   1  -6    0.42    0.04
  -2   1  -6    0.47    0.05
  -2   1  -6    0.55    0.06
  -2   1  -6    0.49    0.03
   2  -1   6    0.53    0.06
  -3   1  -6    1.94    0.10
  -3   1  -6    1.88    0.08
  -3   1  -6    1.88    0.10
  -3   1  -6    1.96    0.09
  -3   1  -6    1.91    0.07
   3  -1   6    1.88    0.11
  -4   1  -6   19.67    0.50
  -4   1  -6   20.03    0.57
  -4   1  -6   20.20    0.53
  -4   1  -6   20.97    0.51
  -4   1  -6   20.53    0.58
   4  -1   6   20.48    0.60
  -5   1  -6    7.00    0.27
  -5   1  -6    7.16    0.21
  -5   1  -6    7.39    0.22
  -5   1  -6    7.34    0.27
  -6   1  -6    0.00    0.03
  -6   1  -6   -0.04    0.05
  -7   1  -6    3.06    0.18
  -7   1  -6    3.13    0.13
  -9   0   6   10.08    0.30
  -9   0   6    8.71    0.33
  -9   0   6    9.55    0.30
  -8   0   6    0.03    0.05
  -8   0   6    0.05    0.04
  -8   0   6   -0.07    0.03
   7   0  -6   15.44    0.47
  -7   0   6   15.19    0.46
  -7   0   6   15.86    0.41
  -7   0   6   15.38    0.41
   6   0  -6    0.74    0.07
  -6   0   6    0.68    0.07
  -6   0   6    0.76    0.06
  -6   0   6    0.70    0.05
  -6   0   6    0.74    0.08
   5   0  -6   24.96    0.69
  -5   0   6   26.64    0.62
  -5   0   6   25.10    0.61
  -5   0   6   25.89    0.69
  -5   0   6   26.18    0.66
   4   0  -6    8.82    0.25
   4   0  -6    8.46    0.26
  -4   0   6    8.43    0.25
  -4   0   6    8.42    0.23
  -4   0   6    8.93    0.22
  -4   0   6    8.85    0.27
  -4   0   6    8.85    0.24
   3   0  -6   10.37    0.30
   3   0  -6   10.31    0.29
  -3   0   6   10.29    0.29
  -3   0   6   10.68    0.30
  -3   0   6   10.15    0.27
  -3   0   6   10.45    0.27
   2   0  -6    4.98    0.13
   2   0  -6    4.89    0.15
  -2   0   6    4.84    0.13
  -2   0   6    4.67    0.14
  -2   0   6    4.64    0.15
  -2   0   6    4.69    0.15
   1   0  -6    2.41    0.07
   1   0  -6    2.45    0.09
   1   0  -6    2.48    0.09
  -1   0   6    2.41    0.09
  -1   0   6    2.44    0.08
  -1   0   6    2.44    0.08
   0   0  -6  267.19    6.59
   0   0  -6  266.23    5.98
   0   0  -6  259.73    6.70
   0   0   6  275.39    6.15
   0   0   6  265.83    6.76
   0   0   6  269.76    6.48
  -1   0  -6   18.92    0.48
  -1   0  -6   18.55    0.48
  -1   0  -6   18.20    0.45
  -1   0  -6   18.71    0.51
   1   0   6   18.36    0.51
   1   0   6   18.70    0.44
  -2   0  -6   37.54    0.99
  -2   0  -6   38.14    0.98
  -2   0  -6   36.66    0.95
  -2   0  -6   37.89    0.87
  -2   0  -6   36.48    0.87
  -2   0  -6   36.99    0.93
   2   0   6   38.96    1.00
  -3   0  -6    0.05    0.03
  -3   0  -6    0.04    0.02
  -3   0  -6    0.06    0.03
  -3   0  -6    0.08    0.04
  -3   0  -6    0.05    0.02
   3   0   6    0.03    0.03
  -4   0  -6   29.12    0.81
  -4   0  -6   29.87    0.71
  -4   0  -6   29.15    0.79
  -4   0  -6   29.32    0.70
  -4   0  -6   29.82    0.75
  -5   0  -6    0.48    0.04
  -5   0  -6    0.57    0.07
  -5   0  -6    0.47    0.07
  -5   0  -6    0.47    0.06
  -6   0  -6    1.36    0.07
  -6   0  -6    1.41    0.12
  -6   0  -6    1.39    0.12
  -6   0  -6    1.42    0.10
  -7   0  -6    1.61    0.09
  -7   0  -6    1.60    0.13
  -9   1   6    0.20    0.07
  -8   1   6    1.77    0.13
  -8   1   6    1.79    0.10
   7  -1  -6    0.26    0.05
  -7   1   6    0.16    0.05
  -7   1   6    0.33    0.04
  -7   1   6    0.21    0.06
   6  -1  -6   10.82    0.34
  -6   1   6   11.30    0.35
  -6   1   6   11.24    0.30
  -6   1   6   11.58    0.33
   5  -1  -6    5.98    0.20
   5  -1  -6    6.25    0.19
  -5   1   6    6.09    0.22
  -5   1   6    6.06    0.18
  -5   1   6    6.28    0.20
   4  -1  -6    6.24    0.19
   4  -1  -6    6.32    0.18
  -4   1   6    6.36    0.19
  -4   1   6    6.34    0.21
  -4   1   6    6.42    0.19
  -4   1   6    6.22    0.18
   3  -1  -6    5.96    0.16
   3  -1  -6    5.93    0.16
   3  -1  -6    5.76    0.19
  -3   1   6    5.71    0.19
  -3   1   6    6.01    0.17
  -3   1   6    6.12    0.17
  -3   1   6    5.94    0.17
   2  -1  -6    0.10    0.02
   2  -1  -6    0.01    0.02
   2  -1  -6    0.09    0.02
  -2   1   6    0.06    0.02
  -2   1   6    0.05    0.02
  -2   1   6    0.03    0.02
   1  -1  -6   20.17    0.54
   1  -1  -6   20.85    0.52
   1  -1  -6   20.52    0.50
   1  -1  -6   20.83    0.54
  -1   1   6   21.59    0.53
  -1   1   6   20.63    0.49
  -1   1   6   21.65    0.54
   0  -1  -6    0.46    0.04
   0  -1  -6    0.47    0.03
   0  -1  -6    0.51    0.04
   0  -1  -6    0.42    0.03
   0   1   6    0.38    0.04
  -1  -1  -6   25.00    0.62
  -1  -1  -6   25.09    0.65
  -1  -1  -6   24.73    0.64
   1   1   6   24.63    0.58
   1   1   6   24.93    0.66
   1   1   6   25.11    0.62
  -2  -1  -6    2.22    0.10
  -2  -1  -6    2.39    0.10
  -2  -1  -6    2.27    0.10
  -2  -1  -6    2.40    0.08
   2   1   6    2.38    0.11
  -3  -1  -6   40.59    1.08
  -3  -1  -6   42.15    0.97
  -3  -1  -6   40.54    1.06
  -3  -1  -6   41.97    1.02
   3   1   6   41.69    1.10
  -4  -1  -6    0.32    0.02
  -4  -1  -6    0.23    0.05
  -4  -1  -6    0.37    0.06
  -4  -1  -6    0.31    0.05
  -5  -1  -6    0.61    0.04
  -5  -1  -6    0.56    0.07
  -5  -1  -6    0.60    0.07
  -5  -1  -6    0.52    0.06
  -6  -1  -6    1.22    0.10
  -6  -1  -6    1.31    0.11
  -6  -1  -6    1.47    0.12
  -7  -1  -6    4.42    0.22
  -7  -1  -6    4.24    0.18
  -8   2   6    1.95    0.13
  -8   2   6    1.97    0.13
   7  -2  -6    0.14    0.04
  -7   2   6    0.06    0.03
  -7   2   6    0.14    0.06
  -7   2   6    0.09    0.05
   6  -2  -6    5.06    0.18
  -6   2   6    5.08    0.19
  -6   2   6    5.10    0.20
  -6   2   6    5.57    0.16
   5  -2  -6    3.71    0.12
   5  -2  -6    3.56    0.12
  -5   2   6    3.45    0.15
  -5   2   6    3.73    0.14
  -5   2   6    3.47    0.12
  -4   2   6    7.57    0.23
  -4   2   6    7.56    0.21
  -4   2   6    7.21    0.24
  -4   2   6    7.25    0.20
  -3   2   6    3.62    0.14
  -3   2   6    3.50    0.13
  -3   2   6    3.47    0.11
  -3   2   6    3.46    0.10
   2  -2  -6  139.23    3.10
   2  -2  -6  140.17    3.34
  -2   2   6  137.87    3.36
  -2   2   6  137.99    3.09
   1  -2  -6   16.17    0.42
   1  -2  -6   16.13    0.40
  -1   2   6   16.61    0.42
   0  -2  -6    8.11    0.22
   0  -2  -6    7.66    0.23
   0  -2  -6    7.96    0.22
   0   2   6    8.24    0.23
  -1  -2  -6   15.43    0.43
  -1  -2  -6   15.68    0.40
  -1  -2  -6   15.70    0.43
  -1  -2  -6   16.33    0.40
   1   2   6   15.93    0.40
   1   2   6   16.19    0.44
   1   2   6   16.10    0.37
  -2  -2  -6    5.48    0.18
  -2  -2  -6    5.43    0.17
  -2  -2  -6    5.33    0.19
   2   2   6    5.68    0.20
  -3  -2  -6    0.26    0.04
  -3  -2  -6    0.23    0.05
  -3  -2  -6    0.29    0.04
  -4  -2  -6    0.14    0.05
  -4  -2  -6    0.09    0.04
  -4  -2  -6    0.08    0.04
  -5  -2  -6    0.43    0.07
  -5  -2  -6    0.39    0.06
  -5  -2  -6    0.45    0.07
  -6  -2  -6    0.04    0.05
  -6  -2  -6    0.04    0.05
  -6  -2  -6    0.01    0.04
  -8   3   6    0.17    0.07
  -8   3   6    0.20    0.06
   7  -3  -6    0.18    0.04
  -7   3   6    0.20    0.06
  -7   3   6    0.16    0.06
   6  -3  -6    0.16    0.03
  -6   3   6    0.13    0.03
  -6   3   6    0.12    0.05
  -6   3   6    0.14    0.05
  -5   3   6    1.74    0.10
  -5   3   6    1.80    0.07
  -5   3   6    1.66    0.11
  -4   3   6   -0.01    0.03
  -4   3   6    0.13    0.02
   3  -3  -6   38.35    0.96
   3  -3  -6   38.46    0.89
  -3   3   6   38.12    0.88
  -3   3   6   38.42    0.97
   2  -3  -6    0.95    0.06
  -2   3   6    0.97    0.05
   1  -3  -6   36.06    0.84
   1  -3  -6   35.62    0.90
   0  -3  -6    5.94    0.18
   0  -3  -6    6.14    0.19
   0   3   6    6.20    0.18
  -1  -3  -6   10.14    0.28
  -1  -3  -6    9.61    0.29
  -1  -3  -6   10.01    0.28
   1   3   6   10.34    0.30
  -2  -3  -6    0.07    0.03
  -2  -3  -6    0.04    0.03
  -2  -3  -6    0.07    0.03
  -3  -3  -6    2.79    0.13
  -3  -3  -6    2.92    0.12
  -3  -3  -6    2.90    0.13
  -4  -3  -6    0.06    0.04
  -4  -3  -6    0.09    0.05
  -4  -3  -6    0.06    0.04
  -5  -3  -6    0.49    0.07
  -5  -3  -6    0.46    0.07
  -5  -3  -6    0.42    0.07
  -6  -3  -6    1.46    0.12
  -6  -3  -6    1.41    0.11
  -8   4   6    2.13    0.16
  -8   4   6    2.20    0.15
   7  -4  -6    2.96    0.11
  -7   4   6    2.74    0.16
  -7   4   6    2.90    0.17
  -6   4   6    4.26    0.18
  -6   4   6    4.13    0.19
  -5   4   6    0.97    0.09
  -4   4   6    8.66    0.22
  -4   4   6    8.03    0.27
   3  -4  -6    0.02    0.03
   3  -4  -6   -0.02    0.02
  -3   4   6    0.02    0.02
  -3   4   6    0.01    0.03
   2  -4  -6    0.80    0.06
   2  -4  -6    0.59    0.05
   1  -4  -6    0.86    0.06
   1  -4  -6    0.93    0.06
   0  -4  -6    1.37    0.08
   0  -4  -6    1.44    0.08
   0  -4  -6    1.50    0.05
  -1  -4  -6   10.27    0.31
  -1  -4  -6   10.46    0.29
  -1  -4  -6   10.82    0.30
  -2  -4  -6   13.54    0.40
  -2  -4  -6   13.97    0.39
  -2  -4  -6   13.84    0.37
  -3  -4  -6    6.01    0.21
  -3  -4  -6    5.73    0.20
  -3  -4  -6    5.78    0.21
  -4  -4  -6    2.38    0.13
  -4  -4  -6    2.53    0.13
  -4  -4  -6    2.42    0.13
  -5  -4  -6    0.98    0.09
  -5  -4  -6    1.04    0.10
  -7   5   6    3.09    0.18
  -7   5   6    3.14    0.17
  -6   5   6    0.00    0.05
  -5   5   6    0.90    0.09
  -4   5   6    0.51    0.06
   3  -5  -6    0.19    0.03
   3  -5  -6    0.26    0.04
  -3   5   6    0.27    0.03
  -3   5   6    0.26    0.05
   2  -5  -6    8.01    0.23
   2  -5  -6    7.72    0.25
   1  -5  -6    1.63    0.09
   1  -5  -6    2.33    0.11
   0  -5  -6    0.11    0.04
   0  -5  -6    0.14    0.04
   0  -5  -6    0.14    0.02
  -1  -5  -6    1.30    0.07
  -1  -5  -6    1.27    0.09
  -1  -5  -6    1.28    0.08
  -2  -5  -6    4.96    0.18
  -2  -5  -6    5.00    0.19
  -2  -5  -6    4.88    0.17
  -3  -5  -6   -0.02    0.03
  -3  -5  -6    0.06    0.04
  -3  -5  -6    0.00    0.04
  -4  -5  -6    0.65    0.07
  -4  -5  -6    0.61    0.07
  -5  -5  -6    0.28    0.06
  -5  -5  -6    0.25    0.06
  -7   6   6    0.09    0.06
  -6   6   6    0.22    0.06
  -5   6   6   -0.01    0.05
   4  -6  -6    1.00    0.08
  -4   6   6    0.95    0.09
   3  -6  -6    2.94    0.13
  -3   6   6    2.85    0.15
   2  -6  -6    0.51    0.06
   2  -6  -6    0.62    0.06
   1  -6  -6    7.16    0.22
   1  -6  -6    6.75    0.23
   0  -6  -6    1.96    0.11
   0  -6  -6    2.02    0.10
  -1  -6  -6    6.78    0.22
  -1  -6  -6    6.99    0.21
  -1  -6  -6    6.24    0.23
  -2  -6  -6    3.21    0.14
  -2  -6  -6    3.27    0.13
  -2  -6  -6    2.99    0.15
  -3  -6  -6    0.76    0.08
  -3  -6  -6    0.64    0.08
  -4  -6  -6    1.92    0.13
  -4  -6  -6    2.07    0.13
  -6   7   6    0.45    0.09
  -5   7   6    0.16    0.07
   4  -7  -6   -0.01    0.04
  -4   7   6    0.08    0.05
   3  -7  -6    0.36    0.06
  -3   7   6    0.42    0.07
   2  -7  -6    0.18    0.05
   1  -7  -6    0.47    0.05
   1  -7  -6    0.43    0.06
   0  -7  -6    0.00    0.04
   0  -7  -6   -0.02    0.04
  -1  -7  -6    2.77    0.13
  -1  -7  -6    2.78    0.14
  -2  -7  -6   -0.01    0.04
  -2  -7  -6   -0.03    0.04
  -3  -7  -6    2.62    0.14
  -3  -7  -6    2.65    0.15
  -4   8   6    2.77    0.18
   3  -8  -6    0.15    0.05
  -3   8   6    0.24    0.07
   2  -8  -6    0.05    0.05
   1  -8  -6    0.58    0.08
   0  -8  -6    0.06    0.05
  -1  -8  -6    0.16    0.06
  -1  -8  -6    0.25    0.06
   3   8  -7   -0.02    0.04
   2   8  -7    1.26    0.11
   2   8  -7    1.22    0.08
   1   8  -7    1.20    0.10
   1   8  -7    1.21    0.08
  -1  -8   7    1.28    0.11
   0   8  -7    0.49    0.06
   0   8  -7    0.50    0.07
   0  -8   7    0.58    0.09
  -1   8  -7    1.25    0.09
  -1   8  -7    1.49    0.12
  -2   8  -7   -0.04    0.03
  -2   8  -7    0.01    0.05
  -5  -7   7    5.40    0.20
  -5  -7   7    5.12    0.17
   4   7  -7    0.29    0.06
   4   7  -7    0.30    0.04
  -4  -7   7    0.28    0.06
  -4  -7   7    0.27    0.04
   3   7  -7    1.46    0.10
   3   7  -7    1.45    0.08
  -3  -7   7    1.58    0.09
  -3  -7   7    1.57    0.07
   2   7  -7   14.45    0.40
   2   7  -7   13.80    0.44
  -2  -7   7   14.97    0.39
  -2  -7   7   15.67    0.47
   1   7  -7    2.69    0.14
   1   7  -7    2.61    0.11
  -1  -7   7    2.73    0.15
   0   7  -7    0.89    0.09
   0   7  -7    0.87    0.07
   0  -7   7    0.94    0.10
  -1   7  -7    0.38    0.05
  -1   7  -7    0.39    0.06
  -1   7  -7    0.39    0.07
   1  -7   7    0.25    0.06
  -2   7  -7    3.91    0.19
  -2   7  -7    4.00    0.16
  -2   7  -7    4.32    0.19
   2  -7   7    4.12    0.20
  -3   7  -7    1.78    0.12
  -3   7  -7    1.79    0.14
  -3   7  -7    1.87    0.10
   3  -7   7    1.63    0.13
  -4   7  -7    0.02    0.06
   6   6  -7    0.01    0.03
  -6  -6   7    0.02    0.05
   5   6  -7    0.32    0.06
   5   6  -7    0.30    0.04
  -5  -6   7    0.20    0.05
  -5  -6   7    0.20    0.04
   4   6  -7    0.08    0.04
   4   6  -7   -0.01    0.02
  -4  -6   7   -0.03    0.02
  -4  -6   7    0.00    0.03
   3   6  -7    0.50    0.05
   3   6  -7    0.42    0.06
  -3  -6   7    0.50    0.05
  -3  -6   7    0.57    0.05
   2   6  -7    1.20    0.07
   2   6  -7    1.05    0.08
  -2  -6   7    1.27    0.09
  -2  -6   7    1.20    0.06
  -2  -6   7    1.08    0.07
   1   6  -7    1.08    0.07
   1   6  -7    1.52    0.09
  -1  -6   7    1.18    0.09
  -1  -6   7    1.12    0.07
   0   6  -7    0.07    0.03
   0   6  -7    0.17    0.04
   0   6  -7    0.01    0.03
   0  -6   7   -0.03    0.04
  -1   6  -7   42.81    1.06
  -1   6  -7   44.32    1.14
  -1   6  -7   43.84    1.15
   1  -6   7   44.46    1.19
  -2   6  -7    1.01    0.07
  -2   6  -7    0.96    0.10
  -2   6  -7    0.89    0.09
   2  -6   7    1.08    0.10
  -3   6  -7    0.59    0.07
  -3   6  -7    0.64    0.08
  -3   6  -7    0.70    0.06
   3  -6   7    0.59    0.08
  -4   6  -7    1.54    0.13
  -4   6  -7    1.45    0.09
  -4   6  -7    1.47    0.11
   4  -6   7    1.76    0.13
  -5   6  -7    0.94    0.11
  -7  -5   7    4.09    0.20
   6   5  -7    0.50    0.05
   6   5  -7    0.66    0.07
  -6  -5   7    0.58    0.08
  -6  -5   7    0.53    0.07
  -6  -5   7    0.49    0.05
   5   5  -7    0.57    0.07
   5   5  -7    0.61    0.05
  -5  -5   7    0.59    0.06
  -5  -5   7    0.54    0.05
   4   5  -7    4.13    0.14
   4   5  -7    4.12    0.17
  -4  -5   7    4.15    0.15
  -4  -5   7    4.15    0.14
   3   5  -7    2.76    0.10
   3   5  -7    2.48    0.12
  -3  -5   7    2.60    0.10
  -3  -5   7    2.60    0.14
  -3  -5   7    2.52    0.11
   2   5  -7    7.75    0.26
   2   5  -7    8.22    0.23
  -2  -5   7    7.83    0.22
  -2  -5   7    7.91    0.27
  -2  -5   7    8.27    0.23
   1   5  -7    0.35    0.05
   1   5  -7    0.24    0.03
   1   5  -7    0.29    0.04
  -1  -5   7    0.25    0.03
  -1  -5   7    0.24    0.05
  -1  -5   7    0.23    0.03
   0   5  -7    2.40    0.11
   0   5  -7    2.14    0.11
   0   5  -7    1.90    0.09
   0  -5   7    2.14    0.12
   0  -5   7    2.18    0.09
  -1   5  -7   41.96    1.03
  -1   5  -7   38.76    1.03
  -1   5  -7   38.79    0.96
   1  -5   7   39.22    1.08
   1  -5   7   40.29    0.91
  -2   5  -7   10.61    0.33
  -2   5  -7   10.37    0.33
  -2   5  -7   10.28    0.29
   2  -5   7   10.55    0.35
  -3   5  -7    0.04    0.03
  -3   5  -7    0.11    0.05
  -3   5  -7    0.15    0.05
   3  -5   7    0.09    0.05
  -4   5  -7    2.92    0.13
  -4   5  -7    2.91    0.16
  -4   5  -7    2.98    0.14
   4  -5   7    2.83    0.17
  -5   5  -7    0.39    0.07
  -5   5  -7    0.39    0.05
  -5   5  -7    0.46    0.08
   7   4  -7    8.93    0.31
  -7  -4   7    8.64    0.31
  -7  -4   7    8.48    0.26
  -7  -4   7    8.47    0.28
   6   4  -7   18.30    0.52
  -6  -4   7   17.69    0.46
  -6  -4   7   17.40    0.47
  -6  -4   7   17.44    0.52
   5   4  -7   33.79    0.78
   5   4  -7   33.36    0.88
  -5  -4   7   32.31    0.80
  -5  -4   7   33.62    0.80
  -5  -4   7   31.65    0.87
   4   4  -7   12.23    0.31
   4   4  -7   12.50    0.37
  -4  -4   7   12.39    0.37
  -4  -4   7   11.77    0.33
  -4  -4   7   11.81    0.32
   3   4  -7   41.53    0.97
   3   4  -7   41.02    1.06
  -3  -4   7   41.79    0.97
  -3  -4   7   41.73    1.10
  -3  -4   7   40.38    0.98
   2   4  -7    2.46    0.11
   2   4  -7    2.40    0.09
  -2  -4   7    2.52    0.09
  -2  -4   7    2.45    0.10
  -2  -4   7    2.57    0.12
   1   4  -7    2.03    0.10
   1   4  -7    1.96    0.08
   1   4  -7    2.08    0.09
  -1  -4   7    2.09    0.08
  -1  -4   7    2.00    0.11
  -1  -4   7    2.09    0.08
   0   4  -7    0.31    0.03
   0   4  -7    0.37    0.05
   0   4  -7    0.54    0.05
   0  -4   7    0.40    0.04
   0  -4   7    0.33    0.05
   0  -4   7    0.40    0.03
  -1   4  -7   24.30    0.67
  -1   4  -7   25.84    0.67
  -1   4  -7   24.70    0.61
   1  -4   7   25.73    0.59
   1  -4   7   24.99    0.71
  -2   4  -7    0.14    0.05
  -2   4  -7    0.14    0.04
  -2   4  -7    0.10    0.03
   2  -4   7    0.10    0.04
   2  -4   7    0.15    0.03
  -3   4  -7    0.07    0.04
  -3   4  -7    0.12    0.05
  -3   4  -7    0.11    0.03
   3  -4   7    0.03    0.05
  -4   4  -7   39.71    1.04
  -4   4  -7   39.45    1.02
  -4   4  -7   37.47    0.95
   4  -4   7   39.17    1.08
  -5   4  -7    1.63    0.10
  -5   4  -7    1.73    0.11
  -5   4  -7    1.68    0.13
  -6   4  -7    2.87    0.18
  -6   4  -7    2.87    0.15
  -8  -3   7    1.59    0.10
  -8  -3   7    1.47    0.10
  -8  -3   7    1.56    0.12
   7   3  -7    0.93    0.09
  -7  -3   7    1.05    0.08
  -7  -3   7    1.04    0.10
  -7  -3   7    1.08    0.08
   6   3  -7    0.02    0.04
  -6  -3   7    0.00    0.03
  -6  -3   7   -0.01    0.04
  -6  -3   7    0.04    0.04
   5   3  -7   25.88    0.70
  -5  -3   7   25.82    0.64
  -5  -3   7   25.88    0.64
  -5  -3   7   25.86    0.70
   4   3  -7    3.95    0.16
  -4  -3   7    4.00    0.14
  -4  -3   7    4.00    0.16
  -4  -3   7    4.12    0.13
   3   3  -7    2.55    0.08
   3   3  -7    2.66    0.11
  -3  -3   7    2.54    0.10
  -3  -3   7    2.52    0.09
  -3  -3   7    2.61    0.12
  -3  -3   7    2.69    0.12
   2   3  -7    1.65    0.10
   2   3  -7    1.52    0.06
   2   3  -7    1.80    0.06
   2   3  -7    1.50    0.08
  -2  -3   7    1.97    0.07
  -2  -3   7    1.76    0.09
  -2  -3   7    1.57    0.07
  -2  -3   7    1.58    0.08
   1   3  -7   25.15    0.67
   1   3  -7   23.54    0.57
   1   3  -7   23.73    0.63
   1   3  -7   24.91    0.60
  -1  -3   7   23.93    0.66
  -1  -3   7   23.70    0.57
  -1  -3   7   23.31    0.58
   0   3  -7   16.29    0.43
   0   3  -7   17.47    0.48
   0   3  -7   16.47    0.45
   0   3  -7   16.34    0.40
   0  -3   7   16.18    0.40
   0  -3   7   16.00    0.47
   0  -3   7   16.17    0.40
  -1   3  -7    4.95    0.19
  -1   3  -7    4.69    0.16
  -1   3  -7    4.58    0.14
  -1   3  -7    4.60    0.16
   1  -3   7    4.59    0.14
   1  -3   7    4.48    0.18
  -2   3  -7    6.42    0.21
  -2   3  -7    6.42    0.19
  -2   3  -7    6.60    0.19
  -2   3  -7    6.63    0.22
   2  -3   7    6.52    0.24
   2  -3   7    6.70    0.18
  -3   3  -7   37.31    0.87
  -3   3  -7   37.76    0.97
  -3   3  -7   36.66    0.90
  -3   3  -7   37.42    0.99
   3  -3   7   38.88    0.87
   3  -3   7   37.71    1.03
  -4   3  -7    6.85    0.21
  -4   3  -7    7.06    0.26
  -4   3  -7    6.98    0.23
   4  -3   7    7.32    0.28
  -5   3  -7   -0.01    0.05
  -5   3  -7    0.02    0.03
  -5   3  -7   -0.01    0.04
  -6   3  -7    3.01    0.13
  -6   3  -7    2.76    0.17
  -8  -2   7    0.12    0.04
  -8  -2   7    0.07    0.04
  -8  -2   7    0.07    0.05
  -7  -2   7    1.68    0.09
  -7  -2   7    1.61    0.09
  -7  -2   7    1.62    0.11
   6   2  -7    5.08    0.20
  -6  -2   7    4.74    0.19
  -6  -2   7    4.83    0.16
  -6  -2   7    4.67    0.17
   5   2  -7    1.93    0.10
  -5  -2   7    1.78    0.09
  -5  -2   7    1.81    0.10
  -5  -2   7    1.86    0.08
   4   2  -7    0.04    0.03
  -4  -2   7    0.03    0.03
  -4  -2   7    0.04    0.03
  -4  -2   7    0.06    0.02
   3   2  -7   21.62    0.58
   3   2  -7   22.04    0.60
  -3  -2   7   21.65    0.53
  -3  -2   7   22.39    0.60
  -3  -2   7   21.93    0.53
  -3  -2   7   21.44    0.58
   2   2  -7   16.35    0.44
   2   2  -7   16.47    0.46
  -2  -2   7   16.19    0.40
  -2  -2   7   15.80    0.43
  -2  -2   7   16.20    0.40
  -2  -2   7   16.25    0.45
   1   2  -7    0.83    0.04
   1   2  -7    0.77    0.05
   1   2  -7    0.82    0.03
   1   2  -7    0.85    0.06
  -1  -2   7    0.84    0.06
  -1  -2   7    0.72    0.05
  -1  -2   7    0.82    0.04
   0   2  -7   40.17    0.99
   0   2  -7   39.08    0.93
   0   2  -7   40.55    0.93
   0   2  -7   41.80    1.06
   0   2  -7   39.15    1.01
   0  -2   7   39.11    0.92
   0  -2   7   39.88    0.94
   0  -2   7   40.43    1.05
  -1   2  -7    0.03    0.02
  -1   2  -7    0.01    0.02
  -1   2  -7    0.04    0.02
  -1   2  -7    0.02    0.03
  -1   2  -7    0.05    0.02
   1  -2   7   -0.01    0.02
   1  -2   7    0.00    0.02
  -2   2  -7   16.46    0.44
  -2   2  -7   16.14    0.45
  -2   2  -7   16.08    0.40
  -2   2  -7   16.16    0.40
   2  -2   7   16.81    0.48
  -3   2  -7    0.24    0.04
  -3   2  -7    0.20    0.05
  -3   2  -7    0.19    0.03
  -3   2  -7    0.22    0.04
   3  -2   7    0.28    0.06
  -4   2  -7    5.20    0.21
  -4   2  -7    5.26    0.21
  -4   2  -7    5.27    0.18
  -4   2  -7    4.98    0.17
  -4   2  -7    5.05    0.16
  -5   2  -7    0.62    0.06
  -5   2  -7    0.73    0.06
  -5   2  -7    0.59    0.08
  -6   2  -7    2.22    0.11
  -6   2  -7    2.32    0.15
  -8  -1   7    2.95    0.13
  -8  -1   7    3.23    0.13
  -8  -1   7    2.84    0.16
   7   1  -7    0.56    0.07
  -7  -1   7    0.49    0.07
  -7  -1   7    0.56    0.06
  -7  -1   7    0.48    0.05
  -6  -1   7   13.05    0.40
  -6  -1   7   13.97    0.36
  -6  -1   7   13.29    0.36
   5   1  -7   22.53    0.63
  -5  -1   7   24.43    0.57
  -5  -1   7   22.71    0.56
  -5  -1   7   22.67    0.62
   4   1  -7   16.94    0.48
   4   1  -7   17.26    0.48
  -4  -1   7   17.09    0.43
  -4  -1   7   17.55    0.48
  -4  -1   7   18.24    0.43
  -4  -1   7   16.80    0.47
  -4  -1   7   17.76    0.43
   3   1  -7    2.23    0.10
   3   1  -7    2.34    0.10
  -3  -1   7    2.28    0.09
  -3  -1   7    2.25    0.10
  -3  -1   7    2.41    0.08
  -3  -1   7    2.23    0.10
   2   1  -7    0.04    0.02
   2   1  -7    0.03    0.02
  -2  -1   7    0.03    0.01
  -2  -1   7    0.02    0.02
  -2  -1   7    0.01    0.02
  -2  -1   7    0.02    0.02
   1   1  -7    1.52    0.08
   1   1  -7    1.62    0.05
  -1  -1   7    1.58    0.05
  -1  -1   7    1.49    0.07
  -1  -1   7    1.52    0.08
  -1  -1   7    1.54    0.07
   0   1  -7    0.80    0.06
   0   1  -7    0.74    0.05
   0   1  -7    0.71    0.05
   0   1  -7    0.85    0.05
   0  -1   7    0.81    0.06
   0  -1   7    0.83    0.05
   0  -1   7    0.78    0.04
  -1   1  -7  121.64    3.04
  -1   1  -7  125.26    2.79
  -1   1  -7  126.23    3.02
  -1   1  -7  127.08    3.13
   1  -1   7  123.70    2.85
   1  -1   7  122.84    3.14
  -2   1  -7    9.17    0.30
  -2   1  -7    9.04    0.28
  -2   1  -7    9.09    0.23
  -2   1  -7    9.05    0.25
  -2   1  -7    9.29    0.26
   2  -1   7    9.73    0.30
  -3   1  -7   69.04    1.72
  -3   1  -7   65.32    1.54
  -3   1  -7   66.56    1.66
  -3   1  -7   65.63    1.52
  -3   1  -7   66.08    1.65
   3  -1   7   66.04    1.73
  -4   1  -7    1.16    0.07
  -4   1  -7    1.21    0.09
  -4   1  -7    0.93    0.09
  -4   1  -7    1.25    0.08
  -4   1  -7    1.23    0.06
  -5   1  -7    0.45    0.08
  -5   1  -7    0.46    0.05
  -5   1  -7    0.52    0.07
  -5   1  -7    0.74    0.07
  -6   1  -7    0.46    0.08
  -6   1  -7    0.42    0.05
  -8   0   7    0.27    0.05
  -8   0   7    0.30    0.06
   7   0  -7    0.59    0.07
  -7   0   7    0.55    0.07
  -7   0   7    0.57    0.06
   6   0  -7    6.89    0.23
  -6   0   7    6.93    0.21
  -6   0   7    6.68    0.24
   5   0  -7    2.71    0.11
  -5   0   7    2.85    0.10
  -5   0   7    2.67    0.11
  -5   0   7    2.81    0.13
   4   0  -7   19.86    0.53
   4   0  -7   19.63    0.54
  -4   0   7   19.47    0.53
  -4   0   7   19.75    0.54
  -4   0   7   20.15    0.50
  -4   0   7   19.38    0.48
  -4   0   7   20.49    0.47
   3   0  -7    2.53    0.11
   3   0  -7    2.55    0.09
  -3   0   7    2.72    0.10
  -3   0   7    2.51    0.09
  -3   0   7    2.43    0.08
  -3   0   7    2.48    0.11
   2   0  -7   88.31    2.21
   2   0  -7   91.61    2.26
   2   0  -7   94.75    2.18
  -2   0   7   88.22    2.02
  -2   0   7   88.03    2.26
  -2   0   7   88.72    2.19
   1   0  -7   30.08    0.76
   1   0  -7   29.25    0.75
   1   0  -7   29.61    0.73
   1   0  -7   29.23    0.70
  -1   0   7   29.64    0.69
  -1   0   7   29.61    0.77
  -1   0   7   29.30    0.73
   0   0  -7    3.29    0.11
   0   0  -7    3.02    0.11
   0   0  -7    3.23    0.12
   0   0  -7    3.16    0.11
   0   0   7    3.33    0.09
   0   0   7    3.32    0.10
   0   0   7    3.26    0.12
  -1   0  -7    3.01    0.10
  -1   0  -7    3.13    0.12
  -1   0  -7    3.03    0.12
   1   0   7    3.05    0.09
   1   0   7    3.08    0.13
  -2   0  -7    8.58    0.26
  -2   0  -7    8.69    0.27
  -2   0  -7    8.40    0.24
  -2   0  -7    8.78    0.27
  -2   0  -7    8.41    0.24
   2   0   7    8.79    0.28
  -3   0  -7    1.28    0.09
  -3   0  -7    1.11    0.09
  -3   0  -7    1.26    0.06
  -3   0  -7    1.23    0.08
  -4   0  -7    3.87    0.17
  -4   0  -7    4.29    0.12
  -4   0  -7    4.22    0.18
  -4   0  -7    4.19    0.16
  -5   0  -7   -0.01    0.05
  -5   0  -7    0.04    0.04
  -5   0  -7    0.05    0.02
  -5   0  -7    0.05    0.04
  -6   0  -7    0.26    0.05
  -6   0  -7    0.28    0.06
  -6   0  -7    0.27    0.07
  -8   1   7   -0.03    0.03
  -8   1   7   -0.02    0.05
   7  -1  -7    1.72    0.10
  -7   1   7    1.59    0.11
  -7   1   7    1.72    0.09
   6  -1  -7    0.58    0.06
  -6   1   7    0.56    0.05
  -6   1   7    0.48    0.06
  -6   1   7    0.56    0.06
   5  -1  -7    6.97    0.21
   5  -1  -7    6.82    0.20
  -5   1   7    6.54    0.23
  -5   1   7    6.76    0.20
  -5   1   7    6.82    0.21
   4  -1  -7    3.58    0.11
   4  -1  -7    3.53    0.11
  -4   1   7    3.62    0.12
  -4   1   7    3.59    0.12
  -4   1   7    3.50    0.14
  -4   1   7    3.55    0.12
   3  -1  -7   27.71    0.75
   3  -1  -7   28.09    0.74
   3  -1  -7   29.67    0.74
  -3   1   7   29.23    0.75
  -3   1   7   28.69    0.68
  -3   1   7   30.10    0.73
  -3   1   7   29.47    0.74
   2  -1  -7  169.55    4.16
   2  -1  -7  172.85    3.85
   2  -1  -7  170.05    4.22
  -2   1   7  175.26    3.85
  -2   1   7  176.81    4.18
  -2   1   7  174.11    4.31
   1  -1  -7  101.14    2.29
   1  -1  -7  102.44    2.50
   1  -1  -7   99.13    2.55
   1  -1  -7  103.02    2.46
  -1   1   7  104.75    2.55
  -1   1   7  101.82    2.47
  -1   1   7  101.14    2.28
   0  -1  -7    6.91    0.20
   0  -1  -7    6.99    0.20
   0   1   7    7.15    0.22
   0   1   7    7.14    0.18
  -1  -1  -7    0.05    0.03
  -1  -1  -7    0.10    0.03
  -1  -1  -7    0.09    0.02
   1   1   7    0.08    0.03
   1   1   7    0.10    0.02
  -2  -1  -7   10.57    0.32
  -2  -1  -7   10.67    0.28
  -2  -1  -7   10.32    0.32
  -2  -1  -7   10.79    0.29
   2   1   7   11.04    0.33
  -3  -1  -7    6.16    0.22
  -3  -1  -7    6.18    0.22
  -3  -1  -7    6.24    0.20
  -4  -1  -7    0.43    0.06
  -4  -1  -7    0.48    0.06
  -4  -1  -7    0.49    0.07
  -5  -1  -7   11.37    0.38
  -5  -1  -7   12.08    0.34
  -5  -1  -7   11.57    0.38
  -6  -1  -7    0.83    0.08
  -6  -1  -7    0.80    0.09
  -6  -1  -7    0.71    0.09
  -8   2   7    0.03    0.06
   7  -2  -7   -0.03    0.03
  -7   2   7   -0.01    0.03
  -7   2   7   -0.02    0.04
  -7   2   7    0.07    0.05
   6  -2  -7    6.81    0.21
  -6   2   7    6.88    0.25
  -6   2   7    6.96    0.20
  -6   2   7    6.64    0.23
   5  -2  -7    0.09    0.02
   5  -2  -7    0.09    0.02
  -5   2   7    0.15    0.04
  -5   2   7    0.11    0.03
  -5   2   7    0.08    0.04
  -4   2   7    0.54    0.04
  -4   2   7    0.57    0.06
  -4   2   7    0.55    0.05
   3  -2  -7   19.08    0.48
  -3   2   7   18.38    0.45
  -3   2   7   18.63    0.49
  -3   2   7   18.33    0.50
   2  -2  -7    3.90    0.13
  -2   2   7    3.91    0.14
  -2   2   7    3.90    0.13
   1  -2  -7   19.82    0.52
   1  -2  -7   19.72    0.49
   1  -2  -7   20.56    0.52
  -1   2   7   20.21    0.52
  -1   2   7   20.29    0.52
   0  -2  -7    0.97    0.05
   0  -2  -7    1.00    0.06
   0  -2  -7    1.02    0.06
   0   2   7    1.11    0.06
   0   2   7    1.06    0.05
  -1  -2  -7   50.98    1.32
  -1  -2  -7   51.17    1.20
  -1  -2  -7   54.47    1.28
  -1  -2  -7   51.27    1.29
   1   2   7   51.32    1.34
   1   2   7   52.32    1.19
   1   2   7   51.45    1.27
  -2  -2  -7    9.14    0.28
  -2  -2  -7    9.45    0.28
  -2  -2  -7    9.25    0.27
  -3  -2  -7   11.77    0.33
  -3  -2  -7   12.13    0.36
  -3  -2  -7   11.48    0.36
  -4  -2  -7    0.11    0.04
  -4  -2  -7    0.02    0.04
  -4  -2  -7    0.10    0.05
  -5  -2  -7    2.41    0.14
  -5  -2  -7    2.68    0.14
  -5  -2  -7    2.65    0.13
  -6  -2  -7    0.36    0.08
  -6  -2  -7    0.30    0.06
  -8   3   7    0.03    0.06
   7  -3  -7   12.09    0.33
  -7   3   7   12.01    0.38
  -7   3   7   11.43    0.39
  -6   3   7    2.62    0.10
  -6   3   7    2.74    0.13
  -6   3   7    2.64    0.14
  -5   3   7    4.07    0.18
  -5   3   7    4.44    0.14
  -5   3   7    4.54    0.18
  -4   3   7    5.42    0.20
  -4   3   7    5.43    0.16
  -4   3   7    5.33    0.19
   3  -3  -7    9.06    0.25
   3  -3  -7    9.07    0.26
  -3   3   7    9.00    0.27
  -3   3   7    9.18    0.24
   2  -3  -7    0.22    0.04
   2  -3  -7    0.29    0.03
  -2   3   7    0.26    0.03
   0  -3  -7    2.66    0.11
   0  -3  -7    2.64    0.11
   0   3   7    2.79    0.10
  -1  -3  -7   34.41    0.89
  -1  -3  -7   34.22    0.83
  -1  -3  -7   35.68    0.90
  -2  -3  -7   10.27    0.32
  -2  -3  -7   10.69    0.30
  -2  -3  -7   10.76    0.31
  -3  -3  -7    0.06    0.04
  -3  -3  -7    0.06    0.04
  -3  -3  -7    0.04    0.03
  -4  -3  -7   10.39    0.31
  -4  -3  -7   10.27    0.34
  -4  -3  -7   10.47    0.34
  -5  -3  -7    0.01    0.05
  -5  -3  -7   -0.03    0.04
  -6  -3  -7    2.86    0.17
  -6  -3  -7    3.05    0.16
  -8   4   7    0.46    0.08
  -8   4   7    0.50    0.09
  -7   4   7    0.09    0.06
  -7   4   7    0.04    0.05
  -6   4   7    1.65    0.12
  -6   4   7    1.85    0.12
  -5   4   7    0.03    0.03
  -5   4   7    0.00    0.04
  -5   4   7    0.21    0.05
  -4   4   7    3.07    0.11
  -4   4   7    3.01    0.14
   3  -4  -7    8.09    0.24
   3  -4  -7    8.08    0.23
  -3   4   7    8.04    0.22
  -3   4   7    7.57    0.26
   2  -4  -7    0.98    0.06
   2  -4  -7    0.97    0.07
   1  -4  -7    6.29    0.19
   1  -4  -7    6.15    0.20
   0  -4  -7   -0.01    0.03
   0  -4  -7    0.07    0.03
  -1  -4  -7    0.03    0.02
  -1  -4  -7    0.01    0.04
  -1  -4  -7    0.04    0.03
  -2  -4  -7    0.61    0.06
  -2  -4  -7    0.61    0.06
  -2  -4  -7    0.60    0.06
  -3  -4  -7    0.98    0.08
  -3  -4  -7    0.98    0.09
  -3  -4  -7    1.06    0.08
  -4  -4  -7    4.46    0.19
  -4  -4  -7    4.85    0.19
  -5  -4  -7    0.97    0.09
  -5  -4  -7    0.97    0.10
  -7   5   7    0.97    0.10
  -7   5   7    0.79    0.10
  -6   5   7    0.03    0.05
  -6   5   7    0.00    0.05
  -5   5   7   -0.03    0.04
   4  -5  -7    0.41    0.05
  -4   5   7    0.51    0.07
   3  -5  -7    0.48    0.05
   3  -5  -7    0.56    0.05
  -3   5   7    0.52    0.06
  -3   5   7    0.51    0.05
   2  -5  -7    3.07    0.13
   2  -5  -7    3.13    0.12
   1  -5  -7    2.11    0.10
   1  -5  -7    2.15    0.11
   0  -5  -7    8.63    0.25
   0  -5  -7    7.98    0.26
  -1  -5  -7    1.74    0.10
  -1  -5  -7    1.86    0.08
  -1  -5  -7    1.81    0.10
  -2  -5  -7    1.25    0.09
  -2  -5  -7    1.20    0.10
  -2  -5  -7    1.18    0.08
  -3  -5  -7    3.58    0.17
  -3  -5  -7    3.64    0.16
  -4  -5  -7    0.00    0.04
  -4  -5  -7    0.02    0.05
  -7   6   7    2.86    0.18
  -7   6   7    2.60    0.17
  -6   6   7    0.05    0.05
  -5   6   7    0.99    0.10
   4  -6  -7    0.18    0.05
  -4   6   7    0.07    0.05
   3  -6  -7    1.06    0.09
  -3   6   7    1.09    0.10
   2  -6  -7    5.23    0.18
   2  -6  -7    5.21    0.19
   1  -6  -7    0.32    0.05
   1  -6  -7    0.38    0.05
   0  -6  -7    0.27    0.05
   0  -6  -7    0.33    0.05
  -1  -6  -7    3.56    0.15
  -1  -6  -7    3.57    0.12
  -1  -6  -7    3.48    0.16
  -2  -6  -7    1.91    0.12
  -2  -6  -7    2.08    0.13
  -3  -6  -7    0.61    0.08
  -3  -6  -7    0.61    0.08
  -6   7   7    0.59    0.09
  -5   7   7   -0.01    0.05
   4  -7  -7    2.31    0.13
  -4   7   7    2.27    0.15
   3  -7  -7    0.46    0.06
  -3   7   7    0.44    0.07
   2  -7  -7    0.04    0.04
   1  -7  -7    2.08    0.11
   1  -7  -7    1.78    0.11
   0  -7  -7    0.11    0.05
   0  -7  -7    0.01    0.05
  -1  -7  -7    0.32    0.06
  -1  -7  -7    0.37    0.07
  -2  -7  -7    1.08    0.10
  -2  -7  -7    1.19    0.10
   4  -8  -7    0.54    0.08
  -4   8   7    0.38    0.09
  -3   8   7    0.13    0.07
   2  -8  -7    0.10    0.05
   1  -8  -7    0.05    0.05
   0  -8  -7    1.86    0.12
   2   8  -8    1.44    0.11
   1   8  -8    1.88    0.10
   1   8  -8    1.98    0.13
   0   8  -8    1.87    0.10
   4   7  -8    2.06    0.10
   4   7  -8    1.87    0.12
  -4  -7   8    2.11    0.09
  -4  -7   8    2.00    0.11
   3   7  -8    0.29    0.06
   3   7  -8    0.28    0.04
  -3  -7   8    0.22    0.04
  -3  -7   8    0.23    0.05
   2   7  -8    0.10    0.03
   2   7  -8    0.13    0.05
  -2  -7   8    0.00    0.04
   1   7  -8    2.75    0.15
   1   7  -8    2.52    0.11
   0   7  -8    0.09    0.03
   0   7  -8    0.10    0.05
   0  -7   8    0.09    0.05
  -1   7  -8    6.98    0.26
  -1   7  -8    6.74    0.22
   1  -7   8    7.18    0.28
  -2   7  -8    1.89    0.14
  -2   7  -8    2.09    0.10
  -2   7  -8    1.94    0.13
   2  -7   8    2.13    0.14
  -3   7  -8    6.26    0.27
   5   6  -8   20.88    0.51
   5   6  -8   19.76    0.58
  -5  -6   8   19.97    0.53
  -5  -6   8   20.36    0.52
   4   6  -8    0.09    0.03
   4   6  -8    0.00    0.04
  -4  -6   8   -0.03    0.03
  -4  -6   8   -0.03    0.04
   3   6  -8    4.72    0.19
   3   6  -8    4.83    0.16
  -3  -6   8    4.82    0.15
  -3  -6   8    4.69    0.17
   2   6  -8    0.02    0.02
   2   6  -8    0.05    0.04
  -2  -6   8    0.03    0.02
  -2  -6   8   -0.01    0.03
   1   6  -8    1.78    0.11
   1   6  -8    1.79    0.09
  -1  -6   8    1.92    0.09
  -1  -6   8    1.86    0.12
   0   6  -8    0.16    0.05
   0   6  -8    0.15    0.03
   0  -6   8    0.16    0.05
  -1   6  -8    0.17    0.05
  -1   6  -8    0.11    0.03
  -1   6  -8    0.10    0.05
   1  -6   8    0.10    0.05
  -2   6  -8    1.75    0.12
  -2   6  -8    1.72    0.11
  -2   6  -8    1.58    0.09
   2  -6   8    1.86    0.13
  -3   6  -8    0.00    0.04
  -3   6  -8    0.02    0.03
  -3   6  -8   -0.04    0.05
  -4   6  -8    2.79    0.17
  -4   6  -8    2.74    0.15
  -4   6  -8    2.64    0.13
   6   5  -8    0.37    0.07
  -6  -5   8    0.42    0.05
  -6  -5   8    0.44    0.06
  -6  -5   8    0.42    0.07
   5   5  -8    3.04    0.15
   5   5  -8    2.94    0.10
  -5  -5   8    2.89    0.12
  -5  -5   8    3.02    0.13
   4   5  -8   10.93    0.34
   4   5  -8   10.80    0.28
  -4  -5   8   10.84    0.30
  -4  -5   8   10.47    0.31
   3   5  -8    0.52    0.06
   3   5  -8    0.47    0.04
  -3  -5   8    0.50    0.05
  -3  -5   8    0.49    0.05
   2   5  -8   11.07    0.35
   2   5  -8   11.01    0.30
  -2  -5   8   11.40    0.30
  -2  -5   8   11.62    0.31
   1   5  -8    4.42    0.17
   1   5  -8    3.95    0.14
  -1  -5   8    4.51    0.19
  -1  -5   8    4.09    0.13
  -1  -5   8    4.39    0.14
   0   5  -8    0.80    0.07
   0   5  -8    0.67    0.05
   0   5  -8    0.83    0.07
   0  -5   8    0.59    0.07
   0  -5   8    0.75    0.06
  -1   5  -8    2.16    0.10
  -1   5  -8    2.39    0.12
  -1   5  -8    2.22    0.12
   1  -5   8    2.35    0.14
  -2   5  -8   11.42    0.32
  -2   5  -8   11.98    0.37
  -2   5  -8   11.44    0.36
   2  -5   8   11.84    0.39
  -3   5  -8    0.89    0.07
  -3   5  -8    1.07    0.10
  -3   5  -8    1.09    0.09
  -4   5  -8    0.93    0.10
  -4   5  -8    0.90    0.07
  -4   5  -8    0.70    0.08
  -5   5  -8   -0.06    0.05
  -5   5  -8    0.00    0.05
   7   4  -8    1.40    0.12
  -7  -4   8    1.48    0.12
  -7  -4   8    1.44    0.10
  -7  -4   8    1.35    0.09
   6   4  -8    0.20    0.06
  -6  -4   8    0.11    0.04
  -6  -4   8    0.16    0.05
  -6  -4   8    0.06    0.04
   5   4  -8    4.83    0.20
  -5  -4   8    5.01    0.20
  -5  -4   8    5.08    0.18
  -5  -4   8    4.64    0.16
   4   4  -8    4.43    0.13
   4   4  -8    4.46    0.18
  -4  -4   8    4.28    0.15
  -4  -4   8    4.43    0.16
  -4  -4   8    4.49    0.18
   3   4  -8    0.19    0.05
   3   4  -8    0.19    0.02
  -3  -4   8    0.20    0.03
  -3  -4   8    0.14    0.04
   2   4  -8   23.27    0.55
   2   4  -8   22.25    0.62
  -2  -4   8   22.74    0.55
  -2  -4   8   23.17    0.64
  -2  -4   8   22.55    0.56
   1   4  -8    0.57    0.04
   1   4  -8    0.60    0.06
  -1  -4   8    0.65    0.07
  -1  -4   8    0.67    0.05
  -1  -4   8    0.58    0.04
   0   4  -8   37.92    0.90
   0   4  -8   39.48    0.96
   0   4  -8   36.16    0.98
   0  -4   8   38.94    1.03
   0  -4   8   37.11    0.90
   0  -4   8   37.95    0.88
  -1   4  -8    3.66    0.15
  -1   4  -8    3.56    0.12
   1  -4   8    3.73    0.17
   1  -4   8    3.79    0.12
  -2   4  -8   39.72    1.01
  -2   4  -8   37.54    0.93
  -2   4  -8   38.94    1.01
   2  -4   8   38.64    1.06
  -3   4  -8    0.00    0.02
  -3   4  -8    0.05    0.04
  -3   4  -8    0.04    0.04
  -4   4  -8    7.02    0.27
  -4   4  -8    6.90    0.22
  -4   4  -8    7.10    0.25
  -5   4  -8    0.28    0.05
  -5   4  -8    0.33    0.08
  -5   4  -8    0.34    0.06
  -8  -3   8    3.95    0.16
  -8  -3   8    3.47    0.18
   7   3  -8    5.38    0.22
  -7  -3   8    5.01    0.18
  -7  -3   8    4.75    0.21
  -7  -3   8    4.94    0.19
   6   3  -8    0.01    0.04
  -6  -3   8   -0.04    0.03
  -6  -3   8    0.01    0.03
  -6  -3   8    0.02    0.04
   5   3  -8   34.94    0.93
  -5  -3   8   34.57    0.84
  -5  -3   8   34.96    0.92
  -5  -3   8   35.67    0.85
   4   3  -8    2.85    0.13
  -4  -3   8    2.71    0.10
  -4  -3   8    2.76    0.13
  -4  -3   8    2.65    0.11
   3   3  -8   16.99    0.48
  -3  -3   8   17.05    0.43
  -3  -3   8   17.57    0.43
  -3  -3   8   16.85    0.47
   2   3  -8   -0.05    0.02
   2   3  -8    0.00    0.01
  -2  -3   8    0.02    0.02
  -2  -3   8    0.01    0.03
  -2  -3   8    0.01    0.02
   1   3  -8    0.22    0.02
   1   3  -8    0.14    0.03
   1   3  -8    0.19    0.02
  -1  -3   8    0.21    0.03
  -1  -3   8    0.21    0.04
   0   3  -8    2.56    0.10
   0   3  -8    2.34    0.08
   0   3  -8    2.29    0.11
   0  -3   8    2.43    0.09
   0  -3   8    2.32    0.08
   0  -3   8    2.61    0.12
  -1   3  -8    8.09    0.22
  -1   3  -8    7.75    0.25
   1  -3   8    8.62    0.28
   1  -3   8    8.43    0.22
  -2   3  -8   47.78    1.15
  -2   3  -8   48.08    1.13
  -2   3  -8   48.18    1.24
  -2   3  -8   50.17    1.24
   2  -3   8   49.97    1.31
   2  -3   8   49.58    1.12
  -3   3  -8   17.94    0.47
  -3   3  -8   19.33    0.54
  -3   3  -8   18.54    0.52
  -3   3  -8   18.43    0.46
   3  -3   8   18.97    0.46
  -4   3  -8    3.34    0.15
  -4   3  -8    3.43    0.13
  -4   3  -8    3.30    0.17
  -5   3  -8    3.15    0.15
  -5   3  -8    3.21    0.18
  -5   3  -8    3.05    0.13
  -6   3  -8    1.85    0.10
  -6   3  -8    1.75    0.14
  -8  -2   8    0.02    0.05
  -8  -2   8    0.01    0.04
  -8  -2   8    0.00    0.04
  -7  -2   8    1.04    0.09
  -7  -2   8    0.85    0.07
  -7  -2   8    0.86    0.07
   6   2  -8    3.63    0.17
  -6  -2   8    3.47    0.16
  -6  -2   8    3.92    0.14
  -6  -2   8    3.37    0.14
   5   2  -8    0.20    0.04
  -5  -2   8    0.19    0.03
  -5  -2   8    0.23    0.05
  -5  -2   8    0.24    0.04
   4   2  -8   18.63    0.52
  -4  -2   8   18.49    0.47
  -4  -2   8   18.41    0.51
  -4  -2   8   19.16    0.47
   3   2  -8    0.06    0.03
  -3  -2   8    0.07    0.03
  -3  -2   8    0.02    0.03
  -3  -2   8    0.03    0.03
  -3  -2   8    0.04    0.02
   2   2  -8   74.15    1.89
   2   2  -8   71.88    1.84
  -2  -2   8   73.69    1.67
  -2  -2   8   75.14    1.71
  -2  -2   8   75.37    1.88
  -2  -2   8   72.71    1.81
   1   2  -8    0.82    0.07
   1   2  -8    0.84    0.04
   1   2  -8    0.84    0.06
  -1  -2   8    0.79    0.04
  -1  -2   8    0.93    0.06
  -1  -2   8    0.75    0.06
   0   2  -8    6.29    0.22
   0   2  -8    6.38    0.19
   0   2  -8    6.12    0.19
   0   2  -8    6.27    0.20
   0  -2   8    6.25    0.17
   0  -2   8    6.22    0.18
   0  -2   8    6.35    0.22
  -1   2  -8    0.67    0.03
  -1   2  -8    0.50    0.05
  -1   2  -8    0.83    0.05
  -1   2  -8    0.71    0.05
   1  -2   8    0.62    0.06
   1  -2   8    0.77    0.05
   1  -2   8    0.76    0.04
  -2   2  -8    2.00    0.08
  -2   2  -8    2.04    0.09
  -2   2  -8    2.02    0.09
  -2   2  -8    2.08    0.11
   2  -2   8    2.11    0.09
   2  -2   8    2.15    0.12
  -3   2  -8    3.30    0.13
  -3   2  -8    3.16    0.13
  -3   2  -8    3.23    0.11
  -3   2  -8    3.06    0.15
  -4   2  -8   -0.05    0.04
  -4   2  -8    0.05    0.03
  -4   2  -8   -0.02    0.03
  -4   2  -8    0.00    0.03
  -5   2  -8    4.27    0.21
  -5   2  -8    4.59    0.15
  -6   2  -8   -0.06    0.06
  -6   2  -8   -0.03    0.03
  -8  -1   8    0.54    0.08
  -8  -1   8    0.47    0.06
   7   1  -8    0.05    0.04
  -7  -1   8    0.01    0.04
  -7  -1   8    0.10    0.04
   6   1  -8    0.89    0.09
  -6  -1   8    1.06    0.07
  -6  -1   8    1.03    0.07
  -6  -1   8    1.12    0.09
   5   1  -8   11.70    0.37
  -5  -1   8   12.05    0.36
  -5  -1   8   12.55    0.32
  -5  -1   8   11.86    0.32
   4   1  -8    1.95    0.10
  -4  -1   8    2.02    0.10
  -4  -1   8    1.95    0.09
  -4  -1   8    2.15    0.08
   3   1  -8   32.44    0.85
   3   1  -8   33.45    0.86
  -3  -1   8   33.16    0.86
  -3  -1   8   32.17    0.77
  -3  -1   8   31.73    0.83
  -3  -1   8   33.11    0.77
   2   1  -8   10.38    0.30
   2   1  -8   10.42    0.30
  -2  -1   8   10.01    0.27
  -2  -1   8   10.36    0.26
  -2  -1   8   10.34    0.29
  -2  -1   8   10.03    0.30
   1   1  -8    8.47    0.25
   1   1  -8    9.12    0.27
   1   1  -8    8.72    0.22
   1   1  -8    8.71    0.24
  -1  -1   8    8.45    0.26
  -1  -1   8    8.50    0.23
  -1  -1   8    8.42    0.22
  -1  -1   8    8.35    0.24
   0   1  -8   18.88    0.47
   0   1  -8   19.56    0.49
   0   1  -8   19.33    0.51
   0   1  -8   19.62    0.53
   0  -1   8   18.55    0.53
   0  -1   8   18.97    0.46
   0  -1   8   18.87    0.47
  -1   1  -8   31.11    0.74
  -1   1  -8   30.75    0.80
  -1   1  -8   30.96    0.79
  -1   1  -8   31.37    0.84
   1  -1   8   31.41    0.84
   1  -1   8   31.07    0.73
  -2   1  -8    0.22    0.04
  -2   1  -8    0.23    0.03
  -2   1  -8    0.25    0.05
  -3   1  -8    7.30    0.22
  -3   1  -8    6.82    0.18
  -3   1  -8    7.00    0.25
  -3   1  -8    7.04    0.22
  -3   1  -8    6.64    0.24
  -4   1  -8    1.21    0.06
  -4   1  -8    1.17    0.10
  -4   1  -8    1.16    0.08
  -4   1  -8    1.17    0.10
  -5   1  -8    1.03    0.10
  -5   1  -8    1.09    0.08
  -5   1  -8    0.94    0.06
  -5   1  -8    0.95    0.10
  -6   1  -8    0.04    0.06
  -8   0   8   11.77    0.34
  -8   0   8   11.46    0.39
   7   0  -8    0.92    0.08
  -7   0   8    0.73    0.08
  -7   0   8    0.85    0.07
   6   0  -8    1.78    0.10
  -6   0   8    1.79    0.09
  -6   0   8    1.86    0.12
   5   0  -8    1.71    0.11
  -5   0   8    1.81    0.09
  -5   0   8    1.98    0.11
   4   0  -8    0.23    0.04
   4   0  -8    0.28    0.04
  -4   0   8    0.27    0.04
  -4   0   8    0.33    0.04
   3   0  -8    0.42    0.05
   3   0  -8    0.51    0.04
  -3   0   8    0.43    0.03
  -3   0   8    0.40    0.04
  -3   0   8    0.46    0.05
  -3   0   8    0.40    0.04
   2   0  -8    0.06    0.03
   2   0  -8    0.11    0.02
  -2   0   8    0.07    0.02
  -2   0   8    0.01    0.02
  -2   0   8    0.13    0.03
   1   0  -8   11.04    0.30
   1   0  -8   11.14    0.29
   1   0  -8   11.08    0.31
   1   0  -8   10.87    0.31
  -1   0   8   11.24    0.26
  -1   0   8   10.97    0.29
  -1   0   8   11.28    0.32
  -1   0   8   11.06    0.30
   0   0  -8    0.05    0.02
   0   0  -8    0.03    0.02
   0   0  -8    0.07    0.02
   0   0  -8    0.03    0.02
   0   0   8    0.03    0.02
   0   0   8    0.04    0.01
  -1   0  -8   41.50    1.06
  -1   0  -8   39.77    1.01
  -1   0  -8   40.15    1.01
   1   0   8   40.27    1.07
   1   0   8   40.13    0.94
  -2   0  -8    3.38    0.14
  -2   0  -8    3.61    0.13
  -2   0  -8    3.50    0.12
  -3   0  -8   38.62    1.02
  -3   0  -8   40.35    1.05
  -3   0  -8   39.38    0.94
  -4   0  -8   21.84    0.63
  -4   0  -8   23.03    0.65
  -4   0  -8   22.99    0.58
  -5   0  -8    0.02    0.04
  -5   0  -8    0.04    0.04
  -5   0  -8    0.04    0.05
  -6   0  -8    0.14    0.05
  -6   0  -8    0.18    0.06
  -8   1   8    1.36    0.12
  -8   1   8    1.51    0.09
   7  -1  -8    2.25    0.11
  -7   1   8    2.22    0.13
  -7   1   8    2.19    0.10
   6  -1  -8    8.07    0.25
  -6   1   8    8.30    0.28
  -6   1   8    7.85    0.23
   5  -1  -8   13.70    0.37
   5  -1  -8   13.99    0.38
  -5   1   8   13.47    0.35
  -5   1   8   13.58    0.37
  -5   1   8   13.41    0.40
   4  -1  -8   15.46    0.42
   4  -1  -8   15.97    0.42
   4  -1  -8   18.10    0.46
  -4   1   8   15.58    0.40
  -4   1   8   15.70    0.45
  -4   1   8   16.09    0.42
   3  -1  -8    0.03    0.03
   3  -1  -8   -0.03    0.02
  -3   1   8    0.01    0.02
  -3   1   8    0.00    0.02
  -3   1   8    0.00    0.02
  -3   1   8    0.04    0.02
   2  -1  -8   93.55    2.20
   2  -1  -8   90.69    2.06
   2  -1  -8   91.44    2.25
  -2   1   8   89.10    2.05
  -2   1   8   92.18    2.29
  -2   1   8   90.68    2.22
   1  -1  -8    6.14    0.18
   1  -1  -8    6.43    0.19
   1  -1  -8    6.41    0.20
   1  -1  -8    6.60    0.18
  -1   1   8    6.37    0.19
  -1   1   8    6.52    0.19
  -1   1   8    6.62    0.20
   0  -1  -8    4.94    0.16
   0  -1  -8    4.94    0.16
   0  -1  -8    5.11    0.16
   0  -1  -8    5.00    0.16
   0   1   8    5.16    0.14
   0   1   8    4.97    0.17
  -1  -1  -8    4.66    0.14
  -1  -1  -8    4.59    0.16
  -1  -1  -8    4.41    0.16
   1   1   8    4.54    0.12
  -2  -1  -8    0.92    0.07
  -2  -1  -8    0.82    0.07
  -2  -1  -8    0.80    0.06
  -2  -1  -8    0.85    0.05
  -3  -1  -8   52.21    1.36
  -3  -1  -8   50.63    1.32
  -3  -1  -8   53.21    1.22
  -4  -1  -8   33.27    0.82
  -4  -1  -8   32.65    0.89
  -4  -1  -8   33.58    0.91
  -5  -1  -8    7.51    0.29
  -5  -1  -8    7.91    0.26
  -5  -1  -8    8.04    0.29
  -6  -1  -8    1.30    0.10
  -6  -1  -8    1.31    0.12
  -8   2   8    1.18    0.11
   7  -2  -8    0.02    0.03
  -7   2   8    0.03    0.03
  -7   2   8    0.01    0.05
   6  -2  -8    1.04    0.05
   6  -2  -8    1.06    0.05
  -6   2   8    1.04    0.08
  -6   2   8    1.00    0.09
  -6   2   8    1.09    0.07
  -5   2   8   11.94    0.32
  -5   2   8   12.03    0.35
  -5   2   8   11.99    0.37
  -4   2   8    3.15    0.12
  -4   2   8    2.88    0.13
  -4   2   8    3.01    0.11
   3  -2  -8    0.01    0.02
  -3   2   8    0.04    0.02
  -3   2   8    0.05    0.02
  -3   2   8    0.00    0.03
   2  -2  -8    0.37    0.04
   2  -2  -8    0.30    0.03
  -2   2   8    0.47    0.04
  -2   2   8    0.41    0.04
   1  -2  -8    0.63    0.06
   1  -2  -8    0.62    0.05
   1  -2  -8    0.63    0.05
  -1   2   8    0.69    0.05
  -1   2   8    0.72    0.05
   0  -2  -8    2.05    0.10
   0  -2  -8    2.06    0.08
   0  -2  -8    2.05    0.09
   0   2   8    2.25    0.10
   0   2   8    2.17    0.07
  -1  -2  -8    0.10    0.03
  -1  -2  -8    0.08    0.03
  -1  -2  -8    0.15    0.02
  -2  -2  -8    0.38    0.05
  -2  -2  -8    0.43    0.05
  -2  -2  -8    0.39    0.05
  -3  -2  -8    0.94    0.07
  -3  -2  -8    0.88    0.07
  -3  -2  -8    0.76    0.08
  -4  -2  -8    0.84    0.09
  -4  -2  -8    0.79    0.08
  -4  -2  -8    0.81    0.08
  -5  -2  -8    3.20    0.15
  -5  -2  -8    2.61    0.16
  -8   3   8    6.71    0.28
  -7   3   8    1.98    0.14
  -6   3   8    0.41    0.05
  -6   3   8    0.42    0.06
  -6   3   8    0.46    0.07
  -5   3   8    0.33    0.06
  -5   3   8    0.24    0.05
  -5   3   8    0.23    0.04
  -4   3   8    0.96    0.07
  -4   3   8    1.06    0.08
  -4   3   8    0.92    0.06
   3  -3  -8    0.06    0.03
   3  -3  -8   -0.01    0.03
  -3   3   8    0.06    0.03
  -3   3   8    0.17    0.03
   2  -3  -8   34.29    0.85
   2  -3  -8   33.50    0.80
  -2   3   8   33.43    0.79
  -2   3   8   33.76    0.86
   1  -3  -8    1.48    0.08
   1  -3  -8    1.78    0.08
  -1   3   8    1.54    0.08
   0  -3  -8    7.36    0.22
   0  -3  -8    7.09    0.22
  -1  -3  -8   13.38    0.36
  -1  -3  -8   13.24    0.38
  -1  -3  -8   13.43    0.37
  -2  -3  -8    0.42    0.05
  -2  -3  -8    0.37    0.05
  -2  -3  -8    0.52    0.05
  -3  -3  -8    0.56    0.06
  -3  -3  -8    0.66    0.06
  -3  -3  -8    0.52    0.07
  -4  -3  -8    1.50    0.11
  -4  -3  -8    1.61    0.11
  -4  -3  -8    1.42    0.10
  -5  -3  -8    3.52    0.17
  -5  -3  -8    3.63    0.18
  -8   4   8    0.98    0.11
  -7   4   8    2.28    0.14
  -7   4   8    2.33    0.15
  -6   4   8    0.38    0.07
  -6   4   8    0.52    0.07
  -5   4   8    1.43    0.08
  -5   4   8    1.51    0.11
  -5   4   8    1.12    0.09
   4  -4  -8    0.11    0.04
  -4   4   8    0.10    0.04
  -4   4   8    0.13    0.03
  -4   4   8    0.16    0.05
   3  -4  -8    1.90    0.09
   3  -4  -8    2.03    0.10
  -3   4   8    1.98    0.09
   2  -4  -8    3.32    0.13
   2  -4  -8    3.11    0.13
   1  -4  -8    0.13    0.04
   1  -4  -8    0.07    0.03
   0  -4  -8   -0.03    0.03
   0  -4  -8    0.04    0.03
  -1  -4  -8    0.64    0.07
  -1  -4  -8    0.71    0.07
  -1  -4  -8    0.67    0.05
  -2  -4  -8    7.07    0.22
  -2  -4  -8    6.67    0.24
  -2  -4  -8    6.75    0.23
  -3  -4  -8    0.16    0.05
  -3  -4  -8    0.15    0.04
  -3  -4  -8    0.16    0.05
  -4  -4  -8    6.24    0.23
  -4  -4  -8    6.35    0.25
  -5  -4  -8    0.10    0.06
  -7   5   8    0.06    0.06
  -7   5   8    0.07    0.06
  -6   5   8    1.61    0.13
  -6   5   8    1.74    0.13
  -5   5   8    3.79    0.18
   4  -5  -8    2.07    0.11
  -4   5   8    1.98    0.12
  -4   5   8    2.07    0.09
   3  -5  -8    3.59    0.15
   3  -5  -8    3.56    0.14
  -3   5   8    3.78    0.13
   2  -5  -8    2.63    0.12
   2  -5  -8    2.61    0.12
   1  -5  -8    0.10    0.04
   1  -5  -8    0.09    0.04
   0  -5  -8    0.02    0.04
   0  -5  -8    0.01    0.04
  -1  -5  -8    0.16    0.05
  -1  -5  -8    0.12    0.05
  -1  -5  -8    0.15    0.03
  -2  -5  -8    1.39    0.08
  -2  -5  -8    1.40    0.11
  -2  -5  -8    1.51    0.10
  -3  -5  -8    0.84    0.09
  -3  -5  -8    0.68    0.08
  -4  -5  -8    0.65    0.08
  -4  -5  -8    0.60    0.08
  -6   6   8    0.01    0.05
  -5   6   8    0.08    0.06
   4  -6  -8    0.42    0.06
  -4   6   8    0.30    0.06
   3  -6  -8    0.26    0.05
   2  -6  -8    3.33    0.14
   2  -6  -8    3.18    0.14
   1  -6  -8    0.28    0.05
   1  -6  -8    0.23    0.05
   0  -6  -8    2.33    0.12
   0  -6  -8    2.17    0.11
  -1  -6  -8    0.39    0.07
  -1  -6  -8    0.31    0.03
  -1  -6  -8    0.33    0.06
  -2  -6  -8    0.87    0.09
  -2  -6  -8    1.02    0.09
  -3  -6  -8    0.77    0.09
  -3  -6  -8    0.70    0.08
  -5   7   8    0.39    0.08
   4  -7  -8    0.30    0.06
  -4   7   8    0.31    0.07
   3  -7  -8    0.18    0.05
  -3   7   8    0.15    0.06
   2  -7  -8   -0.03    0.04
   1  -7  -8    0.32    0.06
   1  -7  -8    0.25    0.06
   0  -7  -8    0.20    0.06
   0  -7  -8    0.27    0.06
  -1  -7  -8    6.87    0.25
  -1  -7  -8    6.91    0.26
  -2  -7  -8    0.49    0.08
  -2  -7  -8    0.37    0.07
   3  -8  -8    0.21    0.06
  -3   8   8    0.21    0.07
   2  -8  -8    0.00    0.05
   1  -8  -8   -0.08    0.05
   4   7  -9    2.53    0.15
   4   7  -9    2.63    0.11
  -4  -7   9    2.55    0.13
   3   7  -9    8.06    0.25
   3   7  -9    8.29    0.30
  -3  -7   9    8.24    0.26
  -3  -7   9    8.29    0.24
   2   7  -9    8.25    0.30
   2   7  -9    8.17    0.25
   1   7  -9    2.38    0.14
   1   7  -9    2.53    0.11
   0   7  -9    0.21    0.06
   0   7  -9    0.29    0.05
  -1   7  -9    0.59    0.08
  -1   7  -9    0.70    0.06
  -2   7  -9   -0.05    0.03
   5   6  -9    1.82    0.13
  -5  -6   9    1.80    0.11
  -5  -6   9    1.72    0.09
   4   6  -9    0.64    0.08
   4   6  -9    0.62    0.05
  -4  -6   9    0.67    0.07
  -4  -6   9    0.57    0.06
   3   6  -9    8.62    0.25
   3   6  -9    8.30    0.30
  -3  -6   9    8.66    0.26
  -3  -6   9    8.79    0.25
   2   6  -9    6.98    0.26
   2   6  -9    7.08    0.21
  -2  -6   9    7.15    0.21
  -2  -6   9    7.28    0.22
   1   6  -9    1.30    0.10
   1   6  -9    1.18    0.07
  -1  -6   9    1.33    0.08
   0   6  -9    1.74    0.11
   0   6  -9    1.76    0.09
  -1   6  -9    2.02    0.10
  -1   6  -9    2.17    0.13
  -2   6  -9    7.02    0.27
  -2   6  -9    7.46    0.23
  -2   6  -9    7.80    0.28
  -3   6  -9    0.95    0.09
  -3   6  -9    0.93    0.10
  -3   6  -9    0.87    0.07
  -4   6  -9    3.75    0.20
   6   5  -9    1.96    0.13
  -6  -5   9    1.90    0.13
  -6  -5   9    1.96    0.10
  -6  -5   9    1.92    0.12
   5   5  -9    0.89    0.09
  -5  -5   9    0.87    0.07
  -5  -5   9    0.93    0.08
   4   5  -9    4.04    0.12
   4   5  -9    3.90    0.17
  -4  -5   9    4.00    0.15
  -4  -5   9    3.96    0.14
   3   5  -9    2.46    0.13
   3   5  -9    2.57    0.09
  -3  -5   9    2.42    0.10
  -3  -5   9    2.47    0.11
   2   5  -9    5.64    0.22
   2   5  -9    5.83    0.17
  -2  -5   9    5.81    0.18
  -2  -5   9    5.84    0.19
   1   5  -9    1.94    0.08
   1   5  -9    2.06    0.11
  -1  -5   9    2.23    0.10
  -1  -5   9    2.03    0.09
   0   5  -9    2.92    0.14
   0   5  -9    2.80    0.11
   0  -5   9    3.10    0.11
  -1   5  -9   17.89    0.46
  -1   5  -9   17.57    0.51
  -2   5  -9    4.59    0.16
  -2   5  -9    4.59    0.19
  -2   5  -9    4.73    0.19
  -3   5  -9   -0.01    0.03
  -3   5  -9    0.04    0.05
  -3   5  -9    0.04    0.04
  -4   5  -9    6.90    0.22
  -4   5  -9    7.00    0.28
  -4   5  -9    6.76    0.26
   7   4  -9    0.99    0.10
  -7  -4   9    0.89    0.09
  -7  -4   9    0.80    0.07
  -7  -4   9    0.84    0.08
   6   4  -9   -0.02    0.04
  -6  -4   9    0.05    0.04
  -6  -4   9    0.02    0.04
  -6  -4   9    0.00    0.03
   5   4  -9   15.09    0.44
  -5  -4   9   14.05    0.43
  -5  -4   9   14.01    0.39
  -5  -4   9   14.49    0.39
   4   4  -9   53.84    1.39
  -4  -4   9   53.47    1.26
  -4  -4   9   55.08    1.38
  -4  -4   9   53.72    1.28
   3   4  -9    2.26    0.12
  -3  -4   9    2.62    0.11
  -3  -4   9    2.61    0.10
   2   4  -9    9.15    0.29
   2   4  -9    8.87    0.23
  -2  -4   9    9.25    0.25
  -2  -4   9    8.99    0.25
   1   4  -9    5.42    0.20
   1   4  -9    5.37    0.16
  -1  -4   9    5.41    0.16
  -1  -4   9    5.53    0.17
   0   4  -9   40.90    0.95
   0   4  -9   38.77    1.05
   0  -4   9   41.67    0.94
   0  -4   9   40.19    0.96
  -1   4  -9    3.77    0.16
  -1   4  -9    3.69    0.13
   1  -4   9    3.71    0.13
  -2   4  -9    0.38    0.04
  -2   4  -9    0.46    0.06
  -2   4  -9    0.50    0.06
  -3   4  -9    0.42    0.07
  -3   4  -9    0.42    0.05
  -3   4  -9    0.49    0.06
  -4   4  -9    0.33    0.07
  -4   4  -9    0.33    0.06
  -4   4  -9    0.41    0.05
  -5   4  -9    3.71    0.15
  -5   4  -9    3.60    0.20
  -5   4  -9    3.55    0.17
   7   3  -9    0.95    0.10
  -7  -3   9    0.88    0.09
  -7  -3   9    1.01    0.08
  -7  -3   9    0.90    0.08
   6   3  -9    4.52    0.20
  -6  -3   9    4.66    0.16
  -6  -3   9    4.54    0.17
  -6  -3   9    4.45    0.19
   5   3  -9    1.28    0.10
  -5  -3   9    1.27    0.08
  -5  -3   9    1.06    0.08
  -5  -3   9    1.34    0.10
   4   3  -9   24.90    0.68
  -4  -3   9   24.25    0.67
  -4  -3   9   25.70    0.62
  -4  -3   9   24.79    0.61
   3   3  -9   17.23    0.49
  -3  -3   9   17.10    0.44
  -3  -3   9   17.35    0.48
  -3  -3   9   17.61    0.44
   2   3  -9   24.45    0.66
  -2  -3   9   24.31    0.59
  -2  -3   9   24.67    0.59
   1   3  -9   10.49    0.32
  -1  -3   9   11.04    0.29
  -1  -3   9   10.81    0.28
   0   3  -9   17.59    0.46
   0   3  -9   17.00    0.42
   0   3  -9   17.43    0.48
   0  -3   9   17.42    0.43
   0  -3   9   17.03    0.43
  -1   3  -9    4.61    0.13
  -1   3  -9    4.35    0.17
   1  -3   9    4.65    0.15
  -2   3  -9    1.30    0.08
  -2   3  -9    1.31    0.10
  -2   3  -9    1.26    0.06
  -2   3  -9    1.30    0.08
   2  -3   9    1.25    0.07
  -3   3  -9    5.07    0.21
  -3   3  -9    5.24    0.16
  -3   3  -9    5.09    0.19
  -4   3  -9    1.52    0.10
  -4   3  -9    1.47    0.12
  -4   3  -9    1.50    0.08
  -5   3  -9    0.09    0.04
  -5   3  -9    0.05    0.06
  -8  -2   9    6.10    0.21
  -8  -2   9    5.87    0.25
  -8  -2   9    5.68    0.21
   7   2  -9    0.23    0.06
  -7  -2   9    0.30    0.05
  -7  -2   9    0.31    0.07
  -7  -2   9    0.37    0.05
   6   2  -9    1.52    0.11
  -6  -2   9    1.57    0.11
  -6  -2   9    1.68    0.09
  -6  -2   9    1.64    0.09
   5   2  -9    0.03    0.04
  -5  -2   9    0.03    0.03
  -5  -2   9    0.05    0.04
  -5  -2   9   -0.04    0.03
   4   2  -9    6.05    0.22
  -4  -2   9    5.88    0.21
  -4  -2   9    6.17    0.19
  -4  -2   9    6.25    0.18
   3   2  -9   39.70    1.02
  -3  -2   9   38.56    0.92
  -3  -2   9   39.39    1.00
  -3  -2   9   39.79    0.93
   2   2  -9    4.24    0.16
  -2  -2   9    4.40    0.13
  -2  -2   9    4.38    0.15
  -2  -2   9    4.58    0.16
   1   2  -9   11.87    0.35
  -1  -2   9   11.88    0.31
  -1  -2   9   11.92    0.32
  -1  -2   9   12.45    0.37
   0   2  -9    3.96    0.15
   0   2  -9    3.93    0.14
   0   2  -9    4.19    0.14
   0  -2   9    4.27    0.14
   0  -2   9    4.13    0.13
  -1   2  -9    5.58    0.19
  -1   2  -9    5.50    0.18
   1  -2   9    5.89    0.17
   1  -2   9    5.44    0.16
  -2   2  -9   31.70    0.83
  -2   2  -9   32.32    0.84
  -2   2  -9   31.89    0.77
   2  -2   9   32.36    0.76
  -3   2  -9   20.51    0.56
  -3   2  -9   20.97    0.59
  -3   2  -9   21.07    0.53
  -3   2  -9   20.88    0.51
  -4   2  -9    0.89    0.08
  -4   2  -9    0.91    0.09
  -4   2  -9    0.92    0.06
  -5   2  -9    1.95    0.14
  -5   2  -9    2.15    0.09
  -8  -1   9    0.70    0.09
  -8  -1   9    0.74    0.07
  -7  -1   9    3.43    0.14
  -7  -1   9    3.27    0.16
   6   1  -9    3.65    0.17
  -6  -1   9    3.75    0.17
  -6  -1   9    3.63    0.14
   5   1  -9   13.82    0.41
  -5  -1   9   13.74    0.36
  -5  -1   9   13.10    0.40
   4   1  -9   -0.02    0.03
  -4  -1   9    0.04    0.03
  -4  -1   9    0.00    0.03
   3   1  -9    6.00    0.20
   3   1  -9    5.62    0.20
  -3  -1   9    5.64    0.19
  -3  -1   9    5.43    0.18
  -3  -1   9    5.75    0.16
   2   1  -9    4.47    0.16
   2   1  -9    4.54    0.16
  -2  -1   9    4.28    0.14
  -2  -1   9    4.41    0.12
  -2  -1   9    4.39    0.16
  -2  -1   9    4.22    0.15
   1   1  -9    0.62    0.05
   1   1  -9    0.74    0.06
   1   1  -9    0.63    0.04
   1   1  -9    0.67    0.05
  -1  -1   9    0.66    0.04
  -1  -1   9    0.74    0.05
  -1  -1   9    0.70    0.06
  -1  -1   9    0.67    0.05
   0   1  -9    4.85    0.16
   0   1  -9    5.03    0.15
   0   1  -9    4.65    0.16
   0  -1   9    4.91    0.16
   0  -1   9    4.93    0.14
   0  -1   9    4.74    0.18
  -1   1  -9    3.74    0.14
  -1   1  -9    3.61    0.13
  -1   1  -9    3.86    0.14
   1  -1   9    3.84    0.13
   1  -1   9    3.55    0.11
  -2   1  -9    0.01    0.03
  -2   1  -9    0.03    0.03
  -2   1  -9   -0.04    0.03
  -3   1  -9   12.79    0.40
  -3   1  -9   13.12    0.37
  -3   1  -9   13.66    0.36
  -4   1  -9    9.84    0.29
  -4   1  -9    9.41    0.33
  -4   1  -9    8.80    0.32
  -5   1  -9    7.55    0.25
  -5   1  -9    7.63    0.29
  -5   1  -9    7.02    0.28
  -8   0   9    0.01    0.04
  -8   0   9    0.05    0.06
   7   0  -9    1.92    0.11
  -7   0   9    1.82    0.12
  -7   0   9    2.05    0.10
   6   0  -9    0.53    0.06
  -6   0   9    0.43    0.06
  -6   0   9    0.44    0.05
   5   0  -9   48.57    1.27
  -5   0   9   49.48    1.14
  -5   0   9   49.35    1.26
   4   0  -9    1.40    0.07
   4   0  -9    1.32    0.09
  -4   0   9    1.39    0.09
  -4   0   9    1.44    0.08
   3   0  -9   45.19    1.17
   3   0  -9   47.49    1.18
  -3   0   9   45.47    1.07
  -3   0   9   45.79    1.16
   2   0  -9    2.27    0.07
   2   0  -9    2.06    0.10
   2   0  -9    2.26    0.09
  -2   0   9    2.17    0.09
  -2   0   9    2.03    0.09
  -2   0   9    2.28    0.10
   1   0  -9    9.75    0.28
   1   0  -9   10.11    0.27
   1   0  -9    9.92    0.29
   1   0  -9   10.16    0.29
  -1   0   9   10.35    0.25
  -1   0   9   10.12    0.30
  -1   0   9   10.62    0.28
  -1   0   9    9.65    0.27
   0   0  -9    7.82    0.23
   0   0  -9    8.24    0.23
   0   0  -9    8.30    0.25
   0   0  -9    7.73    0.24
   0   0   9    7.38    0.22
   0   0   9    8.13    0.20
  -1   0  -9    0.03    0.03
  -1   0  -9    0.00    0.03
  -1   0  -9    0.02    0.02
   1   0   9    0.04    0.02
  -2   0  -9   25.16    0.64
  -2   0  -9   24.67    0.62
  -2   0  -9   24.56    0.66
  -3   0  -9    0.27    0.05
  -3   0  -9    0.25    0.06
  -3   0  -9    0.28    0.05
  -4   0  -9    6.11    0.24
  -4   0  -9    6.02    0.24
  -4   0  -9    6.61    0.22
  -5   0  -9    0.43    0.06
  -5   0  -9    0.40    0.07
  -5   0  -9    0.35    0.07
  -8   1   9    4.65    0.17
  -8   1   9    3.87    0.20
   7  -1  -9    0.11    0.04
  -7   1   9    0.07    0.05
  -7   1   9    0.08    0.04
   6  -1  -9    9.27    0.27
  -6   1   9    9.07    0.26
  -6   1   9    9.05    0.31
   5  -1  -9    1.57    0.07
   5  -1  -9    1.61    0.07
  -5   1   9    1.45    0.10
  -5   1   9    1.54    0.08
   4  -1  -9    0.14    0.02
   4  -1  -9    0.04    0.04
  -4   1   9    0.19    0.04
  -4   1   9    0.09    0.03
   3  -1  -9    0.70    0.04
   3  -1  -9    0.69    0.07
  -3   1   9    0.57    0.05
  -3   1   9    0.76    0.05
  -3   1   9    0.68    0.06
   2  -1  -9   21.59    0.53
   2  -1  -9   21.67    0.54
   2  -1  -9   20.29    0.57
  -2   1   9   21.09    0.52
  -2   1   9   21.62    0.57
  -2   1   9   21.68    0.56
   1  -1  -9   17.80    0.47
   1  -1  -9   17.26    0.46
   1  -1  -9   17.73    0.45
   1  -1  -9   16.99    0.45
  -1   1   9   17.68    0.45
  -1   1   9   18.07    0.48
  -1   1   9   17.34    0.44
   0  -1  -9    4.05    0.14
   0  -1  -9    4.11    0.14
   0  -1  -9    3.92    0.14
  -1  -1  -9   35.73    0.91
  -1  -1  -9   34.40    0.86
  -1  -1  -9   37.28    0.90
  -2  -1  -9    2.09    0.11
  -2  -1  -9    2.10    0.11
  -3  -1  -9    3.28    0.15
  -3  -1  -9    3.35    0.15
  -3  -1  -9    3.12    0.15
  -4  -1  -9    6.34    0.25
  -4  -1  -9    6.96    0.26
  -4  -1  -9    6.61    0.23
  -5  -1  -9    3.56    0.18
  -5  -1  -9    3.41    0.16
  -8   2   9    1.01    0.11
   7  -2  -9    3.79    0.13
  -7   2   9    3.85    0.19
  -7   2   9    3.97    0.15
  -6   2   9    0.02    0.03
  -6   2   9   -0.01    0.04
  -5   2   9    0.13    0.04
  -5   2   9    0.09    0.03
  -4   2   9    0.93    0.06
  -4   2   9    0.85    0.07
  -4   2   9    0.88    0.07
   3  -2  -9   -0.04    0.02
   3  -2  -9    0.07    0.03
  -3   2   9    0.02    0.03
  -3   2   9    0.01    0.03
   2  -2  -9    7.38    0.23
   2  -2  -9    7.82    0.22
  -2   2   9    7.31    0.22
  -2   2   9    7.33    0.23
   1  -2  -9    0.02    0.02
   1  -2  -9    0.00    0.03
   1  -2  -9    0.15    0.03
  -1   2   9    0.05    0.02
   0  -2  -9    1.35    0.07
   0  -2  -9    1.29    0.08
   0  -2  -9    1.27    0.08
  -1  -2  -9    3.89    0.15
  -1  -2  -9    3.89    0.15
  -2  -2  -9    6.18    0.22
  -2  -2  -9    6.30    0.21
  -2  -2  -9    6.41    0.21
  -3  -2  -9    2.23    0.12
  -3  -2  -9    2.13    0.13
  -3  -2  -9    2.30    0.12
  -4  -2  -9    8.87    0.29
  -4  -2  -9    8.78    0.31
  -5  -2  -9    0.10    0.06
  -5  -2  -9    0.11    0.06
  -8   3   9   -0.02    0.05
  -7   3   9    0.43    0.08
  -6   3   9    5.99    0.19
  -6   3   9    5.75    0.23
  -5   3   9    1.32    0.09
  -5   3   9    1.28    0.10
  -5   3   9    1.31    0.07
  -4   3   9    0.14    0.03
  -4   3   9    0.16    0.04
  -4   3   9    0.14    0.04
   3  -3  -9    9.94    0.28
   3  -3  -9   10.00    0.28
  -3   3   9    9.97    0.27
  -3   3   9    9.93    0.31
   2  -3  -9    0.39    0.04
   2  -3  -9    0.33    0.05
  -2   3   9    0.37    0.04
  -2   3   9    0.23    0.05
   1  -3  -9    0.56    0.06
   1  -3  -9    0.46    0.05
  -1   3   9    0.58    0.05
   0  -3  -9    1.36    0.08
   0  -3  -9    1.34    0.08
  -1  -3  -9    1.46    0.09
  -1  -3  -9    1.41    0.09
  -2  -3  -9    0.06    0.03
  -2  -3  -9    0.13    0.05
  -2  -3  -9    0.13    0.04
  -3  -3  -9    1.11    0.08
  -3  -3  -9    1.16    0.09
  -3  -3  -9    1.04    0.10
  -4  -3  -9    3.21    0.17
  -4  -3  -9    3.79    0.17
  -5  -3  -9    1.77    0.13
  -7   4   9    0.00    0.05
  -6   4   9    0.41    0.07
  -6   4   9    0.39    0.06
  -5   4   9    0.78    0.06
  -5   4   9    0.74    0.08
  -5   4   9    0.72    0.08
   4  -4  -9   12.20    0.34
  -4   4   9   11.93    0.36
  -4   4   9   11.77    0.32
  -4   4   9   11.34    0.37
   3  -4  -9    0.45    0.05
   3  -4  -9    0.64    0.06
  -3   4   9    0.62    0.06
  -3   4   9    0.51    0.05
   2  -4  -9   20.43    0.53
   2  -4  -9   19.81    0.51
  -2   4   9   19.45    0.50
   1  -4  -9    0.01    0.03
   1  -4  -9   -0.01    0.04
   0  -4  -9   14.47    0.41
   0  -4  -9   15.37    0.43
  -1  -4  -9    5.41    0.20
  -1  -4  -9    5.34    0.20
  -2  -4  -9    0.01    0.04
  -2  -4  -9   -0.02    0.04
  -2  -4  -9    0.02    0.03
  -3  -4  -9    1.10    0.09
  -3  -4  -9    1.21    0.10
  -4  -4  -9    2.75    0.16
  -4  -4  -9    2.69    0.15
  -7   5   9    0.78    0.10
  -6   5   9    0.24    0.06
  -6   5   9    0.26    0.07
  -5   5   9    2.09    0.13
  -5   5   9    2.10    0.14
   4  -5  -9    0.15    0.04
  -4   5   9    0.08    0.05
  -4   5   9    0.07    0.03
   3  -5  -9    0.33    0.05
   3  -5  -9    0.32    0.05
  -3   5   9    0.40    0.05
   2  -5  -9    1.87    0.10
   2  -5  -9    1.88    0.10
   1  -5  -9   -0.03    0.04
   1  -5  -9   -0.01    0.04
   0  -5  -9    1.81    0.11
   0  -5  -9    1.78    0.11
  -1  -5  -9    2.79    0.14
  -1  -5  -9    2.88    0.14
  -2  -5  -9    1.65    0.11
  -2  -5  -9    1.69    0.12
  -3  -5  -9    4.30    0.19
  -3  -5  -9    3.99    0.19
  -6   6   9    0.41    0.08
  -6   6   9    0.52    0.08
  -5   6   9    0.07    0.05
   4  -6  -9    0.04    0.04
  -4   6   9    0.13    0.05
   3  -6  -9    2.27    0.12
   2  -6  -9    0.18    0.05
   2  -6  -9    0.22    0.05
   1  -6  -9    0.29    0.06
   1  -6  -9    0.41    0.06
   0  -6  -9    0.03    0.04
   0  -6  -9    0.07    0.05
  -1  -6  -9    0.32    0.06
  -1  -6  -9    0.37    0.07
  -2  -6  -9    0.96    0.09
  -2  -6  -9    0.90    0.09
  -5   7   9    0.09    0.06
   4  -7  -9    0.17    0.05
  -4   7   9    0.06    0.06
   3  -7  -9    1.40    0.11
  -3   7   9    1.43    0.12
   2  -7  -9    0.12    0.05
   1  -7  -9    0.48    0.07
   1  -7  -9    0.47    0.07
   0  -7  -9    1.68    0.12
   0  -7  -9    1.50    0.11
  -1  -7  -9    0.87    0.09
  -1  -7  -9    0.96    0.09
   3   7 -10    0.05    0.03
  -3  -7  10    0.00    0.03
  -3  -7  10    0.05    0.04
   2   7 -10    0.46    0.07
   2   7 -10    0.53    0.05
   1   7 -10   -0.01    0.03
   1   7 -10    0.00    0.04
   0   7 -10    4.60    0.17
  -1   7 -10    0.33    0.05
   5   6 -10    3.15    0.17
  -5  -6  10    3.26    0.15
   4   6 -10    7.48    0.27
  -4  -6  10    7.02    0.22
  -4  -6  10    7.12    0.24
   3   6 -10    9.24    0.25
   3   6 -10    8.80    0.31
  -3  -6  10    8.90    0.26
  -3  -6  10    8.89    0.27
   2   6 -10    4.89    0.16
   2   6 -10    5.01    0.21
  -2  -6  10    5.04    0.18
  -2  -6  10    5.03    0.16
   1   6 -10    0.81    0.06
   1   6 -10    0.87    0.09
   0   6 -10    0.83    0.09
   0   6 -10    0.94    0.06
  -1   6 -10    0.12    0.05
  -1   6 -10    0.07    0.03
  -2   6 -10    0.71    0.08
  -2   6 -10    0.56    0.06
   6   5 -10    0.03    0.05
  -6  -5  10    0.15    0.05
   5   5 -10    0.03    0.04
  -5  -5  10    0.08    0.03
  -5  -5  10    0.03    0.04
   4   5 -10    4.51    0.20
  -4  -5  10    4.70    0.16
  -4  -5  10    4.68    0.17
   3   5 -10    1.18    0.10
  -3  -5  10    1.34    0.09
  -3  -5  10    1.23    0.07
   2   5 -10    6.73    0.25
   2   5 -10    6.75    0.19
  -2  -5  10    6.65    0.20
  -2  -5  10    6.84    0.21
   1   5 -10    6.41    0.24
   1   5 -10    6.59    0.19
  -1  -5  10    6.56    0.20
  -1  -5  10    6.55    0.20
   0   5 -10   20.69    0.51
   0   5 -10   20.44    0.59
   0  -5  10   20.64    0.51
  -1   5 -10    3.60    0.17
  -1   5 -10    3.83    0.13
  -2   5 -10    1.12    0.07
  -2   5 -10    1.28    0.10
  -3   5 -10    0.23    0.06
  -3   5 -10    0.15    0.06
  -3   5 -10    0.25    0.04
  -4   5 -10    0.10    0.07
  -4   5 -10    0.06    0.04
  -7  -4  10    0.96    0.08
  -7  -4  10    0.87    0.10
   6   4 -10    0.21    0.06
  -6  -4  10    0.11    0.04
  -6  -4  10    0.11    0.05
  -6  -4  10    0.11    0.04
   5   4 -10    1.10    0.10
  -5  -4  10    1.15    0.10
  -5  -4  10    1.13    0.08
  -5  -4  10    1.18    0.07
   4   4 -10    6.48    0.24
  -4  -4  10    6.58    0.20
  -4  -4  10    6.25    0.23
  -4  -4  10    6.44    0.21
   3   4 -10    0.90    0.08
  -3  -4  10    0.91    0.06
  -3  -4  10    0.80    0.07
   2   4 -10    0.40    0.06
  -2  -4  10    0.47    0.04
  -2  -4  10    0.38    0.05
   1   4 -10    1.02    0.05
   1   4 -10    1.00    0.08
  -1  -4  10    0.98    0.06
  -1  -4  10    0.94    0.07
   0   4 -10   14.86    0.45
   0   4 -10   15.29    0.38
   0  -4  10   15.46    0.39
   0  -4  10   14.95    0.39
  -1   4 -10    0.63    0.05
  -1   4 -10    0.51    0.07
   1  -4  10    0.58    0.06
  -2   4 -10    1.72    0.08
  -2   4 -10    1.60    0.10
  -2   4 -10    1.78    0.12
  -3   4 -10    1.06    0.10
  -3   4 -10    0.88    0.06
  -3   4 -10    1.18    0.09
  -4   4 -10    0.57    0.07
  -4   4 -10    0.66    0.06
  -4   4 -10    0.41    0.08
   7   3 -10    4.19    0.20
  -7  -3  10    3.96    0.19
  -7  -3  10    4.22    0.17
  -7  -3  10    4.19    0.16
   6   3 -10   12.54    0.40
  -6  -3  10   11.91    0.35
  -6  -3  10   12.46    0.34
  -6  -3  10   11.62    0.38
   5   3 -10   19.25    0.55
  -5  -3  10   18.57    0.49
  -5  -3  10   18.26    0.53
  -5  -3  10   18.53    0.48
   4   3 -10    6.92    0.25
  -4  -3  10    7.21    0.25
  -4  -3  10    7.49    0.22
  -4  -3  10    7.36    0.23
   3   3 -10   -0.04    0.03
  -3  -3  10   -0.04    0.03
  -3  -3  10   -0.01    0.02
  -3  -3  10    0.03    0.04
   2   3 -10    6.29    0.22
  -2  -3  10    6.25    0.18
  -2  -3  10    6.27    0.20
   1   3 -10    0.02    0.03
  -1  -3  10    0.02    0.02
  -1  -3  10    0.02    0.03
   0   3 -10    0.09    0.04
   0  -3  10    0.09    0.02
   0  -3  10    0.01    0.03
  -1   3 -10    1.53    0.09
  -1   3 -10    1.67    0.09
   1  -3  10    1.67    0.08
  -2   3 -10    1.45    0.06
  -2   3 -10    1.53    0.09
  -2   3 -10    1.64    0.10
  -2   3 -10    1.38    0.08
   2  -3  10    1.40    0.08
  -3   3 -10   29.69    0.70
  -3   3 -10   28.26    0.78
  -3   3 -10   29.14    0.79
  -4   3 -10    1.47    0.12
  -4   3 -10    1.34    0.07
  -4   3 -10    1.36    0.10
  -5   3 -10    8.60    0.33
  -8  -2  10    0.24    0.06
  -8  -2  10    0.19    0.07
   7   2 -10    0.40    0.07
  -7  -2  10    0.38    0.06
  -7  -2  10    0.35    0.07
   6   2 -10    6.81    0.26
  -6  -2  10    6.30    0.24
  -6  -2  10    6.56    0.22
   5   2 -10    1.61    0.11
  -5  -2  10    1.48    0.09
  -5  -2  10    1.45    0.08
  -5  -2  10    1.45    0.10
   4   2 -10   29.69    0.82
  -4  -2  10   31.74    0.74
  -4  -2  10   30.14    0.74
  -4  -2  10   30.03    0.80
   3   2 -10   11.52    0.35
  -3  -2  10   11.76    0.32
  -3  -2  10   11.76    0.30
  -3  -2  10   11.61    0.34
   2   2 -10    1.16    0.08
  -2  -2  10    1.18    0.08
  -2  -2  10    1.39    0.07
  -2  -2  10    1.28    0.06
   1   2 -10    2.98    0.13
  -1  -2  10    3.24    0.11
  -1  -2  10    3.15    0.12
   0   2 -10    2.84    0.12
   0   2 -10    2.79    0.11
   0  -2  10    2.91    0.11
   0  -2  10    3.03    0.10
  -1   2 -10    2.13    0.10
  -1   2 -10    2.01    0.10
  -1   2 -10    1.68    0.09
   1  -2  10    2.06    0.09
  -2   2 -10    0.06    0.04
  -2   2 -10   -0.04    0.04
  -2   2 -10    0.00    0.03
   2  -2  10    0.03    0.03
  -3   2 -10    3.80    0.15
  -3   2 -10    3.95    0.15
  -3   2 -10    3.87    0.17
   3  -2  10    4.01    0.15
  -4   2 -10    0.90    0.09
  -5   2 -10    0.72    0.10
  -8  -1  10    3.23    0.15
  -8  -1  10    2.94    0.17
  -7  -1  10   -0.04    0.03
  -7  -1  10    0.02    0.05
   6   1 -10    0.00    0.04
  -6  -1  10    0.00    0.03
  -6  -1  10    0.01    0.04
   5   1 -10    1.44    0.10
  -5  -1  10    1.42    0.10
  -5  -1  10    1.53    0.09
   4   1 -10    3.20    0.15
  -4  -1  10    3.18    0.13
  -4  -1  10    3.27    0.14
  -3  -1  10   13.89    0.37
  -3  -1  10   14.21    0.40
   2   1 -10   19.77    0.55
  -2  -1  10   20.47    0.49
  -2  -1  10   20.06    0.53
  -2  -1  10   20.14    0.50
   1   1 -10   17.78    0.46
   1   1 -10   17.70    0.48
  -1  -1  10   17.51    0.46
  -1  -1  10   17.62    0.43
  -1  -1  10   17.20    0.44
   0   1 -10    2.03    0.10
   0   1 -10    2.15    0.10
   0   1 -10    2.18    0.09
   0  -1  10    2.03    0.09
   0  -1  10    2.01    0.08
  -1   1 -10    0.23    0.04
  -1   1 -10    0.20    0.04
  -1   1 -10    0.17    0.04
   1  -1  10    0.23    0.03
   1  -1  10    0.22    0.04
  -2   1 -10    0.33    0.05
  -2   1 -10    0.44    0.05
  -2   1 -10    0.35    0.05
  -3   1 -10    1.21    0.09
  -3   1 -10    1.00    0.09
  -4   1 -10    0.06    0.05
  -4   1 -10    0.01    0.04
  -5   1 -10    0.19    0.07
  -8   0  10    0.88    0.10
  -8   0  10    0.94    0.08
  -7   0  10    7.12    0.27
  -7   0  10    7.43    0.23
   6   0 -10    0.69    0.06
  -6   0  10    0.69    0.06
  -6   0  10    0.80    0.08
   5   0 -10    9.85    0.33
  -5   0  10   10.38    0.29
  -5   0  10   10.46    0.33
   4   0 -10    7.64    0.26
  -4   0  10    7.93    0.24
  -4   0  10    8.20    0.26
   3   0 -10    8.16    0.26
   3   0 -10    8.22    0.24
  -3   0  10    7.94    0.24
  -3   0  10    7.95    0.25
   2   0 -10    0.94    0.06
   2   0 -10    0.82    0.07
  -2   0  10    0.83    0.07
  -2   0  10    0.94    0.07
   1   0 -10    0.87    0.06
   1   0 -10    0.85    0.05
   1   0 -10    0.79    0.07
  -1   0  10    0.85    0.05
  -1   0  10    0.71    0.06
   0   0 -10   37.87    0.97
   0   0 -10   39.28    0.96
   0   0 -10   37.47    0.91
   0   0  10   37.62    0.90
  -1   0 -10    2.96    0.13
  -1   0 -10    2.81    0.12
  -1   0 -10    2.92    0.12
   1   0  10    2.94    0.10
  -2   0 -10    8.40    0.26
  -2   0 -10    8.32    0.27
  -3   0 -10    9.74    0.32
  -3   0 -10   10.43    0.31
  -4   0 -10    4.23    0.19
  -4   0 -10    4.52    0.18
  -4   0 -10    4.53    0.20
  -5   0 -10    0.76    0.09
  -5   0 -10    0.65    0.08
  -8   1  10    1.24    0.11
  -8   1  10    1.46    0.09
  -7   1  10    1.99    0.14
  -7   1  10    2.05    0.11
   6  -1 -10    0.88    0.06
  -6   1  10    0.88    0.07
  -6   1  10    0.90    0.09
   5  -1 -10   17.85    0.46
   5  -1 -10   18.24    0.47
  -5   1  10   17.51    0.46
  -5   1  10   17.87    0.51
  -4   1  10    2.57    0.11
  -4   1  10    2.67    0.13
   3  -1 -10    2.59    0.12
  -3   1  10    2.57    0.12
  -3   1  10    2.68    0.11
   2  -1 -10    1.20    0.06
   2  -1 -10    1.30    0.08
   2  -1 -10    1.10    0.08
  -2   1  10    1.14    0.08
  -2   1  10    1.14    0.07
   1  -1 -10    3.09    0.11
   1  -1 -10    3.05    0.10
   1  -1 -10    3.19    0.13
   1  -1 -10    2.89    0.12
  -1   1  10    2.89    0.12
  -1   1  10    3.08    0.11
   0  -1 -10    1.71    0.10
   0  -1 -10    1.74    0.09
   0  -1 -10    1.90    0.09
  -1  -1 -10    2.62    0.12
  -2  -1 -10    3.39    0.15
  -2  -1 -10    3.54    0.15
  -3  -1 -10    0.86    0.08
  -3  -1 -10    0.84    0.08
  -4  -1 -10    0.04    0.05
  -4  -1 -10    0.04    0.05
  -5  -1 -10    0.67    0.08
  -5  -1 -10    0.73    0.09
  -8   2  10    0.83    0.10
  -7   2  10    0.55    0.06
  -7   2  10    0.42    0.07
  -6   2  10    0.17    0.04
  -6   2  10    0.25    0.06
  -5   2  10    0.08    0.03
  -5   2  10    0.03    0.04
  -4   2  10    2.79    0.13
  -4   2  10    2.96    0.12
   3  -2 -10   53.84    1.27
   3  -2 -10   56.27    1.33
  -3   2  10   53.99    1.36
  -3   2  10   53.18    1.26
   2  -2 -10   77.57    1.95
   2  -2 -10   77.64    1.79
   2  -2 -10   79.16    1.91
  -2   2  10   79.12    1.92
  -2   2  10   77.90    1.79
   1  -2 -10    3.19    0.12
   1  -2 -10    3.37    0.13
   1  -2 -10    3.13    0.13
  -1   2  10    3.35    0.13
   0  -2 -10    0.94    0.06
   0  -2 -10    0.98    0.08
   0  -2 -10    0.94    0.07
  -1  -2 -10    9.17    0.28
  -1  -2 -10    9.52    0.29
  -2  -2 -10    9.05    0.29
  -2  -2 -10    9.45    0.30
  -3  -2 -10    6.82    0.25
  -3  -2 -10    7.26    0.25
  -3  -2 -10    7.37    0.25
  -4  -2 -10   -0.04    0.05
  -4  -2 -10    0.01    0.05
  -8   3  10   -0.04    0.06
  -7   3  10    0.05    0.05
  -6   3  10    0.24    0.06
  -6   3  10    0.17    0.04
  -5   3  10    1.12    0.09
  -5   3  10    1.15    0.07
   4  -3 -10    4.20    0.14
  -4   3  10    3.65    0.14
  -4   3  10    4.15    0.16
  -4   3  10    4.07    0.17
   3  -3 -10    2.54    0.12
  -3   3  10    2.46    0.11
  -3   3  10    2.70    0.13
   2  -3 -10    0.11    0.04
   2  -3 -10    0.29    0.04
  -2   3  10    0.23    0.04
  -2   3  10    0.10    0.04
   1  -3 -10    5.18    0.19
   1  -3 -10    5.09    0.17
   0  -3 -10    0.02    0.04
   0  -3 -10   -0.04    0.03
  -1  -3 -10    5.68    0.20
  -1  -3 -10    5.24    0.20
  -2  -3 -10    0.36    0.06
  -2  -3 -10    0.39    0.06
  -3  -3 -10    0.25    0.06
  -3  -3 -10    0.40    0.07
  -4  -3 -10   -0.08    0.04
  -4  -3 -10   -0.02    0.05
  -7   4  10    0.42    0.08
  -6   4  10    4.21    0.20
  -5   4  10    0.08    0.05
  -5   4  10    0.05    0.03
  -5   4  10    0.04    0.04
   4  -4 -10    0.59    0.06
  -4   4  10    0.47    0.05
  -4   4  10    0.43    0.06
  -4   4  10    0.44    0.06
   3  -4 -10    1.07    0.07
   3  -4 -10    0.98    0.08
  -3   4  10    1.13    0.08
  -3   4  10    1.06    0.09
   2  -4 -10    3.15    0.14
   2  -4 -10    2.77    0.12
  -2   4  10    2.98    0.13
  -2   4  10    3.05    0.13
   1  -4 -10    0.09    0.04
   1  -4 -10    0.11    0.04
   0  -4 -10    4.50    0.18
   0  -4 -10    4.23    0.17
  -1  -4 -10    4.20    0.17
  -1  -4 -10    4.52    0.18
  -2  -4 -10    0.07    0.04
  -2  -4 -10    0.04    0.05
  -3  -4 -10    0.21    0.06
  -3  -4 -10    0.30    0.07
  -7   5  10    0.14    0.07
  -6   5  10    0.05    0.05
  -5   5  10    0.29    0.06
  -5   5  10    0.21    0.06
   4  -5 -10    2.96    0.13
  -4   5  10    2.99    0.15
  -4   5  10    3.05    0.13
  -4   5  10    2.98    0.15
   3  -5 -10    0.47    0.06
   3  -5 -10    0.53    0.06
  -3   5  10    0.50    0.06
  -3   5  10    0.52    0.07
   2  -5 -10    1.74    0.11
   2  -5 -10    2.03    0.11
   1  -5 -10    0.27    0.06
   1  -5 -10    0.37    0.06
   0  -5 -10    4.01    0.17
   0  -5 -10    3.99    0.17
  -1  -5 -10    0.96    0.09
  -1  -5 -10    0.91    0.09
  -2  -5 -10    0.06    0.05
  -2  -5 -10    0.04    0.05
  -3  -5 -10    1.81    0.13
  -6   6  10    0.30    0.07
  -6   6  10    0.36    0.08
  -5   6  10    0.22    0.06
  -5   6  10    0.10    0.06
   4  -6 -10    0.07    0.04
  -4   6  10    0.14    0.06
   3  -6 -10    0.21    0.05
   3  -6 -10    0.22    0.06
  -3   6  10    0.19    0.05
   2  -6 -10    0.09    0.05
   2  -6 -10    0.07    0.05
   1  -6 -10    1.59    0.11
   1  -6 -10    1.47    0.10
   0  -6 -10    0.15    0.06
   0  -6 -10    0.15    0.06
  -1  -6 -10    2.25    0.14
  -1  -6 -10    2.23    0.14
   4  -7 -10    0.04    0.05
  -4   7  10    0.15    0.06
   3  -7 -10    0.03    0.05
   2  -7 -10    0.09    0.05
   1  -7 -10    0.08    0.05
   1  -7 -10    0.07    0.05
   0  -7 -10    0.17    0.06
   0  -7 -10    0.16    0.06
   2   7 -11    3.58    0.13
   1   7 -11    0.01    0.03
   0   7 -11    2.71    0.12
  -4  -6  11    0.17    0.05
  -4  -6  11    0.14    0.04
   3   6 -11    5.02    0.22
  -3  -6  11    4.98    0.18
  -3  -6  11    5.07    0.17
   2   6 -11    0.34    0.04
   2   6 -11    0.21    0.06
  -2  -6  11    0.23    0.05
  -2  -6  11    0.22    0.04
   1   6 -11    0.73    0.08
   1   6 -11    0.87    0.06
   0   6 -11    4.96    0.16
   0   6 -11    4.76    0.21
  -1   6 -11    1.55    0.08
  -1   6 -11    1.63    0.12
  -2   6 -11    1.72    0.09
   5   5 -11    0.08    0.05
  -5  -5  11    0.01    0.04
  -5  -5  11    0.04    0.03
   4   5 -11    7.53    0.28
  -4  -5  11    7.91    0.24
  -4  -5  11    8.10    0.25
   3   5 -11    3.63    0.17
  -3  -5  11    3.53    0.13
  -3  -5  11    3.30    0.14
   2   5 -11    0.04    0.04
  -2  -5  11    0.09    0.03
  -2  -5  11    0.03    0.04
   1   5 -11    2.24    0.13
  -1  -5  11    2.27    0.11
  -1  -5  11    2.31    0.10
   0   5 -11    2.95    0.10
   0   5 -11    2.80    0.15
  -1   5 -11    3.76    0.13
  -1   5 -11    3.54    0.17
  -2   5 -11    0.49    0.05
  -2   5 -11    0.44    0.07
  -3   5 -11    4.27    0.15
  -3   5 -11    4.30    0.20
   6   4 -11    0.01    0.05
  -6  -4  11    0.01    0.04
  -6  -4  11   -0.01    0.04
  -6  -4  11    0.01    0.03
   5   4 -11    0.30    0.06
  -5  -4  11    0.32    0.06
  -5  -4  11    0.37    0.05
  -5  -4  11    0.34    0.06
   4   4 -11    8.56    0.30
  -4  -4  11    8.31    0.26
  -4  -4  11    8.18    0.24
   3   4 -11    4.92    0.20
  -3  -4  11    4.83    0.17
  -3  -4  11    4.71    0.16
   2   4 -11    5.20    0.21
  -2  -4  11    5.31    0.17
  -2  -4  11    5.42    0.18
   1   4 -11    0.76    0.08
  -1  -4  11    0.75    0.06
  -1  -4  11    0.74    0.05
   0   4 -11    2.13    0.12
   0  -4  11    2.25    0.10
   0  -4  11    2.36    0.10
  -1   4 -11    1.72    0.11
   1  -4  11    1.97    0.10
  -2   4 -11    0.03    0.04
  -3   4 -11    1.49    0.11
  -3   4 -11    1.68    0.12
  -4   4 -11    1.65    0.12
  -4   4 -11    1.78    0.14
  -7  -3  11    0.00    0.04
  -7  -3  11   -0.02    0.03
  -7  -3  11   -0.01    0.05
   6   3 -11    6.36    0.25
  -6  -3  11    5.97    0.21
  -6  -3  11    5.90    0.24
  -6  -3  11    6.27    0.20
   5   3 -11    4.86    0.21
  -5  -3  11    5.18    0.17
  -5  -3  11    4.74    0.20
  -5  -3  11    4.87    0.18
   4   3 -11    1.28    0.10
  -4  -3  11    1.19    0.09
  -4  -3  11    1.11    0.08
  -4  -3  11    1.29    0.07
   3   3 -11    9.35    0.31
  -3  -3  11    9.81    0.27
  -3  -3  11    9.39    0.30
  -3  -3  11    9.84    0.28
   2   3 -11    0.96    0.08
  -2  -3  11    0.94    0.06
  -2  -3  11    0.93    0.07
   1   3 -11   45.25    1.19
  -1  -3  11   46.00    1.08
  -1  -3  11   46.74    1.09
   0   3 -11    8.13    0.27
   0  -3  11    8.08    0.23
   0  -3  11    8.38    0.24
  -1   3 -11    6.09    0.22
   1  -3  11    6.16    0.19
  -2   3 -11    0.54    0.06
  -2   3 -11    0.58    0.07
  -2   3 -11    0.57    0.06
   2  -3  11    0.49    0.05
  -3   3 -11    4.03    0.17
  -3   3 -11    4.52    0.20
  -4   3 -11    1.07    0.11
   7   2 -11    0.12    0.05
  -7  -2  11    0.08    0.05
  -7  -2  11    0.09    0.05
   6   2 -11   13.31    0.42
  -6  -2  11   13.06    0.37
  -6  -2  11   12.75    0.41
   5   2 -11    5.61    0.22
  -5  -2  11    5.46    0.21
  -5  -2  11    5.55    0.19
   4   2 -11    4.49    0.18
  -4  -2  11    4.36    0.17
  -4  -2  11    3.96    0.15
   3   2 -11    2.28    0.12
  -3  -2  11    2.30    0.11
  -3  -2  11    2.09    0.10
  -3  -2  11    2.14    0.09
   2   2 -11    1.10    0.08
  -2  -2  11    1.08    0.06
  -2  -2  11    0.96    0.07
  -2  -2  11    1.10    0.07
   1   2 -11    0.44    0.06
  -1  -2  11    0.48    0.04
  -1  -2  11    0.50    0.05
   0   2 -11    6.15    0.21
   0   2 -11    6.47    0.22
   0  -2  11    6.41    0.20
   0  -2  11    6.54    0.19
  -1   2 -11    5.70    0.19
  -1   2 -11    5.60    0.19
  -1   2 -11    5.62    0.20
   1  -2  11    5.51    0.18
  -2   2 -11    9.83    0.31
  -2   2 -11   10.41    0.30
  -2   2 -11   10.10    0.32
   2  -2  11   10.13    0.29
  -3   2 -11    1.40    0.11
  -3   2 -11    1.65    0.10
   3  -2  11    1.69    0.10
  -4   2 -11    0.52    0.08
  -8  -1  11    0.28    0.07
  -7  -1  11    1.70    0.12
  -7  -1  11    1.78    0.10
   6   1 -11    0.17    0.05
  -6  -1  11    0.14    0.04
  -6  -1  11    0.17    0.05
   5   1 -11    5.46    0.22
  -5  -1  11    5.39    0.19
  -5  -1  11    5.64    0.21
   4   1 -11   -0.01    0.04
  -4  -1  11    0.01    0.03
  -4  -1  11    0.04    0.03
   3   1 -11   10.27    0.32
  -3  -1  11    9.68    0.28
  -3  -1  11    9.82    0.30
   2   1 -11    0.09    0.04
  -2  -1  11    0.13    0.04
  -2  -1  11    0.24    0.04
   1   1 -11    0.04    0.03
   1   1 -11    0.01    0.04
  -1  -1  11    0.01    0.03
   0   1 -11    0.23    0.04
   0   1 -11    0.22    0.04
   0  -1  11    0.31    0.05
   0  -1  11    0.27    0.03
  -1   1 -11    1.55    0.09
  -1   1 -11    1.45    0.09
   1  -1  11    1.56    0.09
   1  -1  11    1.53    0.07
  -2   1 -11    0.94    0.08
  -2   1 -11    0.98    0.07
  -2   1 -11    0.90    0.08
   2  -1  11    0.97    0.07
  -3   1 -11    0.06    0.04
  -3   1 -11    0.04    0.05
  -4   1 -11    0.74    0.07
  -4   1 -11    0.66    0.08
  -8   0  11    0.00    0.04
  -8   0  11    0.02    0.05
  -7   0  11    0.94    0.08
  -7   0  11    0.88    0.09
   6   0 -11    1.46    0.11
   6   0 -11    1.45    0.08
  -6   0  11    1.53    0.11
  -6   0  11    1.60    0.09
   5   0 -11    1.68    0.11
  -5   0  11    1.65    0.11
  -5   0  11    1.79    0.09
   4   0 -11    0.75    0.07
  -4   0  11    0.77    0.07
  -4   0  11    0.65    0.06
   3   0 -11   31.97    0.84
  -3   0  11   30.94    0.77
  -3   0  11   32.25    0.82
   2   0 -11   23.92    0.66
  -2   0  11   24.56    0.60
  -2   0  11   24.58    0.63
   1   0 -11    9.62    0.28
   1   0 -11    9.61    0.29
  -1   0  11    9.60    0.28
   0   0 -11    9.57    0.29
   0   0 -11    9.50    0.29
   0   0 -11    9.98    0.28
   0   0  11    9.45    0.28
  -1   0 -11    0.87    0.07
  -1   0 -11    0.76    0.07
  -1   0 -11    0.89    0.07
  -2   0 -11   -0.02    0.03
  -2   0 -11    0.06    0.04
  -3   0 -11    1.62    0.11
  -3   0 -11    1.63    0.11
  -4   0 -11    0.07    0.06
  -4   0 -11    0.09    0.05
  -8   1  11    0.10    0.05
  -8   1  11   -0.01    0.06
  -7   1  11    1.09    0.08
  -7   1  11    1.09    0.11
   6  -1 -11    0.92    0.05
  -6   1  11    0.91    0.09
  -6   1  11    0.96    0.07
  -5   1  11    0.42    0.05
  -5   1  11    0.48    0.06
   4  -1 -11    0.28    0.05
  -4   1  11    0.27    0.05
  -4   1  11    0.35    0.05
   3  -1 -11    2.08    0.11
  -3   1  11    2.18    0.11
  -3   1  11    2.31    0.11
   2  -1 -11   12.66    0.38
   2  -1 -11   13.35    0.36
  -2   1  11   12.40    0.35
  -2   1  11   12.94    0.35
   1  -1 -11    3.80    0.13
   1  -1 -11    3.57    0.14
   1  -1 -11    3.56    0.15
  -1   1  11    3.19    0.13
   0  -1 -11   15.08    0.41
   0  -1 -11   14.21    0.40
  -1  -1 -11    5.80    0.20
  -1  -1 -11    6.11    0.21
  -2  -1 -11    7.41    0.25
  -2  -1 -11    7.80    0.26
  -3  -1 -11   13.17    0.42
  -3  -1 -11   14.51    0.41
  -4  -1 -11    0.03    0.05
  -4  -1 -11    0.13    0.05
  -7   2  11    3.80    0.15
  -7   2  11    3.41    0.18
  -6   2  11    4.62    0.20
  -6   2  11    4.62    0.17
  -5   2  11    3.05    0.13
  -5   2  11    3.07    0.15
  -4   2  11    0.78    0.08
  -4   2  11    0.66    0.06
   3  -2 -11    1.42    0.09
  -3   2  11    1.43    0.09
  -3   2  11    1.53    0.09
   2  -2 -11    4.55    0.15
   2  -2 -11    4.43    0.17
   2  -2 -11    4.58    0.17
  -2   2  11    4.38    0.16
  -2   2  11    4.59    0.16
   1  -2 -11    3.62    0.14
   1  -2 -11    3.50    0.15
  -1   2  11    3.59    0.14
   0  -2 -11    4.03    0.15
   0  -2 -11    3.89    0.16
  -1  -2 -11   -0.04    0.03
  -1  -2 -11    0.05    0.04
  -2  -2 -11    7.56    0.26
  -2  -2 -11    7.15    0.25
  -3  -2 -11    0.88    0.09
  -3  -2 -11    0.75    0.08
  -4  -2 -11    6.13    0.25
  -4  -2 -11    6.44    0.24
  -7   3  11    1.35    0.12
  -6   3  11    0.11    0.05
  -6   3  11    0.13    0.04
  -5   3  11    0.39    0.06
  -5   3  11    0.40    0.05
  -4   3  11    1.27    0.08
  -4   3  11    1.18    0.09
   3  -3 -11    1.44    0.10
   3  -3 -11    1.56    0.08
  -3   3  11    1.43    0.09
  -3   3  11    1.47    0.09
   2  -3 -11    1.64    0.09
   2  -3 -11    1.57    0.10
  -2   3  11    1.60    0.09
   1  -3 -11    1.69    0.11
   1  -3 -11    1.74    0.09
   0  -3 -11    0.65    0.06
   0  -3 -11    0.70    0.07
  -1  -3 -11    0.05    0.05
  -1  -3 -11    0.02    0.04
  -2  -3 -11    0.00    0.04
  -2  -3 -11   -0.04    0.04
  -3  -3 -11    0.15    0.06
  -3  -3 -11    0.22    0.06
  -7   4  11    0.06    0.06
  -6   4  11    0.79    0.09
  -5   4  11    0.04    0.04
  -5   4  11    0.02    0.04
  -4   4  11    0.04    0.03
  -4   4  11    0.00    0.04
  -4   4  11    0.01    0.04
   3  -4 -11    0.87    0.07
   3  -4 -11    0.82    0.08
  -3   4  11    0.84    0.08
  -3   4  11    0.81    0.07
   2  -4 -11    2.13    0.11
   2  -4 -11    1.99    0.11
  -2   4  11    2.08    0.11
   1  -4 -11    9.77    0.31
   1  -4 -11    9.83    0.30
   0  -4 -11   -0.02    0.04
   0  -4 -11   -0.04    0.04
  -1  -4 -11    1.00    0.10
  -1  -4 -11    1.03    0.09
  -2  -4 -11    0.10    0.06
  -2  -4 -11    0.20    0.06
  -3  -4 -11    1.31    0.11
  -6   5  11    0.61    0.09
  -5   5  11    0.68    0.08
   4  -5 -11    0.10    0.04
  -4   5  11    0.08    0.04
  -4   5  11    0.17    0.05
  -4   5  11    0.05    0.05
   3  -5 -11    0.34    0.06
   3  -5 -11    0.38    0.06
  -3   5  11    0.31    0.05
   2  -5 -11   -0.04    0.04
   2  -5 -11    0.01    0.04
  -2   5  11   -0.04    0.04
   1  -5 -11    3.46    0.16
   1  -5 -11    3.38    0.15
   0  -5 -11    0.25    0.06
   0  -5 -11    0.27    0.06
  -1  -5 -11    1.31    0.11
  -1  -5 -11    1.29    0.11
  -2  -5 -11    0.14    0.06
  -2  -5 -11    0.21    0.06
  -5   6  11    1.45    0.12
  -5   6  11    1.53    0.12
   4  -6 -11    0.26    0.06
  -4   6  11    0.18    0.06
  -4   6  11    0.22    0.06
   3  -6 -11    1.36    0.10
   3  -6 -11    1.10    0.09
  -3   6  11    1.22    0.09
   2  -6 -11    0.14    0.05
   2  -6 -11    0.14    0.05
  -2   6  11    0.10    0.05
   1  -6 -11    1.25    0.11
   1  -6 -11    0.96    0.09
   0  -6 -11    2.10    0.13
   0  -6 -11    1.82    0.12
  -3  -6  12    2.11    0.12
  -2  -6  12    1.72    0.10
  -2  -6  12    1.61    0.09
  -5  -5  12    0.93    0.07
  -5  -5  12    1.02    0.08
   4   5 -12    1.17    0.10
  -4  -5  12    1.07    0.07
  -4  -5  12    1.02    0.09
   3   5 -12   12.75    0.41
  -3  -5  12   12.77    0.36
  -3  -5  12   12.27    0.34
   2   5 -12    1.08    0.10
  -2  -5  12    1.09    0.07
  -2  -5  12    1.17    0.09
   1   5 -12    3.77    0.18
  -1  -5  12    3.80    0.15
  -1  -5  12    3.68    0.14
   0   5 -12    0.07    0.05
  -1   5 -12    1.58    0.12
  -6  -4  12    3.06    0.15
  -6  -4  12    2.81    0.16
  -6  -4  12    3.13    0.13
   5   4 -12    1.08    0.11
  -5  -4  12    1.04    0.08
  -5  -4  12    1.11    0.08
  -5  -4  12    1.04    0.09
   4   4 -12    0.88    0.09
  -4  -4  12    0.92    0.07
  -4  -4  12    0.85    0.08
   3   4 -12    0.10    0.05
  -3  -4  12    0.11    0.03
  -3  -4  12    0.12    0.04
   2   4 -12    5.62    0.22
  -2  -4  12    5.57    0.19
  -2  -4  12    5.56    0.18
   1   4 -12    0.41    0.06
  -1  -4  12    0.38    0.05
  -1  -4  12    0.44    0.05
   0   4 -12   24.71    0.69
   0  -4  12   24.09    0.61
   0  -4  12   24.60    0.61
  -1   4 -12    2.90    0.15
  -2   4 -12    1.68    0.12
  -3   4 -12    5.72    0.23
   6   3 -12    3.51    0.18
  -6  -3  12    3.15    0.17
  -6  -3  12    3.39    0.15
   5   3 -12    3.82    0.19
  -5  -3  12    3.88    0.18
  -5  -3  12    4.25    0.15
  -5  -3  12    4.68    0.17
   4   3 -12    0.04    0.04
  -4  -3  12   -0.01    0.03
  -4  -3  12   -0.07    0.03
  -4  -3  12    0.00    0.02
   3   3 -12    1.58    0.11
  -3  -3  12    1.49    0.09
  -3  -3  12    1.47    0.08
   2   3 -12    0.27    0.06
  -2  -3  12    0.29    0.04
  -2  -3  12    0.23    0.04
   1   3 -12    7.27    0.26
  -1  -3  12    7.78    0.22
  -1  -3  12    7.79    0.24
   0   3 -12    0.93    0.08
   0  -3  12    0.77    0.06
   0  -3  12    0.93    0.07
  -1   3 -12    1.07    0.09
   1  -3  12    0.98    0.08
  -2   3 -12    0.22    0.05
  -2   3 -12    0.27    0.05
   2  -3  12    0.20    0.04
  -7  -2  12    2.64    0.13
  -7  -2  12    2.64    0.16
   6   2 -12    3.33    0.17
  -6  -2  12    3.21    0.14
  -6  -2  12    3.13    0.16
   5   2 -12    0.33    0.06
  -5  -2  12    0.23    0.05
  -5  -2  12    0.22    0.05
   4   2 -12    4.55    0.19
  -4  -2  12    4.45    0.17
  -4  -2  12    4.41    0.18
   3   2 -12   16.79    0.49
  -3  -2  12   16.81    0.44
  -3  -2  12   16.49    0.47
   2   2 -12    1.85    0.11
  -2  -2  12    1.94    0.10
   1   2 -12   15.03    0.44
  -1  -2  12   15.21    0.39
  -1  -2  12   15.20    0.40
   0   2 -12    4.13    0.17
   0  -2  12    4.08    0.14
   0  -2  12    4.18    0.16
  -1   2 -12    0.17    0.05
  -1   2 -12    0.15    0.04
   1  -2  12    0.18    0.04
  -2   2 -12    2.74    0.13
  -2   2 -12    2.74    0.13
   2  -2  12    2.70    0.12
  -3   2 -12    2.06    0.12
  -3   2 -12    1.85    0.13
   3  -2  12    2.03    0.11
  -4   2 -12    1.38    0.12
  -7  -1  12    0.09    0.06
  -7  -1  12    0.23    0.05
   6   1 -12   -0.01    0.04
  -6  -1  12   -0.02    0.04
  -6  -1  12   -0.02    0.04
   5   1 -12    0.23    0.06
  -5  -1  12    0.22    0.05
  -5  -1  12    0.24    0.05
   4   1 -12    1.18    0.09
  -4  -1  12    1.22    0.09
  -4  -1  12    1.19    0.08
   3   1 -12    0.66    0.07
  -3  -1  12    0.60    0.06
  -3  -1  12    0.66    0.06
   2   1 -12    2.77    0.13
  -2  -1  12    2.97    0.12
  -2  -1  12    2.99    0.13
   1   1 -12    0.76    0.07
  -1  -1  12    0.67    0.06
   0   1 -12   20.44    0.57
   0   1 -12   20.96    0.54
   0  -1  12   20.76    0.53
  -1   1 -12    0.71    0.07
  -1   1 -12    0.57    0.07
   1  -1  12    0.73    0.07
   1  -1  12    0.65    0.05
  -2   1 -12    6.94    0.24
  -2   1 -12    6.81    0.23
   2  -1  12    6.69    0.22
  -3   1 -12    0.00    0.04
  -3   1 -12    0.04    0.05
  -4   1 -12    1.36    0.11
  -4   1 -12    1.23    0.11
  -7   0  12    0.94    0.08
  -7   0  12    0.78    0.09
   6   0 -12    1.58    0.12
  -6   0  12    1.44    0.11
  -6   0  12    1.78    0.10
   5   0 -12    0.59    0.08
  -5   0  12    0.68    0.07
  -5   0  12    0.52    0.07
   4   0 -12    1.63    0.11
  -4   0  12    1.56    0.09
  -4   0  12    1.73    0.10
   3   0 -12    2.63    0.13
  -3   0  12    2.78    0.12
  -3   0  12    2.52    0.12
   2   0 -12    0.04    0.03
  -2   0  12    0.00    0.03
  -2   0  12    0.05    0.03
   1   0 -12    0.31    0.05
   1   0 -12    0.20    0.05
  -1   0  12    0.23    0.04
   0   0 -12    1.50    0.09
   0   0 -12    1.43    0.10
   0   0  12    1.51    0.09
  -1   0 -12    0.87    0.07
  -1   0 -12    0.68    0.07
   1   0  12    0.64    0.06
  -2   0 -12    1.60    0.11
  -2   0 -12    1.57    0.11
  -3   0 -12    6.22    0.24
  -3   0 -12    5.88    0.22
  -4   0 -12   -0.02    0.04
  -4   0 -12    0.11    0.06
  -7   1  12    0.16    0.06
  -7   1  12    0.34    0.06
  -6   1  12   13.67    0.42
  -6   1  12   13.08    0.37
  -5   1  12    1.07    0.08
  -5   1  12    1.31    0.10
   4  -1 -12    7.19    0.26
  -4   1  12    7.25    0.25
  -4   1  12    7.12    0.23
   3  -1 -12    0.67    0.07
  -3   1  12    0.64    0.06
  -3   1  12    0.74    0.07
   2  -1 -12    3.88    0.16
   2  -1 -12    4.06    0.16
  -2   1  12    3.99    0.15
   1  -1 -12    2.30    0.11
   1  -1 -12    2.28    0.12
  -1   1  12    2.24    0.11
   0  -1 -12    2.50    0.13
   0   1  12    2.28    0.11
  -1  -1 -12    1.28    0.09
  -1  -1 -12    1.15    0.09
  -2  -1 -12    2.98    0.15
  -2  -1 -12    3.08    0.15
  -3  -1 -12   11.46    0.37
  -3  -1 -12   11.85    0.36
  -7   2  12    1.46    0.10
  -7   2  12    1.58    0.13
  -6   2  12    0.76    0.07
  -6   2  12    0.81    0.09
  -5   2  12    0.05    0.04
  -5   2  12    0.01    0.04
  -4   2  12    3.07    0.14
  -4   2  12    2.85    0.13
   3  -2 -12    0.91    0.08
  -3   2  12    0.93    0.07
  -3   2  12    0.81    0.07
   2  -2 -12    6.07    0.21
   2  -2 -12    6.09    0.21
  -2   2  12    5.76    0.20
   1  -2 -12    4.75    0.19
  -1   2  12    4.76    0.17
   0  -2 -12   10.63    0.33
   0  -2 -12   10.86    0.32
  -1  -2 -12    4.06    0.17
  -1  -2 -12    4.08    0.17
  -2  -2 -12    2.23    0.13
  -2  -2 -12    2.16    0.13
  -3  -2 -12    0.49    0.08
  -3  -2 -12    0.40    0.07
  -7   3  12    0.32    0.07
  -6   3  12    0.02    0.04
  -6   3  12   -0.02    0.04
  -5   3  12    0.09    0.05
  -5   3  12    0.00    0.04
  -4   3  12    0.02    0.03
  -4   3  12    0.00    0.04
   3  -3 -12    5.17    0.19
  -3   3  12    5.00    0.18
   2  -3 -12    0.04    0.05
  -2   3  12    0.04    0.04
   1  -3 -12   -0.05    0.03
   1  -3 -12    0.10    0.05
  -1   3  12    0.08    0.04
   0  -3 -12    4.30    0.17
   0  -3 -12    4.33    0.18
  -1  -3 -12    4.24    0.19
  -1  -3 -12    4.21    0.18
  -2  -3 -12    0.62    0.08
  -2  -3 -12    0.51    0.07
  -3  -3 -12    0.13    0.05
  -6   4  12    0.02    0.04
  -5   4  12    0.83    0.07
  -5   4  12    0.87    0.09
  -4   4  12    2.05    0.11
  -4   4  12    1.99    0.12
   3  -4 -12    4.39    0.18
  -3   4  12    4.09    0.16
   2  -4 -12    4.99    0.18
   2  -4 -12    4.82    0.19
  -2   4  12    4.95    0.19
   1  -4 -12    6.60    0.23
   1  -4 -12    6.54    0.24
   0  -4 -12    0.40    0.07
   0  -4 -12    0.50    0.07
  -1  -4 -12    1.04    0.10
  -1  -4 -12    0.75    0.08
  -2  -4 -12    0.00    0.05
  -2  -4 -12    0.06    0.05
  -5   5  12    1.16    0.11
  -4   5  12   -0.03    0.04
  -4   5  12    0.04    0.04
   3  -5 -12    3.67    0.16
   3  -5 -12    4.07    0.17
  -3   5  12    3.52    0.15
   2  -5 -12    0.96    0.09
   2  -5 -12    0.97    0.09
  -2   5  12    0.90    0.08
   1  -5 -12    2.09    0.13
   1  -5 -12    2.09    0.12
   0  -5 -12    1.27    0.11
   0  -5 -12    1.42    0.12
  -1  -5 -12   -0.09    0.05
  -1  -5 -12   -0.03    0.05
   3  -6 -12    0.34    0.07
   3  -6 -12    0.25    0.06
  -3   6  12    0.29    0.06
   2  -6 -12    1.76    0.12
   2  -6 -12    1.61    0.11
  -2   6  12    1.72    0.11
   1  -6 -12    5.89    0.24
   1  -6 -12    5.86    0.23
  -4  -5  13    1.01    0.07
  -4  -5  13    1.00    0.09
  -3  -5  13    1.07    0.09
  -3  -5  13    1.11    0.07
  -2  -5  13    0.12    0.05
  -2  -5  13    0.11    0.04
   1   5 -13    0.22    0.06
  -1  -5  13    0.15    0.04
  -1  -5  13    0.15    0.05
  -5  -4  13    6.06    0.22
  -5  -4  13    5.64    0.23
  -5  -4  13    5.81    0.20
   4   4 -13    3.59    0.18
  -4  -4  13    3.55    0.14
  -4  -4  13    3.50    0.15
   3   4 -13    2.97    0.16
  -3  -4  13    2.94    0.14
  -3  -4  13    2.86    0.12
   2   4 -13    0.71    0.08
  -2  -4  13    0.64    0.07
  -2  -4  13    0.48    0.05
   1   4 -13   19.40    0.57
  -1  -4  13   19.77    0.50
  -1  -4  13   18.84    0.50
   0   4 -13    5.40    0.23
   0  -4  13    6.07    0.20
  -1   4 -13    0.76    0.08
  -2   4 -13    1.44    0.11
  -6  -3  13    0.74    0.09
  -6  -3  13    0.79    0.08
   5   3 -13    0.03    0.05
  -5  -3  13    0.02    0.05
  -5  -3  13    0.07    0.05
   4   3 -13    0.24    0.06
  -4  -3  13    0.25    0.05
  -4  -3  13    0.23    0.05
   3   3 -13    0.14    0.05
  -3  -3  13    0.15    0.03
  -3  -3  13    0.12    0.04
   2   3 -13    0.89    0.08
  -2  -3  13    1.06    0.08
  -2  -3  13    1.01    0.07
   1   3 -13    5.29    0.21
  -1  -3  13    5.34    0.19
  -1  -3  13    5.53    0.17
   0   3 -13    2.82    0.14
   0  -3  13    2.69    0.13
   0  -3  13    2.63    0.11
  -1   3 -13    0.76    0.08
   1  -3  13    0.73    0.07
  -2   3 -13    0.75    0.08
  -6  -2  13    7.59    0.25
  -6  -2  13    7.26    0.28
   5   2 -13    0.56    0.08
  -5  -2  13    0.45    0.07
  -5  -2  13    0.43    0.06
   4   2 -13    0.00    0.04
  -4  -2  13    0.03    0.04
  -4  -2  13    0.06    0.04
   3   2 -13    2.39    0.14
  -3  -2  13    2.44    0.12
  -3  -2  13    2.46    0.12
   2   2 -13    3.74    0.17
  -2  -2  13    3.89    0.15
   1   2 -13    1.56    0.10
  -1  -2  13    1.50    0.09
   0   2 -13    0.05    0.04
   0  -2  13    0.06    0.03
   0  -2  13   -0.01    0.04
  -1   2 -13    0.24    0.05
  -1   2 -13    0.25    0.05
   1  -2  13    0.21    0.05
  -2   2 -13    7.65    0.26
   2  -2  13    7.76    0.25
  -7  -1  13    1.00    0.09
  -7  -1  13    0.94    0.10
   6   1 -13    9.98    0.35
  -6  -1  13    9.37    0.33
  -6  -1  13    9.99    0.30
   5   1 -13    0.16    0.06
  -5  -1  13    0.20    0.05
  -5  -1  13    0.15    0.05
   4   1 -13    1.43    0.11
  -4  -1  13    1.45    0.10
  -4  -1  13    1.65    0.10
   3   1 -13    0.37    0.06
  -3  -1  13    0.40    0.05
  -3  -1  13    0.39    0.05
   2   1 -13    0.50    0.06
  -2  -1  13    0.47    0.06
   1   1 -13    0.02    0.03
  -1  -1  13   -0.01    0.04
   0   1 -13    0.17    0.05
   0   1 -13    0.14    0.04
   0  -1  13    0.14    0.04
  -1   1 -13    0.14    0.05
   1  -1  13    0.15    0.04
  -2   1 -13    1.74    0.11
   2  -1  13    1.68    0.10
  -3   1 -13    2.80    0.15
   3  -1  13    3.05    0.14
  -7   0  13   -0.01    0.05
  -7   0  13    0.01    0.04
   6   0 -13    0.04    0.05
  -6   0  13    0.03    0.04
  -6   0  13   -0.04    0.04
   5   0 -13    0.54    0.08
  -5   0  13    0.67    0.07
  -5   0  13    0.62    0.07
   4   0 -13    0.29    0.06
  -4   0  13    0.30    0.05
  -4   0  13    0.35    0.05
   3   0 -13    4.28    0.18
  -3   0  13    4.07    0.16
  -3   0  13    4.26    0.16
   2   0 -13    1.39    0.10
  -2   0  13    1.31    0.09
   1   0 -13    0.22    0.05
   1   0 -13    0.22    0.05
  -1   0  13    0.18    0.05
   0   0 -13    2.38    0.13
   0   0  13    2.34    0.12
  -1   0 -13    0.76    0.08
   1   0  13    0.77    0.07
  -2   0 -13    0.95    0.09
  -3   0 -13    0.22    0.06
  -3   0 -13    0.24    0.06
  -7   1  13    0.27    0.05
  -7   1  13    0.23    0.07
  -6   1  13    0.64    0.07
  -6   1  13    0.56    0.08
   5  -1 -13    0.00    0.04
  -5   1  13   -0.01    0.04
  -5   1  13    0.01    0.04
   4  -1 -13   -0.01    0.04
  -4   1  13   -0.01    0.03
  -4   1  13   -0.04    0.03
   3  -1 -13    0.90    0.09
  -3   1  13    0.93    0.07
   2  -1 -13    0.49    0.07
   2  -1 -13    0.50    0.06
  -2   1  13    0.51    0.06
   1  -1 -13    5.60    0.21
   1  -1 -13    5.75    0.21
  -1   1  13    5.53    0.20
   0  -1 -13    0.05    0.05
   0   1  13    0.04    0.04
  -1  -1 -13    4.79    0.20
  -2  -1 -13    0.87    0.09
  -2  -1 -13    1.01    0.10
  -3  -1 -13    0.94    0.10
  -3  -1 -13    1.06    0.10
  -7   2  13    0.28    0.07
  -7   2  13    0.29    0.06
  -6   2  13    2.85    0.14
  -6   2  13    2.99    0.16
  -5   2  13    0.97    0.08
  -5   2  13    1.20    0.10
  -4   2  13    1.80    0.11
  -4   2  13    1.80    0.11
  -3   2  13    5.65    0.20
   2  -2 -13    0.73    0.08
   2  -2 -13    0.68    0.07
  -2   2  13    0.72    0.07
   1  -2 -13    0.72    0.08
  -1   2  13    0.83    0.08
   0  -2 -13    1.39    0.10
   0   2  13    1.46    0.10
  -1  -2 -13    0.14    0.06
  -1  -2 -13    0.22    0.05
  -2  -2 -13    0.75    0.09
  -2  -2 -13    0.82    0.08
  -6   3  13    0.02    0.05
  -6   3  13    0.04    0.04
  -5   3  13    0.70    0.08
  -5   3  13    0.61    0.07
  -4   3  13    2.62    0.14
  -4   3  13    2.35    0.12
   3  -3 -13    8.61    0.29
  -3   3  13    8.77    0.27
   2  -3 -13    0.63    0.08
  -2   3  13    0.68    0.07
   1  -3 -13    0.77    0.08
  -1   3  13    0.81    0.08
   0  -3 -13    0.76    0.09
   0  -3 -13    0.95    0.08
  -1  -3 -13    0.30    0.06
  -1  -3 -13    0.22    0.06
  -2  -3 -13    0.08    0.05
  -5   4  13    0.33    0.07
  -5   4  13    0.38    0.06
  -4   4  13    0.02    0.04
   3  -4 -13    0.86    0.09
  -3   4  13    0.85    0.08
   2  -4 -13    0.53    0.08
  -2   4  13    0.52    0.06
   1  -4 -13    0.27    0.06
   1  -4 -13    0.32    0.07
  -1   4  13    0.25    0.05
   0  -4 -13    0.70    0.08
   0  -4 -13    0.83    0.09
  -1  -4 -13    0.10    0.05
  -4   5  13    0.01    0.04
   3  -5 -13    0.01    0.05
  -3   5  13    0.02    0.05
   2  -5 -13    0.16    0.06
  -2   5  13    0.25    0.06
   1  -5 -13    0.08    0.05
   1  -5 -13    0.08    0.06
  -2  -5  14    2.72    0.13
  -4  -4  14    4.06    0.16
  -4  -4  14    4.11    0.18
  -3  -4  14    0.28    0.06
  -3  -4  14    0.31    0.05
   2   4 -14    0.20    0.06
  -2  -4  14    0.09    0.05
  -2  -4  14    0.05    0.03
   1   4 -14    3.15    0.17
  -1  -4  14    3.45    0.13
  -1  -4  14    3.42    0.15
   0   4 -14    2.38    0.14
   0  -4  14    2.43    0.12
  -5  -3  14    2.61    0.15
  -5  -3  14    2.40    0.13
   4   3 -14    2.14    0.14
  -4  -3  14    2.15    0.12
  -4  -3  14    2.13    0.12
   3   3 -14    2.75    0.15
  -3  -3  14    2.38    0.12
   2   3 -14    0.27    0.06
  -2  -3  14    0.29    0.04
  -2  -3  14    0.21    0.05
   1   3 -14    1.16    0.10
  -1  -3  14    1.31    0.08
  -1  -3  14    1.13    0.09
   0   3 -14    0.75    0.08
   0  -3  14    0.74    0.06
   0  -3  14    0.84    0.08
  -1   3 -14    0.08    0.05
   1  -3  14    0.02    0.04
  -6  -2  14    0.17    0.06
  -5  -2  14    0.29    0.06
  -5  -2  14    0.18    0.06
   4   2 -14    0.45    0.07
  -4  -2  14    0.46    0.06
  -4  -2  14    0.42    0.06
   3   2 -14    0.22    0.06
  -3  -2  14    0.26    0.05
  -3  -2  14    0.16    0.04
   2   2 -14    7.05    0.26
  -2  -2  14    7.02    0.23
   1   2 -14    1.40    0.10
  -1  -2  14    1.41    0.10
   0   2 -14    1.40    0.10
   0  -2  14    1.39    0.10
  -1   2 -14    1.23    0.09
   1  -2  14    1.17    0.09
  -2   2 -14    2.40    0.13
   2  -2  14    2.32    0.13
  -6  -1  14    0.25    0.07
  -6  -1  14    0.15    0.06
   5   1 -14    1.15    0.11
  -5  -1  14    1.25    0.10
  -5  -1  14    1.21    0.09
   4   1 -14    0.05    0.05
  -4  -1  14    0.02    0.04
  -4  -1  14   -0.04    0.03
   3   1 -14    2.36    0.14
  -3  -1  14    2.60    0.13
   2   1 -14    0.00    0.04
  -2  -1  14    0.02    0.04
   1   1 -14    2.10    0.12
  -1  -1  14    2.06    0.11
   0   1 -14   -0.02    0.04
   0   1 -14   -0.02    0.04
   0  -1  14    0.05    0.04
  -1   1 -14    4.20    0.18
   1  -1  14    4.28    0.17
  -2   1 -14    0.23    0.06
   2  -1  14    0.29    0.06
  -6   0  14    6.95    0.24
  -6   0  14    7.35    0.27
   5   0 -14    0.55    0.08
  -5   0  14    0.50    0.07
  -5   0  14    0.49    0.07
   4   0 -14    2.81    0.15
  -4   0  14    2.59    0.13
  -4   0  14    2.56    0.13
   3   0 -14    0.30    0.06
  -3   0  14    0.23    0.05
   2   0 -14    0.11    0.05
  -2   0  14    0.08    0.04
   1   0 -14    5.64    0.21
   1   0 -14    5.78    0.22
  -1   0  14    5.67    0.21
   0   0 -14    0.76    0.08
   0   0  14    0.88    0.08
  -1   0 -14    3.28    0.16
   1   0  14    2.93    0.14
  -2   0 -14    0.01    0.05
   2   0  14    0.06    0.04
  -6   1  14    0.02    0.05
  -6   1  14   -0.03    0.04
  -5   1  14    1.23    0.10
  -5   1  14    1.20    0.09
   4  -1 -14    0.77    0.09
  -4   1  14    0.75    0.07
  -4   1  14    0.77    0.08
   3  -1 -14    5.19    0.21
  -3   1  14    5.00    0.19
   2  -1 -14    1.35    0.10
   2  -1 -14    1.38    0.11
  -2   1  14    1.54    0.10
   1  -1 -14    3.01    0.15
  -1   1  14    2.96    0.14
   0  -1 -14    0.93    0.09
   0   1  14    0.80    0.08
  -1  -1 -14    0.06    0.05
   1   1  14    0.00    0.04
  -2  -1 -14   -0.02    0.05
  -6   2  14    2.08    0.12
  -6   2  14    2.11    0.14
  -5   2  14   -0.04    0.04
  -5   2  14    0.04    0.04
  -4   2  14    0.82    0.08
  -3   2  14    4.06    0.17
   2  -2 -14    0.74    0.08
  -2   2  14    0.74    0.08
   1  -2 -14    0.07    0.05
  -1   2  14    0.09    0.04
   0  -2 -14   -0.05    0.04
   0   2  14    0.00    0.04
  -1  -2 -14    3.07    0.16
  -5   3  14    0.18    0.05
  -5   3  14    0.20    0.05
  -4   3  14    2.99    0.14
   3  -3 -14    0.05    0.05
  -3   3  14    0.08    0.05
   2  -3 -14   -0.05    0.05
  -2   3  14    0.09    0.04
   1  -3 -14    0.16    0.06
  -1   3  14    0.17    0.05
   0  -3 -14    0.35    0.07
   0   3  14    0.34    0.06
  -4   4  14    1.01    0.09
   3  -4 -14    0.03    0.05
  -3   4  14   -0.04    0.04
   2  -4 -14   -0.03    0.05
  -2   4  14    0.01    0.04
   1  -4 -14    0.63    0.08
  -1   4  14    0.71    0.08
  -2  -4  15    1.64    0.09
  -4  -3  15    1.88    0.12
  -3  -3  15    1.53    0.10
   2   3 -15    1.33    0.11
  -2  -3  15    1.34    0.10
   1   3 -15   12.70    0.42
  -1  -3  15   13.44    0.39
  -1  -3  15   13.92    0.37
   0   3 -15    0.61    0.08
   0  -3  15    0.51    0.06
   0  -3  15    0.53    0.07
  -5  -2  15    0.13    0.05
  -4  -2  15    0.01    0.04
  -4  -2  15    0.01    0.04
   3   2 -15    0.69    0.08
  -3  -2  15    0.66    0.07
   2   2 -15    1.28    0.10
  -2  -2  15    1.39    0.10
   1   2 -15    0.81    0.09
  -1  -2  15    0.86    0.08
   0   2 -15    0.55    0.07
   0  -2  15    0.54    0.07
  -5  -1  15    3.63    0.17
  -5  -1  15    3.71    0.17
   4   1 -15    1.10    0.10
  -4  -1  15    1.03    0.09
  -4  -1  15    0.99    0.09
   3   1 -15    1.93    0.13
  -3  -1  15    1.72    0.11
   2   1 -15    1.84    0.12
  -2  -1  15    2.00    0.12
   1   1 -15    1.06    0.10
  -1  -1  15    1.22    0.10
   0   1 -15   -0.01    0.05
   0  -1  15    0.00    0.04
  -1   1 -15    0.04    0.05
   1  -1  15   -0.02    0.04
  -5   0  15   -0.03    0.04
  -5   0  15    0.02    0.05
   4   0 -15    0.39    0.07
  -4   0  15    0.41    0.06
   3   0 -15    2.12    0.13
  -3   0  15    2.16    0.12
   2   0 -15    0.19    0.06
  -2   0  15    0.10    0.05
  -1   0  15    4.43    0.18
   0   0 -15    0.28    0.06
   0   0  15    0.20    0.06
  -1   0 -15    1.93    0.13
   1   0  15    1.57    0.11
  -5   1  15   -0.01    0.04
  -5   1  15   -0.08    0.04
   4  -1 -15    0.04    0.05
  -4   1  15   -0.05    0.04
   3  -1 -15    0.09    0.05
  -3   1  15    0.06    0.04
   2  -1 -15    0.21    0.06
  -2   1  15    0.24    0.06
   1  -1 -15   -0.01    0.04
  -1   1  15   -0.02    0.04
   0  -1 -15   -0.02    0.04
   0   1  15   -0.02    0.04
  -5   2  15    2.21    0.13
  -4   2  15    0.08    0.05
  -3   2  15    0.85    0.08
   2  -2 -15    0.01    0.05
  -2   2  15    0.00    0.04
   1  -2 -15   -0.01    0.05
  -1   2  15    0.00    0.04
  -4   3  15    0.03    0.04
   3  -3 -15    0.13    0.06
  -3   3  15    0.18    0.05
   2  -3 -15    0.54    0.08
  -2   3  15    0.41    0.07
  -2  -2  16    0.42    0.07
   3   1 -16    1.41    0.11
  -3  -1  16    1.32    0.10
   2   1 -16    1.39    0.11
  -2  -1  16    1.39    0.11
  -1  -1  16    0.02    0.05
   3   0 -16    0.06    0.06
  -2   0  16    0.07    0.05
   0   0   0    0.00    0.00
;
_shelx_hkl_checksum              65775
_shelx_res_file
;
TITL BNS_T_S6_8_0M IN P-1
CELL  0.71073  7.25280  7.62490 13.06490 91.41000 105.92400 94.64700
ZERR 2  0.00020  0.00030  0.00040  0.00200  0.00200  0.00200
LATT 1
SFAC C H N O S CL
UNIT 24 24 10 2 2 2
PLAN 30
FMAP 2
L.S. 9
BOND $H
CONF
ACTA
HTAB
EQIV $1 -X, -Y, -Z+1
HTAB N1 N3_$1
EQIV $2 X-1, Y-1, Z
HTAB N1 O1_$2
HTAB N2 CL1
EQIV $3 X-1, Y, Z
HTAB N2 O1_$3
HTAB N5 N4
HTAB C2 O1_$2
WGHT    0.051500    0.269200
FVAR       0.27305
CL1   6   -0.320446    0.835020    0.110805    11.00000    0.04731    0.07303 =
         0.08029    0.02546    0.02440    0.01060
S1    5    0.226875    0.441028    0.412824    11.00000    0.03087    0.06087 =
         0.04345    0.01933    0.00128   -0.00578
O1    4    0.357605    0.811937    0.267809    11.00000    0.04040    0.05485 =
         0.04922    0.00713    0.00717   -0.01584
N1    3   -0.250494   -0.053068    0.403536    11.00000    0.04395    0.04737 =
         0.05785    0.01871   -0.00607   -0.00787
H1A   2   -0.163393   -0.091008    0.453664    11.00000    0.05142
H1B   2   -0.361438   -0.101107    0.382939    11.00000    0.05817
N2    3   -0.467067    0.466473    0.232115    11.00000    0.03188    0.05014 =
         0.08580    0.02711    0.00655    0.00211
H2A   2   -0.437342    0.571617    0.232115    11.00000    0.06154
H2B   2   -0.583872    0.428221    0.222052    11.00000    0.06953
N3    3   -0.039372    0.190204    0.405404    11.00000    0.03392    0.04661 =
         0.03486    0.01055    0.00431   -0.00053
N4    3   -0.148399    0.448836    0.317107    11.00000    0.03180    0.04310 =
         0.03600    0.00817    0.00944   -0.00095
N5    3    0.052650    0.684654    0.204708    11.00000    0.03393    0.05148 =
         0.03599    0.00990    0.00718   -0.00975
H5    2   -0.039565    0.630871    0.223346    11.00000    0.04460
C1    1   -0.222091    0.111268    0.373249    11.00000    0.03884    0.04181 =
         0.03075    0.00494    0.00517   -0.00146
C2    1   -0.372273    0.199150    0.313526    11.00000    0.03143    0.04585 =
         0.03899    0.00681    0.00370   -0.00338
AFIX  43
H2    2   -0.497041    0.144686    0.291013    11.00000   -1.20000
AFIX   0
C3    1   -0.331037    0.369354    0.288603    11.00000    0.03223    0.04469 =
         0.03645    0.00698    0.00975    0.00166
C4    1   -0.017559    0.352509    0.373418    11.00000    0.03152    0.04691 =
         0.02619    0.00488    0.00726   -0.00182
C5    1    0.210951    0.674152    0.391728    11.00000    0.04468    0.05110 =
         0.03427   -0.00251    0.00622   -0.01197
AFIX  23
H5A   2    0.092371    0.706809    0.404499    11.00000   -1.20000
H5B   2    0.316885    0.739603    0.444163    11.00000   -1.20000
AFIX   0
C6    1    0.215522    0.730241    0.281932    11.00000    0.03553    0.03244 =
         0.03759    0.00135    0.00821   -0.00309
C7    1    0.018687    0.724547    0.096130    11.00000    0.03982    0.03375 =
         0.03502    0.00434    0.00690   -0.00890
C8    1   -0.152141    0.791664    0.043057    11.00000    0.04052    0.03843 =
         0.04456    0.00534    0.00614   -0.00711
C9    1   -0.189720    0.831399   -0.063010    11.00000    0.05821    0.04723 =
         0.04467    0.01025   -0.00491   -0.00832
AFIX  43
H9    2   -0.304785    0.876306   -0.097599    11.00000   -1.20000
AFIX   0
C10   1   -0.055653    0.803932   -0.116673    11.00000    0.08726    0.05257 =
         0.03247    0.00309    0.00727   -0.01212
AFIX  43
H10   2   -0.079500    0.831151   -0.187854    11.00000   -1.20000
AFIX   0
C11   1    0.114767    0.735974   -0.065458    11.00000    0.07606    0.04964 =
         0.04471   -0.00243    0.02688   -0.00637
AFIX  43
H11   2    0.204764    0.716784   -0.102378    11.00000   -1.20000
AFIX   0
C12   1    0.151631    0.696466    0.040653    11.00000    0.04863    0.04213 =
         0.04555    0.00294    0.01454   -0.00152
AFIX  43
H12   2    0.266459    0.650779    0.074823    11.00000   -1.20000
AFIX   0
HKLF 4
REM  BNS_T_S6_8_0M IN P-1
REM R1 =  0.0354 for    2519 Fo > 4sig(Fo)  and  0.0392 for all    2822 data
REM    201 parameters refined using      0 restraints
END
WGHT      0.0515      0.2693
REM Instructions for potential hydrogen bonds
HTAB N1 N3_$1
HTAB N1 O1_$2
HTAB N2 Cl1
HTAB N2 O1_$3
HTAB N5 N4
HTAB C2 O1_$2
REM Highest difference peak  0.499,  deepest hole -0.496,  1-sigma level  0.059
Q1    1  -0.3285  0.7406  0.0636  11.00000  0.05    0.50
Q2    1   0.0339  0.7152  0.1401  11.00000  0.05    0.21
Q3    1  -0.0880  0.7146  0.0585  11.00000  0.05    0.21
Q4    1   0.1051  0.7490  0.0810  11.00000  0.05    0.20
Q5    1  -0.0636  0.7738  0.0684  11.00000  0.05    0.19
Q6    1  -0.1882  0.7623 -0.0185  11.00000  0.05    0.18
Q7    1   0.3520  0.7228  0.2752  11.00000  0.05    0.18
Q8    1   0.0664  0.6736  0.0670  11.00000  0.05    0.18
Q9    1   0.0900  0.4036  0.3951  11.00000  0.05    0.17
Q10   1   0.2303  0.5656  0.3928  11.00000  0.05    0.16
Q11   1  -0.1567  0.8307 -0.0020  11.00000  0.05    0.15
Q12   1   0.2618  0.3484  0.3532  11.00000  0.05    0.14
Q13   1   0.1537  0.6403  0.2232  11.00000  0.05    0.14
Q14   1  -0.2911  0.1403  0.3241  11.00000  0.05    0.14
Q15   1   0.2121  0.6846  0.3369  11.00000  0.05    0.14
Q16   1  -0.1354  0.5563  0.3237  11.00000  0.05    0.14
Q17   1  -0.4462  0.6983 -0.0827  11.00000  0.05    0.14
Q18   1  -0.3637  0.2986  0.3247  11.00000  0.05    0.14
Q19   1  -0.2244  0.8477  0.1564  11.00000  0.05    0.14
Q20   1  -0.3230  0.9251 -0.0809  11.00000  0.05    0.13
Q21   1  -0.2540  0.6178  0.0547  11.00000  0.05    0.13
Q22   1  -0.2538  0.4281  0.3238  11.00000  0.05    0.13
Q23   1   0.4127  0.7002  0.2426  11.00000  0.05    0.13
Q24   1  -0.3198  0.6805 -0.0017  11.00000  0.05    0.12
Q25   1  -0.4466  0.5869  0.2849  11.00000  0.05    0.12
Q26   1  -0.2132 -0.1457  0.3179  11.00000  0.05    0.12
Q27   1  -0.2904  0.5179  0.4179  11.00000  0.05    0.12
Q28   1   0.2975  0.8635  0.3023  11.00000  0.05    0.12
Q29   1  -0.2814  0.5578  0.3629  11.00000  0.05    0.12
Q30   1  -0.0961  0.4280  0.3614  11.00000  0.05    0.12
;
_shelx_res_checksum              26199
_shelxl_version_number           2014/6
loop_
_space_group_symop_operation_xyz
'x, y, z'
'-x, -y, -z'
loop_
_atom_site_type_symbol
_atom_site_label
_atom_site_fract_x
_atom_site_fract_y
_atom_site_fract_z
_atom_site_U_iso_or_equiv
_atom_site_adp_type
_atom_site_calc_flag
_atom_site_occupancy
Cl Cl1 -0.32045(7) 0.83502(8) 0.11080(5) 0.06488(18) Uani d 1
S S1 0.22688(6) 0.44103(6) 0.41282(3) 0.04714(15) Uani d 1
O O1 0.35760(17) 0.81194(17) 0.26781(10) 0.0503(3) Uani d 1
N N1 -0.2505(3) -0.0531(2) 0.40354(14) 0.0541(4) Uani d 1
H H1A -0.163(3) -0.091(3) 0.4537(18) 0.051(6) Uiso d 1
H H1B -0.361(3) -0.101(3) 0.3829(18) 0.058(6) Uiso d 1
N N2 -0.4671(2) 0.4665(2) 0.23211(16) 0.0576(5) Uani d 1
H H2A -0.437(3) 0.572(3) 0.2321(18) 0.062(7) Uiso d 1
H H2B -0.584(4) 0.428(3) 0.2221(19) 0.070(7) Uiso d 1
N N3 -0.03937(19) 0.19020(19) 0.40540(10) 0.0396(3) Uani d 1
N N4 -0.14840(18) 0.44884(18) 0.31711(10) 0.0371(3) Uani d 1
N N5 0.0527(2) 0.6847(2) 0.20471(11) 0.0416(3) Uani d 1
H H5 -0.040(3) 0.631(3) 0.2233(15) 0.045(5) Uiso d 1
C C1 -0.2221(2) 0.1113(2) 0.37325(12) 0.0383(3) Uani d 1
C C2 -0.3723(2) 0.1992(2) 0.31353(13) 0.0403(4) Uani d 1
H H2 -0.4970 0.1447 0.2910 0.048 Uiso calc 1
C C3 -0.3310(2) 0.3694(2) 0.28860(13) 0.0378(3) Uani d 1
C C4 -0.0176(2) 0.3525(2) 0.37342(11) 0.0353(3) Uani d 1
C C5 0.2110(3) 0.6742(2) 0.39173(13) 0.0453(4) Uani d 1
H H5A 0.0924 0.7068 0.4045 0.054 Uiso calc 1
H H5B 0.3169 0.7396 0.4442 0.054 Uiso calc 1
C C6 0.2155(2) 0.7302(2) 0.28193(12) 0.0359(3) Uani d 1
C C7 0.0187(2) 0.7245(2) 0.09613(12) 0.0375(3) Uani d 1
C C8 -0.1521(2) 0.7917(2) 0.04306(14) 0.0428(4) Uani d 1
C C9 -0.1897(3) 0.8314(3) -0.06301(15) 0.0545(5) Uani d 1
H H9 -0.3048 0.8763 -0.0976 0.065 Uiso calc 1
C C10 -0.0557(4) 0.8039(3) -0.11667(15) 0.0603(6) Uani d 1
H H10 -0.0795 0.8312 -0.1879 0.072 Uiso calc 1
C C11 0.1148(3) 0.7360(3) -0.06546(15) 0.0556(5) Uani d 1
H H11 0.2048 0.7168 -0.1024 0.067 Uiso calc 1
C C12 0.1516(3) 0.6965(2) 0.04065(14) 0.0454(4) Uani d 1
H H12 0.2665 0.6508 0.0748 0.055 Uiso calc 1
loop_
_atom_site_aniso_label
_atom_site_aniso_U_11
_atom_site_aniso_U_22
_atom_site_aniso_U_33
_atom_site_aniso_U_12
_atom_site_aniso_U_13
_atom_site_aniso_U_23
Cl1 0.0473(3) 0.0730(4) 0.0803(4) 0.0106(2) 0.0244(2) 0.0255(3)
S1 0.0309(2) 0.0609(3) 0.0435(2) -0.00578(18) 0.00128(17) 0.0193(2)
O1 0.0404(6) 0.0548(7) 0.0492(7) -0.0158(5) 0.0072(5) 0.0071(6)
N1 0.0440(9) 0.0474(9) 0.0579(10) -0.0079(7) -0.0061(8) 0.0187(7)
N2 0.0319(8) 0.0501(10) 0.0858(13) 0.0021(7) 0.0066(8) 0.0271(9)
N3 0.0339(7) 0.0466(8) 0.0349(7) -0.0005(6) 0.0043(5) 0.0105(6)
N4 0.0318(6) 0.0431(7) 0.0360(7) -0.0010(5) 0.0094(5) 0.0082(5)
N5 0.0339(7) 0.0515(8) 0.0360(7) -0.0097(6) 0.0072(6) 0.0099(6)
C1 0.0388(8) 0.0418(8) 0.0307(7) -0.0015(7) 0.0052(6) 0.0049(6)
C2 0.0314(8) 0.0458(9) 0.0390(8) -0.0034(6) 0.0037(6) 0.0068(7)
C3 0.0322(8) 0.0447(9) 0.0364(8) 0.0017(6) 0.0097(6) 0.0070(6)
C4 0.0315(7) 0.0469(9) 0.0262(7) -0.0018(6) 0.0073(6) 0.0049(6)
C5 0.0447(9) 0.0511(10) 0.0343(8) -0.0120(7) 0.0062(7) -0.0025(7)
C6 0.0355(8) 0.0324(7) 0.0376(8) -0.0031(6) 0.0082(6) 0.0013(6)
C7 0.0398(8) 0.0337(8) 0.0350(8) -0.0089(6) 0.0069(6) 0.0043(6)
C8 0.0405(9) 0.0384(8) 0.0446(9) -0.0071(7) 0.0061(7) 0.0053(7)
C9 0.0582(11) 0.0472(10) 0.0447(10) -0.0083(8) -0.0049(8) 0.0103(8)
C10 0.0873(15) 0.0526(11) 0.0325(9) -0.0121(10) 0.0073(9) 0.0031(8)
C11 0.0761(14) 0.0496(10) 0.0447(10) -0.0064(9) 0.0269(10) -0.0024(8)
C12 0.0486(10) 0.0421(9) 0.0456(9) -0.0015(7) 0.0145(8) 0.0029(7)
loop_
_atom_type_symbol
_atom_type_description
_atom_type_scat_dispersion_real
_atom_type_scat_dispersion_imag
_atom_type_scat_source
C C 0.0033 0.0016 'International Tables Vol C Tables 4.2.6.8 and 6.1.1.4'
H H 0.0000 0.0000 'International Tables Vol C Tables 4.2.6.8 and 6.1.1.4'
N N 0.0061 0.0033 'International Tables Vol C Tables 4.2.6.8 and 6.1.1.4'
O O 0.0106 0.0060 'International Tables Vol C Tables 4.2.6.8 and 6.1.1.4'
S S 0.1246 0.1234 'International Tables Vol C Tables 4.2.6.8 and 6.1.1.4'
Cl Cl 0.1484 0.1585 'International Tables Vol C Tables 4.2.6.8 and 6.1.1.4'
loop_
_geom_angle_atom_site_label_1
_geom_angle_atom_site_label_2
_geom_angle_atom_site_label_3
_geom_angle
C4 S1 C5 103.22(8)
C1 N1 H1A 118.4(15)
C1 N1 H1B 116.7(16)
H1A N1 H1B 123(2)
C3 N2 H2A 116.6(17)
C3 N2 H2B 118.0(17)
H2A N2 H2B 120(2)
C4 N3 C1 115.11(13)
C4 N4 C3 114.72(13)
C6 N5 C7 125.63(14)
C6 N5 H5 116.8(13)
C7 N5 H5 117.5(13)
N1 C1 N3 117.08(15)
N1 C1 C2 121.83(15)
N3 C1 C2 121.08(14)
C3 C2 C1 117.94(14)
C3 C2 H2 121.0
C1 C2 H2 121.0
N2 C3 N4 115.59(15)
N2 C3 C2 122.48(15)
N4 C3 C2 121.90(15)
N4 C4 N3 129.18(14)
N4 C4 S1 118.71(12)
N3 C4 S1 112.10(11)
C6 C5 S1 115.29(12)
C6 C5 H5A 108.5
S1 C5 H5A 108.5
C6 C5 H5B 108.5
S1 C5 H5B 108.5
H5A C5 H5B 107.5
O1 C6 N5 124.20(15)
O1 C6 C5 121.24(15)
N5 C6 C5 114.56(14)
C12 C7 C8 118.68(15)
C12 C7 N5 121.45(15)
C8 C7 N5 119.87(15)
C9 C8 C7 121.22(18)
C9 C8 Cl1 118.54(15)
C7 C8 Cl1 120.20(13)
C10 C9 C8 119.36(19)
C10 C9 H9 120.3
C8 C9 H9 120.3
C9 C10 C11 120.31(17)
C9 C10 H10 119.8
C11 C10 H10 119.8
C10 C11 C12 120.09(19)
C10 C11 H11 120.0
C12 C11 H11 120.0
C7 C12 C11 120.34(18)
C7 C12 H12 119.8
C11 C12 H12 119.8
loop_
_geom_bond_atom_site_label_1
_geom_bond_atom_site_label_2
_geom_bond_distance
Cl1 C8 1.7397(19)
S1 C4 1.7753(15)
S1 C5 1.8135(19)
O1 C6 1.2207(19)
N1 C1 1.340(2)
N1 H1A 0.85(2)
N1 H1B 0.83(2)
N2 C3 1.346(2)
N2 H2A 0.81(3)
N2 H2B 0.85(3)
N3 C4 1.327(2)
N3 C1 1.359(2)
N4 C4 1.318(2)
N4 C3 1.360(2)
N5 C6 1.340(2)
N5 C7 1.417(2)
N5 H5 0.85(2)
C1 C2 1.386(2)
C2 C3 1.375(2)
C2 H2 0.9300
C5 C6 1.515(2)
C5 H5A 0.9700
C5 H5B 0.9700
C7 C12 1.382(2)
C7 C8 1.388(2)
C8 C9 1.383(3)
C9 C10 1.371(3)
C9 H9 0.9300
C10 C11 1.382(3)
C10 H10 0.9300
C11 C12 1.384(3)
C11 H11 0.9300
C12 H12 0.9300
loop_
_geom_hbond_atom_site_label_D
_geom_hbond_atom_site_label_H
_geom_hbond_atom_site_label_A
_geom_hbond_site_symmetry_A
_geom_hbond_distance_DH
_geom_hbond_distance_HA
_geom_hbond_distance_DA
_geom_hbond_angle_DHA
N5 H5 N4 . 0.85(2) 2.12(2) 2.898(2) 152(2)
N2 H2A Cl1 . 0.81(3) 2.81(2) 3.493(2) 143(2)
N1 H1A N3 2_556 0.85(2) 2.21(2) 3.058(2) 174(2)
N1 H1B O1 1_445 0.83(2) 2.21(2) 2.992(2) 157(2)
N2 H2A O1 1_455 0.81(3) 2.56(2) 3.095(2) 124(2)
C2 H2 O1 1_445 0.93 2.64 3.353(2) 134
loop_
_geom_torsion_atom_site_label_1
_geom_torsion_atom_site_label_2
_geom_torsion_atom_site_label_3
_geom_torsion_atom_site_label_4
_geom_torsion
C4 N3 C1 N1 179.80(16)
C4 N3 C1 C2 -1.4(2)
N1 C1 C2 C3 178.13(17)
N3 C1 C2 C3 -0.6(3)
C4 N4 C3 N2 179.24(16)
C4 N4 C3 C2 -2.5(2)
C1 C2 C3 N2 -179.19(18)
C1 C2 C3 N4 2.7(3)
C3 N4 C4 N3 0.3(2)
C3 N4 C4 S1 178.72(11)
C1 N3 C4 N4 1.7(2)
C1 N3 C4 S1 -176.86(11)
C5 S1 C4 N4 15.56(15)
C5 S1 C4 N3 -165.73(12)
C4 S1 C5 C6 -89.86(13)
C7 N5 C6 O1 -0.6(3)
C7 N5 C6 C5 178.60(16)
S1 C5 C6 O1 -106.66(16)
S1 C5 C6 N5 74.10(18)
C6 N5 C7 C12 47.4(2)
C6 N5 C7 C8 -133.27(18)
C12 C7 C8 C9 -0.5(2)
N5 C7 C8 C9 -179.80(15)
C12 C7 C8 Cl1 -178.14(12)
N5 C7 C8 Cl1 2.5(2)
C7 C8 C9 C10 0.0(3)
Cl1 C8 C9 C10 177.71(14)
C8 C9 C10 C11 0.5(3)
C9 C10 C11 C12 -0.5(3)
C8 C7 C12 C11 0.5(2)
N5 C7 C12 C11 179.79(15)
C10 C11 C12 C7 0.0(3)

_cod_database_fobs_code 2241781
