#------------------------------------------------------------------------------
#$Date: 2016-06-11 05:09:49 +0300 (Sat, 11 Jun 2016) $
#$Revision: 183351 $
#$URL: file:///home/coder/svn-repositories/cod/cif/2/24/17/2241714.cif $
#------------------------------------------------------------------------------
#
# This file is available in the Crystallography Open Database (COD),
# http://www.crystallography.net/. The original data for this entry
# were provided by IUCr Journals, http://journals.iucr.org/.
#
# The file may be used within the scientific community so long as
# proper attribution is given to the journal article from which the
# data were obtained.
#
data_2241714
loop_
_publ_author_name
'Gomes, L\'igia R.'
'Low, John Nicolson'
'Fonseca, Andr\'e'
'Matos, Maria Jo\~ao'
'Borges, Fernanda'
_publ_section_title
;
 Crystal structures of three 6-substituted coumarin-3-carboxamide
 derivatives
;
_journal_issue                   7
_journal_name_full               'Acta Crystallographica Section E'
_journal_page_first              926
_journal_page_last               932
_journal_paper_doi               10.1107/S2056989016008665
_journal_volume                  72
_journal_year                    2016
_chemical_formula_iupac          'C18 H15 N O5'
_chemical_formula_moiety         'C18 H15 N O5'
_chemical_formula_sum            'C18 H15 N O5'
_chemical_formula_weight         325.31
_chemical_name_systematic
;
6-Methoxy-<i>N</i>-(3-methoxyphenyl)-2-oxo-2<i>H</i>-chromene-3-carboxamide
;
_space_group_crystal_system      triclinic
_space_group_IT_number           2
_space_group_name_Hall           '-P 1'
_space_group_name_H-M_alt        'P -1'
_symmetry_space_group_name_Hall  '-P 1'
_symmetry_space_group_name_H-M   'P -1'
_atom_sites_solution_hydrogens   mixed
_cell_angle_alpha                91.874(7)
_cell_angle_beta                 100.009(7)
_cell_angle_gamma                113.042(7)
_cell_formula_units_Z            2
_cell_length_a                   6.7722(5)
_cell_length_b                   8.3098(7)
_cell_length_c                   14.4202(13)
_cell_measurement_reflns_used    3630
_cell_measurement_temperature    100(2)
_cell_measurement_theta_max      27.4420
_cell_measurement_theta_min      2.6630
_cell_volume                     730.84(11)
_computing_cell_refinement
;
CrysAlis PRO (Rigaku Oxford Diffraction, 2015)
;
_computing_data_collection
;
CrysAlis PRO (Rigaku Oxford Diffraction, 2015)
;
_computing_data_reduction
;
CrysAlis PRO (Rigaku Oxford Diffraction, 2015)
;
_computing_molecular_graphics
;
Mercury (Macrae <i>et al.</i>,  2006)
;
_computing_publication_material
;
OSCAIL (McArdle <i>et al.</i>,  2004),
SHELXL2014 (Sheldrick, 2015b) and
PLATON (Spek, 2009)
;
_computing_structure_refinement
;
OSCAIL (McArdle <i>et al.</i>,  2004),
<i>ShelXle</i> (H\"ubschle <i>et al.</i>,  2011) and
SHELXL-2014/6 (Sheldrick, 2015b)
;
_computing_structure_solution
;
OSCAIL (McArdle <i>et al.</i>,  2004) and
SHELXT (Sheldrick, 2015a)
;
_diffrn_ambient_temperature      100(2)
_diffrn_detector_area_resol_mean 28.5714
_diffrn_measured_fraction_theta_full 0.998
_diffrn_measured_fraction_theta_max 0.988
_diffrn_measurement_device       'four-circle \k diffractometer'
_diffrn_measurement_device_type  'Rigaku AFC12 (Right)'
_diffrn_measurement_method       'profile data from \w-scans'
_diffrn_radiation_monochromator  'Confocal mirrors, HF Varimax'
_diffrn_radiation_type           MoK\a
_diffrn_radiation_wavelength     0.71073
_diffrn_reflns_av_R_equivalents  0.0331
_diffrn_reflns_limit_h_max       8
_diffrn_reflns_limit_h_min       -7
_diffrn_reflns_limit_k_max       9
_diffrn_reflns_limit_k_min       -10
_diffrn_reflns_limit_l_max       18
_diffrn_reflns_limit_l_min       -18
_diffrn_reflns_number            8745
_diffrn_reflns_theta_full        25.000
_diffrn_reflns_theta_max         27.465
_diffrn_reflns_theta_min         2.680
_exptl_absorpt_coefficient_mu    0.109
_exptl_absorpt_correction_T_max  1.00000
_exptl_absorpt_correction_T_min  0.79232
_exptl_absorpt_correction_type   multi-scan
_exptl_absorpt_process_details
;
(CrysAlis PRO; Rigaku Oxford Diffraction, 2015)
;
_exptl_crystal_colour            yellow
_exptl_crystal_density_diffrn    1.483
_exptl_crystal_description       plate
_exptl_crystal_F_000             340
_exptl_crystal_size_max          0.170
_exptl_crystal_size_mid          0.110
_exptl_crystal_size_min          0.020
_refine_diff_density_max         0.245
_refine_diff_density_min         -0.261
_refine_ls_extinction_method     none
_refine_ls_goodness_of_fit_ref   1.159
_refine_ls_hydrogen_treatment    mixed
_refine_ls_matrix_type           full
_refine_ls_number_parameters     223
_refine_ls_number_reflns         3302
_refine_ls_number_restraints     0
_refine_ls_restrained_S_all      1.159
_refine_ls_R_factor_all          0.0935
_refine_ls_R_factor_gt           0.0710
_refine_ls_shift/su_max          0.000
_refine_ls_shift/su_mean         0.000
_refine_ls_structure_factor_coef Fsqd
_refine_ls_weighting_details
'w=1/[\s^2^(Fo^2^)+(0.0606P)^2^+0.3539P] where P=(Fo^2^+2Fc^2^)/3'
_refine_ls_weighting_scheme      calc
_refine_ls_wR_factor_gt          0.1414
_refine_ls_wR_factor_ref         0.1518
_reflns_number_gt                2666
_reflns_number_total             3302
_reflns_threshold_expression     'I > 2\s(I)'
_cod_data_source_file            hb7589sup1.cif
_cod_data_source_block           3
_cod_database_code               2241714
_shelx_space_group_comment
;
The symmetry employed for this shelxl refinement is uniquely defined
by the following loop, which should always be used as a source of
symmetry information in preference to the above space-group names.
They are only intended as comments.
;
_shelx_estimated_absorpt_t_min   0.982
_shelx_estimated_absorpt_t_max   0.998
_shelx_hkl_file
;
   0   0  -2 10620.7 100.666   6
   0   0   2 10807.5 118.024   2
   0   0   2 10615.1 107.850   1
   0   0   2 10599.2 97.2739   6
   0   0   2 10706.5 101.366   5
   0   0  -2 10533.9 117.231   2
   0   0  -3 15093.7 180.160   2
   0   0  -3 15107.7 151.417   6
   0   0   3 14883.2 162.909   1
   0   0   3 14702.5 146.631   5
   0   0   3 14947.8 141.721   6
   0   0  -3 15148.2 160.597   1
   0   0   4 7654.05 137.749   1
   0   0  -4 7732.66 126.449   6
   0   0   4 7424.35 122.845   5
   0   0  -4 7341.63 155.740   2
   0   0   4 7568.47 119.881   6
   0   0  -4 7046.64 133.561   1
   0   0   4 7292.18 151.717   2
   0   0  -5 1293.56 68.3606   6
   0   0   5 1205.04 67.8152   5
   0   0  -5 1103.92 87.8563   2
   0   0   5 1196.03 71.9184   1
   0   0  -5 1013.08 68.6060   1
   0   0   5 1117.87 87.1537   2
   0   0   5 1314.25 63.9808   6
   0   0  -6 347.338 57.6308   6
   0   0   6 299.237 76.0807   2
   0   0  -6 259.720 60.4919   1
   0   0   6 254.210 63.7411   1
   0   0  -6 316.192 83.5385   2
   0   0   6 298.598 64.7895   5
   0   0   6 328.006 51.5238   6
   0   0  -7 23440.0 286.048   6
   0   0   7 22998.7 313.107   1
   0   0  -7 22334.5 343.045   2
   0   0  -7 22397.9 299.549   1
   0   0   7 22566.0 269.768   6
   0   0   8 20376.5 315.870   1
   0   0   8 20703.1 341.452   2
   0   0  -8 20639.5 288.462   6
   0   0  -8 20997.1 361.990   2
   0   0  -9 352.490 90.4117   2
   0   0   9 384.347 72.7536   1
   0   0  -9 301.675 62.3958   6
   0   0 -10 143.213 61.7653   6
   0   0 -10 128.222 93.0735   2
   0   0  10 229.902 67.0360   1
   0   0  11 28.0872 67.0546   1
   0   0 -11 75.6744 96.3287   2
   0   0 -11 119.947 67.9477   6
   0   0  12 582.266 101.787   1
   0   0 -12 797.011 100.803   6
   0   0 -12 1001.49 145.220   2
   0   0  13 157.081 82.0274   1
   0   0 -13 173.363 120.987   2
   0   0 -13 232.226 83.0341   6
   0   0  14 1423.51 140.482   1
   0   0 -14 1068.10 155.669   2
   0   0 -14 1000.19 120.009   6
   0   0 -15 235.422 135.626   2
   0   0 -15 215.008 94.6078   6
   0   0  15 348.819 106.033   1
   0   0 -16-49.2759 91.0924   6
   0   0  16 114.661 96.6967   1
   0   0  17 231.588 111.881   1
   0   0 -17 89.6595 102.431   6
   0   0 -18 248.353 123.502   6
   0   0  18 332.807 126.042   1
   0  -1  18 177.613 115.376   1
   0   1 -18 513.581 145.182   6
   0   1 -17 98.7214 124.843   6
   0  -1  17 306.452 114.825   1
   0  -1  16 537.676 112.608   1
   0   1 -16 758.452 137.770   6
   0   1 -15 6178.14 253.022   6
   0  -1  15 5121.43 244.885   1
   0  -1  14 180.514 88.0220   1
   0   1 -14 94.4729 93.5096   6
   0   1 -13 235.472 91.7368   6
   0  -1  13 188.774 88.4035   1
   0  -1  12 86.5103 76.1686   1
   0   1 -12 237.363 85.7728   6
   0   1 -11 4997.34 185.130   6
   0  -1  11 4431.09 186.538   1
   0  -1  10 28.6715 60.0864   1
   0   1 -10 55.4694 64.5846   6
   0  -1   9 238.814 62.8504   1
   0   1  -9 152.176 61.1125   6
   0   1  -8 384.094 70.1769   6
   0   1  -8 504.246 73.4729   1
   0  -1   8 353.745 83.0283   2
   0  -1   8 367.000 73.4556   1
   0  -1   7 107372. 654.576   1
   0  -1   7 105973. 585.974   6
   0   1  -7 107002. 628.556   1
   0   1  -7 107957. 626.218   6
   0  -1   6 5454.74 144.231   1
   0   1  -6 5396.67 139.271   1
   0  -1   6 5411.07 129.797   6
   0  -1   6 5746.76 160.222   2
   0   1  -6 5571.24 140.403   6
   0  -1   5 1549.21 69.7755   6
   0   1  -5 1320.48 75.3786   1
   0   1  -5 1580.88 75.6841   6
   0  -1   5 1398.69 75.8887   1
   0  -1   5 1409.79 90.6191   2
   0  -1   4 4016.26 100.868   1
   0  -1   4 4179.33 96.8594   6
   0   1  -4 4203.54 101.084   6
   0   1  -4 4220.81 100.332   5
   0  -1   4 3861.53 118.873   2
   0   1  -4 3868.20 99.0997   1
   0  -1   3 1301.71 55.0156   6
   0   1  -3 1213.53 58.2075   6
   0  -1   3 1288.18 56.4794   1
   0   1  -3 1319.44 59.8900   5
   0   1  -3 1303.24 53.9510   1
   0   1  -2 6419.72 95.5579   6
   0  -1   2 6373.87 101.899   3
   0   1  -2 6252.23 100.421   3
   0  -1   2 6506.52 94.7002   6
   0   1  -2 6656.85 90.0308   5
   0   1  -2 6542.49 83.6341   1
   0  -1   2 6488.41 84.9379   1
   0  -1   1 15999.5 128.817   6
   0   1  -1 15729.0 131.502   3
   0   1  -1 16752.2 111.855   7
   0   1  -1 16545.9 134.136   6
   0  -1   1 16471.7 136.047   3
   0  -1   0 9660.37 88.3226   7
   0   1   0 9341.94 95.8412   3
   0   1   0 9894.30 120.781   2
   0  -1   0 9285.50 95.1743   3
   0   1   1 135.512 39.6697   2
   0  -1  -1 154.801 40.5203   2
   0  -1  -1 122.020 26.8161   7
   0   1   1 137.359 21.3307   1
   0  -1  -1 131.111 22.4775   1
   0  -1  -2 14458.4 137.550   1
   0   1   2 14510.5 175.520   2
   0   1   2 14548.2 139.490   1
   0  -1  -2 14079.9 182.791   2
   0   1   3 50491.7 310.538   1
   0  -1  -3 50260.3 304.240   1
   0  -1  -3 49877.4 372.492   2
   0   1   3 49805.1 302.939   6
   0  -1  -4 1564.98 66.5012   6
   0   1   4 1565.73 69.3151   6
   0   1   4 1370.48 90.3169   2
   0   1   4 1461.92 69.6249   1
   0  -1  -4 1325.74 86.7922   2
   0  -1  -4 1431.49 69.0592   1
   0   1   5 2345.89 84.6794   5
   0   1   5 2357.60 97.1697   1
   0   1   5 2417.71 87.8573   6
   0  -1  -5 2536.00 89.9372   6
   0  -1  -5 2404.16 121.084   2
   0  -1  -5 2281.63 93.8956   1
   0   1   5 2281.31 117.535   2
   0   1   6 5609.65 177.542   2
   0   1   6 5657.61 138.204   6
   0  -1  -6 5605.32 185.574   2
   0   1   6 5037.75 134.979   5
   0  -1  -6 5947.55 141.704   6
   0  -1  -6 5350.45 148.733   1
   0   1   6 5515.89 157.571   1
   0  -1  -7 1291.84 84.0685   6
   0  -1  -7 1078.64 111.758   2
   0   1   7 1243.25 95.2560   1
   0   1   7 1303.33 82.3029   6
   0   1   7 1343.24 110.423   2
   0  -1  -7 1236.18 91.2773   1
   0   1   7 1185.81 87.8920   5
   0  -1  -8 1003.56 81.1686   6
   0  -1  -8 823.438 103.722   2
   0   1   8 956.627 90.6169   1
   0  -1  -9 43556.7 442.070   6
   0   1   9 42167.8 485.684   1
   0   1  10 1373.09 113.540   1
   0  -1 -10 1364.46 100.815   6
   0  -1 -10 1109.49 127.276   2
   0  -1 -11-68.5771 65.3116   6
   0  -1 -11 107.783 96.3264   2
   0   1  11 189.714 82.3831   1
   0   1  12 403.192 95.7658   1
   0  -1 -12 315.446 80.2226   6
   0  -1 -12 403.297 123.929   2
   0   1  13 1647.86 148.840   1
   0  -1 -13 1735.17 176.476   2
   0  -1 -13 1806.03 134.771   6
   0   1  14 475.451 110.573   1
   0  -1 -14 224.288 87.4001   6
   0  -1 -14 136.067 113.333   2
   0  -1 -15 181.133 91.2034   6
   0  -1 -15 130.351 126.549   2
   0   1  15-3.64622 94.1377   1
   0   1  16-42.0256 98.2282   1
   0  -1 -16 79.0953 94.2906   6
   0  -1 -17 2876.95 201.227   6
   0  -1 -17 2859.23 250.519   2
   0  -1 -18 384.141 172.351   2
   0  -2  18 170.984 118.828   1
   0   2 -18 90.9326 137.637   6
   0  -2  18 256.800 132.655   3
   0  -2  17 375.234 118.234   1
   0   2 -17 184.762 131.335   6
   0   2 -16 697.834 140.228   6
   0  -2  16 466.062 114.277   1
   0  -2  15 240.426 96.9523   1
   0   2 -15 375.419 124.098   6
   0   2 -14 41.5759 99.2339   6
   0  -2  14 75.9178 76.4987   1
   0   2 -13 511.857 110.751   6
   0  -2  13 179.025 82.3898   1
   0  -2  12 3665.74 180.638   1
   0   2 -12 3750.05 184.375   6
   0   2 -11 406.110 91.4856   6
   0  -2  11 309.961 81.9140   1
   0  -2  10 563.141 86.1787   1
   0   2 -10 533.254 86.1611   6
   0   2  -9 149.893 66.3398   6
   0  -2   9 188.818 62.8908   1
   0   2  -8 3636.49 132.184   1
   0   2  -8 3658.81 143.963   6
   0  -2   8 3563.31 140.738   1
   0  -2   8 3539.92 155.042   2
   0   2  -7 25.2703 52.5628   1
   0  -2   7-9.82468 58.0064   1
   0  -2   7-4.81794 47.7828   6
   0   2  -7-67.6951 60.5079   6
   0  -2   7-35.7303 64.7983   3
   0  -2   7 186.238 81.0961   2
   0   2  -6 26124.4 291.951   1
   0  -2   6 26427.0 336.943   3
   0  -2   6 25899.8 292.874   6
   0   2  -6 26434.3 311.480   6
   0  -2   6 26614.9 339.052   2
   0  -2   5 36262.9 320.837   1
   0   2  -5 36531.0 299.998   1
   0   2  -5 36823.0 336.009   6
   0  -2   5 35971.8 319.238   6
   0  -2   5 37368.7 363.214   3
   0   2  -5 36123.5 324.217   5
   0  -2   4 18.4607 40.5904   6
   0  -2   4 96.7077 46.9782   3
   0  -2   4 74.7519 35.1271   1
   0   2  -4 68.0012 45.9762   5
   0   2  -4 18.5927 32.1504   1
   0   2  -4 92.9027 45.0877   6
   0  -2   3 839.590 59.6934   3
   0  -2   3 908.869 56.4162   6
   0   2  -3 870.479 45.3451   1
   0   2  -3 952.324 60.0425   6
   0   2  -3 813.233 56.8559   3
   0   2  -3 804.679 55.1692   5
   0  -2   2 2566.56 80.2180   6
   0   2  -2 2725.74 72.0466   7
   0   2  -2 2583.57 53.7062   1
   0  -2   2 2389.02 80.0995   3
   0   2  -2 2310.52 79.8487   6
   0   2  -2 2475.72 82.8043   3
   0  -2   2 2142.96 92.1171   2
   0   2  -1 7084.80 145.724   2
   0  -2   1 8088.36 117.817   7
   0  -2   1 7173.88 121.788   6
   0  -2   1 6918.66 151.506   2
   0   2  -1 7413.50 127.682   6
   0   2  -1 7481.15 130.269   3
   0   2  -1 7695.04 113.092   7
   0  -2   1 7761.06 131.131   3
   0   2   0 6565.94 64.8055   1
   0   2   0 6261.76 120.909   3
   0  -2   0 6742.80 112.832   7
   0   2   0 6830.80 118.723   7
   0   2   0 6529.42 149.024   2
   0  -2   0 6417.38 120.003   3
   0  -2   0 6177.32 142.071   2
   0  -2   0 6482.12 69.7930   1
   0   2   1 2663.42 104.648   2
   0  -2  -1 2476.73 97.8003   2
   0  -2  -1 2512.19 55.8861   1
   0   2   1 2398.72 85.3743   3
   0  -2  -1 2718.05 83.4467   7
   0   2   1 2578.31 55.4345   1
   0   2   1 2490.24 79.7331   7
   0   2   2 999999. 1776.15   2
   0  -2  -2 995288. 1210.01   1
   0  -2  -3 54930.7 474.329   2
   0   2   3 56067.8 460.717   2
   0  -2  -3 55332.3 346.947   1
   0  -2  -3 57211.8 387.118   7
   0  -2  -3 55905.5 360.553   6
   0   2   3 56487.5 355.484   1
   0  -2  -4 12353.6 186.469   6
   0   2   4 12756.9 244.034   2
   0   2   4 12607.7 187.593   1
   0  -2  -4 12968.1 190.939   1
   0  -2  -4 13352.4 201.940   7
   0   2   4 12631.4 194.662   6
   0  -2  -4 12000.5 239.506   2
   0  -2  -5 7682.49 157.872   6
   0  -2  -5 7052.45 159.942   7
   0   2   5 7302.27 163.426   1
   0  -2  -5 7172.21 207.496   2
   0  -2  -5 7878.63 166.508   1
   0   2   5 8054.19 172.197   6
   0   2   5 7244.76 198.829   2
   0   2   6 2351.68 138.403   2
   0  -2  -6 2472.10 143.690   2
   0   2   6 2787.20 115.605   6
   0  -2  -6 2226.28 106.722   1
   0  -2  -6 2619.44 106.016   6
   0   2   6 2479.24 97.5903   5
   0   2   6 2406.68 114.979   1
   0  -2  -6 2363.09 107.021   7
   0  -2  -7 549.666 67.7110   6
   0   2   7 516.996 64.1673   5
   0  -2  -7 542.502 70.5246   7
   0   2   7 465.788 72.7840   1
   0  -2  -7 582.649 102.787   2
   0  -2  -8 55.2293 81.0018   2
   0  -2  -8-9.88515 51.8141   6
   0   2   8 33.4530 59.7380   1
   0   2   9 7851.09 222.951   1
   0  -2  -9 8330.00 203.762   6
   0   2  10 10002.7 267.698   1
   0  -2 -10 9566.62 288.372   2
   0   2  11 166.752 83.6044   1
   0  -2 -11 272.801 75.6473   6
   0  -2 -11 273.190 117.714   2
   0  -2 -12 1415.94 158.195   2
   0  -2 -12 1694.46 126.299   6
   0   2  12 1552.97 146.700   1
   0  -2 -13 138.880 79.8799   6
   0   2  13 241.031 94.3247   1
   0  -2 -13 126.390 115.775   2
   0  -2 -14 266.769 121.024   2
   0  -2 -14 318.397 85.8453   6
   0   2  14 213.194 107.994   1
   0  -2 -15 168.774 133.180   2
   0  -2 -15 152.488 88.8784   6
   0   2  15 11.6415 100.904   1
   0   2  16 378.443 130.054   1
   0  -2 -16 509.828 156.428   2
   0  -2 -16 501.589 114.464   6
   0   2  17 185.854 126.073   1
   0  -2 -17 193.843 114.359   6
   0  -2 -17 444.530 167.353   2
   0  -3  17 152.081 107.222   1
   0  -3  17 284.528 123.181   3
   0   3 -17-55.8764 122.146   6
   0  -3  16 399.722 118.345   3
   0  -3  16 232.004 105.837   1
   0   3 -16 401.036 129.413   6
   0  -3  15 469.128 107.105   1
   0  -3  15 379.924 114.408   3
   0   3 -15 395.140 120.798   6
   0  -3  14 737.946 111.912   1
   0   3 -14 1048.37 135.000   6
   0  -3  14 711.001 123.983   3
   0  -3  13 6170.61 248.988   3
   0   3 -13 6608.34 246.351   6
   0  -3  12 864.740 110.252   1
   0  -3  12 887.726 114.882   3
   0   3 -12 1007.60 118.893   6
   0  -3  11 273.821 83.6796   1
   0  -3  11 216.693 79.7844   3
   0   3 -11 237.625 87.4776   6
   0   3 -10 115.098 74.2624   6
   0  -3  10 144.746 75.6795   3
   0  -3  10 32.7922 59.8580   1
   0  -3   9 2255.56 119.541   1
   0   3  -9 2188.08 126.882   6
   0  -3   9 2120.95 137.122   3
   0   3  -8 762.516 86.6038   6
   0   3  -8 724.142 71.9059   1
   0  -3   8 796.099 79.6697   1
   0  -3   8 774.512 89.6103   3
   0  -3   7 58.0045 50.7738   1
   0  -3   7 33.1903 59.9502   3
   0   3  -7-52.3488 59.6500   6
   0   3  -7 12.6943 46.9981   1
   0  -3   6-43.1707 51.3951   6
   0  -3   6 60.5249 61.2110   3
   0   3  -6 94.5273 48.6118   1
   0   3  -6-77.7592 56.6698   6
   0   3  -5 82260.3 565.961   6
   0  -3   5 82649.7 540.366   6
   0   3  -5 82688.7 428.593   1
   0  -3   5 83012.9 586.608   3
   0   3  -5 81241.6 584.977   3
   0  -3   4 9351.37 194.965   3
   0  -3   4 9184.56 176.374   6
   0   3  -4 9461.48 192.181   6
   0   3  -4 9391.54 165.883   5
   0   3  -4 9402.85 188.311   3
   0   3  -4 9897.34 133.213   1
   0   3  -4 9960.76 156.717   7
   0  -3   3 1737.06 90.8879   3
   0  -3   3 1643.31 110.350   2
   0   3  -3 1807.78 54.8511   1
   0   3  -3 1726.67 88.5276   3
   0  -3   3 1701.16 83.7600   6
   0   3  -3 1707.05 80.5193   5
   0   3  -3 1701.03 78.9954   7
   0   3  -3 1640.99 88.1924   6
   0   3  -2 1345.90 81.7459   6
   0  -3   2 1318.18 75.7058   6
   0   3  -2 1390.77 68.1112   7
   0   3  -2 1307.24 77.7587   3
   0   3  -2 1264.49 37.9260   1
   0  -3   2 1295.85 81.0158   3
   0  -3   2 1340.49 104.990   2
   0  -3   1 122.937 44.4945   7
   0   3  -1 254.827 53.6034   7
   0   3  -1 103.651 16.5886   1
   0   3  -1 166.611 68.0712   2
   0   3  -1 208.047 55.1084   3
   0  -3   1 198.769 69.1364   2
   0  -3   1 186.985 50.3718   6
   0  -3   1 105.708 46.3582   3
   0  -3   0 4007.45 114.687   6
   0  -3   0 4208.07 123.049   3
   0  -3   0 3968.74 70.5185   1
   0   3   0 4406.08 64.8697   1
   0  -3   0 4360.91 155.600   2
   0  -3   0 4125.13 117.088   7
   0   3   0 4104.24 121.483   3
   0   3   0 4346.67 120.127   7
   0   3   0 3997.38 146.368   2
   0  -3  -1 515.253 76.2598   2
   0   3   1 518.037 61.4998   7
   0   3   1 569.977 63.7105   3
   0   3   1 637.626 96.0334   2
   0   3   1 571.503 38.5466   1
   0  -3  -1 605.056 43.7143   1
   0  -3  -1 469.273 54.0987   7
   0  -3  -2 9576.46 182.021   7
   0  -3  -2 9219.49 218.447   2
   0   3   2 10297.5 246.911   2
   0  -3  -2 9280.66 137.312   1
   0   3   2 9701.30 137.931   1
   0   3   2 9851.58 196.665   3
   0   3   3 1953.31 83.8669   1
   0  -3  -3 1573.77 76.3411   1
   0   3   3 1632.36 117.474   2
   0  -3  -3 1832.80 105.295   7
   0  -3  -3 1689.99 121.699   2
   0  -3  -3 1689.55 87.2955   6
   0  -3  -4 12859.8 210.380   6
   0   3   4 12431.6 197.351   1
   0  -3  -4 12338.0 223.396   7
   0  -3  -4 12012.2 189.479   1
   0  -3  -4 12545.8 275.632   2
   0   3   4 12709.9 276.155   2
   0  -3  -5 26887.9 342.092   7
   0  -3  -5 27563.5 413.315   2
   0   3   5 26284.5 308.990   1
   0  -3  -5 26929.4 317.135   6
   0  -3  -5 26019.1 299.059   1
   0  -3  -6 54.2838 43.4839   1
   0   3   6 18.7597 45.8316   5
   0  -3  -6-39.6490 50.8434   6
   0  -3  -6 120.985 84.3685   2
   0   3   6 34.6404 53.5624   1
   0   3   7 471.068 74.2693   1
   0  -3  -7 471.883 67.5389   6
   0   3   7 503.281 60.2633   5
   0  -3  -7 293.400 93.4723   2
   0   3   8 3722.02 159.251   1
   0  -3  -8 3493.61 182.343   2
   0   3   9 324.169 84.5315   1
   0  -3  -9 378.549 106.423   2
   0  -3  -9 473.445 76.5926   6
   0   3  10 67.8011 80.5172   1
   0  -3 -10 59.6970 62.8472   6
   0  -3 -10 48.1623 101.909   2
   0  -3 -11 11010.8 339.761   2
   0   3  11 10818.7 304.634   1
   0  -3 -12 1021.99 142.276   2
   0   3  12 671.526 123.506   1
   0  -3 -12 1028.98 106.687   6
   0  -3 -13 162.686 116.011   2
   0  -3 -13 32.8837 77.5768   6
   0   3  13-70.8063 95.7184   1
   0   3  14 164.369 103.560   1
   0  -3 -14 497.090 143.755   2
   0  -3 -14 542.625 103.722   6
   0   3  15 63.1704 109.989   1
   0  -3 -15 482.928 108.709   6
   0  -3 -15 427.386 145.198   2
   0   3  16 426.312 135.135   1
   0  -3 -16 266.446 104.711   6
   0  -3 -16 434.477 149.253   2
   0   4 -17 342.343 151.561   6
   0  -4  17 439.698 137.447   3
   0  -4  16 169.885 117.696   3
   0   4 -16 180.787 128.858   6
   0  -4  15 72.3676 99.3105   3
   0   4 -15-2.50522 119.864   6
   0   4 -14 562.179 135.862   6
   0  -4  14 388.864 110.516   3
   0   4 -13 378.691 112.255   6
   0  -4  13 444.558 110.748   3
   0  -4  12 95.4386 85.7005   3
   0   4 -12 285.416 102.554   6
   0  -4  11 493.290 99.7524   3
   0   4 -11 480.244 99.4326   6
   0  -4  10 4597.11 202.366   3
   0   4 -10 5172.90 201.055   6
   0   4  -9 76.3350 78.7502   6
   0  -4   9 102.994 73.5533   3
   0   4  -8 276.221 80.7560   6
   0  -4   8 206.731 72.8354   3
   0   4  -8 154.601 54.7433   1
   0   4  -7 1027.24 71.7413   7
   0  -4   7 1078.61 98.7418   3
   0   4  -7 1085.88 98.1095   6
   0   4  -7 1164.82 74.9730   1
   0   4  -6 7330.51 204.720   6
   0   4  -6 7515.52 159.018   7
   0   4  -6 7213.09 143.806   1
   0  -4   6 7073.66 205.066   3
   0  -4   5 1788.80 107.025   3
   0  -4   5 1690.67 126.043   2
   0   4  -5 1883.57 109.974   6
   0   4  -5 1904.40 70.8157   1
   0   4  -5 1653.60 95.6307   5
   0   4  -5 1883.82 88.7706   7
   0   4  -4 8029.47 164.291   5
   0  -4   4 7829.29 197.280   3
   0   4  -4 8011.61 194.529   6
   0   4  -4 8346.00 113.799   1
   0  -4   4 8165.32 187.704   6
   0   4  -4 7750.45 154.442   7
   0  -4   4 7597.74 224.964   2
   0   4  -4 7783.00 193.538   3
   0   4  -3 25555.0 336.596   6
   0  -4   3 25688.8 342.296   3
   0   4  -3 25866.7 166.939   1
   0  -4   3 25574.1 403.578   2
   0   4  -3 25184.9 327.971   3
   0  -4   3 24893.3 317.997   6
   0   4  -3 25681.8 254.240   5
   0   4  -2-4.67597 59.4049   7
   0   4  -2-0.91650 15.5629   1
   0   4  -2-68.4374 65.7082   3
   0  -4   2-20.7669 87.7833   2
   0  -4   2 38.4022 53.1570   6
   0   4  -2 11.4491 15.3084   1
   0  -4   2-70.9913 63.0221   3
   0   4  -1 327.454 22.7556   1
   0   4  -1 345.303 65.4902   7
   0  -4   1 463.590 98.0663   2
   0  -4   1 424.891 66.0194   7
   0  -4   1 387.368 66.0715   3
   0   4  -1 342.456 87.4212   2
   0  -4   1 419.452 63.3834   6
   0   4  -1 357.097 66.5359   3
   0   4   0 447.913 32.1933   1
   0  -4   0 396.224 95.8637   2
   0  -4   0 407.288 73.2446   3
   0   4   0 561.161 74.2861   7
   0   4   0 386.263 72.6421   3
   0  -4   0 427.709 68.4594   7
   0  -4   0 353.858 61.3942   6
   0   4   0 441.013 97.7371   2
   0   4   1 3200.84 126.970   3
   0   4   1 3053.68 123.152   7
   0  -4  -1 3038.80 79.3134   1
   0  -4  -1 3139.02 124.199   7
   0   4   1 3344.08 168.119   2
   0   4   1 3413.39 78.4878   1
   0  -4  -1 2956.45 146.668   2
   0  -4  -2 2465.38 144.366   2
   0   4   2 2391.73 80.4116   1
   0   4   2 2560.13 157.522   2
   0  -4  -2 2291.93 81.4598   1
   0  -4  -3-39.3957 39.0747   1
   0   4   3-11.4902 42.7435   1
   0  -4  -3-34.7415 81.7174   2
   0  -4  -4 200101. 1132.37   2
   0  -4  -4 200023. 815.316   1
   0  -4  -4 200990. 904.081   6
   0   4   4 201523. 798.987   1
   0  -4  -5 21980.1 311.648   6
   0  -4  -5 21265.0 294.504   1
   0  -4  -5 22489.2 417.996   2
   0   4   5 22138.2 295.691   1
   0   4   6 7043.31 186.985   1
   0  -4  -6 7091.72 189.528   6
   0  -4  -6 6672.41 244.261   2
   0  -4  -7 794.107 82.0563   6
   0   4   7 555.081 84.0134   1
   0  -4  -7 784.307 123.089   2
   0  -4  -8 329.580 73.4216   6
   0  -4  -8 234.518 118.777   2
   0   4   8 170.180 76.5064   1
   0   4   9 48.2165 78.7373   1
   0  -4  -9 134.660 68.2829   6
   0   4  10 39.3193 79.3516   1
   0  -4 -10 16.8765 67.2935   6
   0  -4 -10 189.242 112.942   2
   0   4  11 1473.56 143.221   1
   0  -4 -11 1380.48 173.712   2
   0  -4 -12 4685.83 263.295   2
   0   4  12 4523.71 237.115   1
   0  -4 -13 218.244 131.879   2
   0  -4 -13 110.210 81.2106   6
   0   4  13 116.680 104.445   1
   0   4  14 1156.21 161.427   1
   0  -4 -14 1228.53 178.032   2
   0  -4 -14 1596.83 147.825   6
   0   4  15 354.920 135.357   1
   0  -4 -15 299.182 148.746   2
   0  -4 -15 255.316 102.966   6
   0   5 -16 246.779 141.607   6
   0  -5  16 244.507 126.207   3
   0   5 -15 95.1279 122.561   6
   0  -5  15 116.354 108.731   3
   0  -5  14 342.863 113.359   3
   0   5 -14 550.296 132.874   6
   0  -5  13 780.826 125.771   3
   0   5 -13 793.214 139.593   6
   0   5 -12 1493.66 153.696   6
   0  -5  12 1307.58 140.626   3
   0   5 -11 4859.94 221.257   6
   0  -5  11 4912.82 223.736   3
   0   5 -11 4833.01 141.641   7
   0   5 -10 2568.89 164.721   6
   0   5 -10 2879.58 117.625   7
   0  -5  10 2666.75 164.649   3
   0  -5   9 157.402 78.5509   3
   0   5  -9 207.209 89.8698   6
   0   5  -9 50.3075 56.6898   1
   0   5  -9-30.4662 59.3306   7
   0  -5   8 34.5278 74.8446   3
   0   5  -8-10.4352 56.9188   7
   0   5  -8-21.3239 50.2191   1
   0  -5   7 108.146 72.6710   3
   0  -5   7 167.468 97.4391   2
   0   5  -7 144.706 58.5519   7
   0   5  -7 75.7244 72.7409   6
   0   5  -7 34.6870 41.5270   1
   0   5  -6 546.491 92.4715   6
   0  -5   6 341.018 104.230   2
   0   5  -6 529.087 72.0805   7
   0  -5   6 513.498 83.0594   3
   0   5  -6 396.339 48.6514   1
   0   5  -5 159.215 61.7382   7
   0  -5   5 226.566 73.6022   3
   0   5  -5 259.752 77.6241   6
   0  -5   5 268.273 98.2800   2
   0  -5   5 183.032 38.9630   4
   0   5  -5 132.636 32.2248   1
   0   5  -4 144.278 22.4893   1
   0  -5   4 137.610 89.9780   2
   0   5  -4 101.479 24.7362   1
   0   5  -4 157.154 69.6394   6
   0  -5   4 186.249 66.9583   3
   0   5  -4 166.104 63.2124   7
   0  -5   3 20966.9 394.649   2
   0   5  -3 20935.2 253.008   5
   0  -5   3 21011.2 337.341   3
   0  -5   2 3364.79 182.892   2
   0  -5   2 2945.78 133.672   3
   0   5  -2 3383.21 135.451   7
   0   5  -2 3077.45 96.7059   5
   0  -5   1 620.793 109.795   2
   0   5  -1 532.367 49.9001   5
   0   5  -1 490.866 21.5648   1
   0  -5   1 633.145 77.9042   3
   0   5  -1 675.050 79.8731   7
   0   5   0-7.74254 55.8975   7
   0  -5   0-23.8802 82.8291   2
   0   5   0 10.0302 19.3591   1
   0  -5  -1-55.2592 83.9996   2
   0   5   1 45.3022 29.0627   1
   0  -5  -1-0.22385 29.4182   1
   0  -5  -2 1390.71 70.6996   1
   0   5   2 1466.64 68.4646   1
   0  -5  -2 1489.62 131.714   2
   0  -5  -3 97.0651 46.6929   1
   0   5   3 67.7007 43.5536   1
   0  -5  -4 3742.66 193.155   2
   0  -5  -4 3576.93 121.338   1
   0   5   4 3809.86 130.038   1
   0  -5  -5 2171.66 119.572   6
   0  -5  -5 1826.96 98.2949   1
   0   5   5 2326.79 114.917   1
   0  -5  -5 2128.97 173.741   2
   0  -5  -6 4643.96 231.353   2
   0   5   6 4869.58 167.316   1
   0  -5  -6 5084.92 174.410   6
   0   5   7 8193.11 225.423   1
   0  -5  -7 8597.84 228.564   6
   0  -5  -8 200.388 68.3598   6
   0   5   8 331.533 87.5167   1
   0  -5  -8 467.093 131.715   2
   0  -5  -9 292.089 77.5651   6
   0  -5  -9 107.274 122.350   2
   0   5   9-24.9299 80.1833   1
   0  -5 -10 1149.31 169.208   2
   0   5  10 1317.61 131.130   1
   0  -5 -11 232.243 85.8897   6
   0  -5 -11 159.605 128.330   2
   0   5  11 339.368 105.532   1
   0  -5 -12-6.52865 120.666   2
   0  -5 -12 83.9912 82.4784   6
   0   5  12 91.2534 103.224   1
   0  -5 -13 2870.81 174.051   6
   0   5  13 2121.41 194.008   1
   0  -5 -13 2433.06 224.974   2
   0  -5 -14 501.981 157.206   2
   0   5  14 398.966 137.549   1
   0  -5 -14 728.042 117.520   6
   0  -6  15 234.777 124.860   3
   0   6 -15 252.778 145.534   6
   0  -6  14 96.7787 109.010   3
   0   6 -14 88.8111 134.049   6
   0   6 -13 380.173 129.690   6
   0  -6  13 189.513 106.092   3
   0   6 -12 257.175 124.548   6
   0  -6  12 488.447 116.051   3
   0  -6  11 168.834 96.7251   3
   0   6 -11 302.708 114.295   6
   0  -6  10 195.130 88.9400   3
   0   6 -10 41.5798 98.1026   6
   0  -6  10-103.541 124.054   2
   0   6 -10 89.1956 73.0330   7
   0   6  -9 458.824 108.889   6
   0  -6   9 411.181 133.417   2
   0  -6   9 458.195 96.9410   3
   0   6  -9 596.633 89.8558   7
   0   6  -8 2773.72 170.599   6
   0   6  -8 3397.02 152.564   7
   0  -6   8 2873.82 167.272   3
   0  -6   8 2244.37 195.675   2
   0   6  -7 164.347 92.6762   6
   0   6  -7 114.336 81.2646   7
   0  -6   7 89.7129 51.6132   4
   0   6  -7 32.2866 39.1090   1
   0  -6   7-44.7877 116.952   2
   0  -6   7 142.339 77.8970   3
   0   6  -6 184.575 76.8320   7
   0   6  -6 76.0183 30.4940   1
   0  -6   6 238.537 119.789   2
   0   6  -6 185.260 88.4952   6
   0  -6   6 321.736 83.6310   3
   0  -6   5 734.858 98.4697   3
   0  -6   5 856.544 145.161   2
   0   6  -5 911.105 117.917   6
   0   6  -5 877.141 95.2113   7
   0   6  -4 3498.77 151.387   7
   0  -6   4 3426.55 201.513   2
   0  -6   4 3188.00 156.039   3
   0  -6   3 2144.06 131.813   3
   0   6  -3 2175.92 132.396   7
   0   6  -2 1086.77 105.650   7
   0  -6   2 989.291 103.404   3
   0  -6   2 1156.37 142.670   2
   0   6  -1 7568.28 215.402   7
   0  -6   1 7597.16 231.252   3
   0  -6   1 7111.77 257.947   2
   0  -6   0-35.2182 96.1934   2
   0   6   0 21.2774 17.5269   1
   0  -6  -1 245.708 110.135   2
   0   6   1 96.3383 34.6244   1
   0   6   2 234.673 46.2693   1
   0  -6  -2 69.6977 105.099   2
   0  -6  -2 78.8673 45.4944   1
   0  -6  -3 471.778 59.4837   1
   0  -6  -3 657.641 130.102   2
   0   6   3 688.804 69.6087   1
   0  -6  -4 838.102 78.5505   1
   0   6   4 1034.00 82.9780   1
   0  -6  -4 1091.29 150.623   2
   0  -6  -4 1099.36 95.1665   6
   0  -6  -5 71.6848 69.7701   6
   0   6   5 231.021 69.5714   1
   0  -6  -6 41519.6 506.950   6
   0   6   6 40771.0 461.301   1
   0   6   7 6248.76 206.072   1
   0  -6  -7 6363.78 296.226   2
   0  -6  -7 6900.70 220.683   6
   0  -6  -8 3031.18 154.184   6
   0   6   8 2775.35 160.355   1
   0  -6  -9-140.051 139.873   2
   0  -6  -9-15.0813 71.4408   6
   0   6   9 145.447 92.6247   1
   0   6  10 133.210 95.1028   1
   0  -6 -10 204.390 147.056   2
   0  -6 -10 104.167 78.0474   6
   0  -6 -11 335.505 160.024   2
   0  -6 -11 182.771 87.3462   6
   0   6  11-7.78927 94.6355   1
   0  -6 -12 192.553 96.4212   6
   0   6  12 69.3109 111.773   1
   0  -6 -13 389.657 178.910   2
   0  -6 -13 568.569 117.704   6
   0   6  13 323.653 137.803   1
   0   7 -14 271.899 144.559   6
   0  -7  14 294.854 130.086   3
   0  -7  14 403.532 182.962   2
   0  -7  13 285.055 121.234   3
   0  -7  13 2.73871 155.990   2
   0   7 -13 110.650 126.060   6
   0  -7  12 267.996 117.799   3
   0   7 -12 236.179 127.717   6
   0  -7  12 178.693 162.979   2
   0  -7  11 520.709 168.369   2
   0  -7  11 599.837 124.820   3
   0   7 -11 601.650 139.960   6
   0   7 -10 975.146 147.052   6
   0  -7  10 1513.69 197.127   2
   0  -7  10 1287.41 139.828   3
   0  -7   9 2477.15 222.238   2
   0  -7   9 2461.63 174.529   3
   0   7  -9 2281.43 138.952   7
   0   7  -9 2096.07 183.589   6
   0  -7   8 3861.91 205.919   3
   0   7  -8 3492.64 213.496   6
   0  -7   8 3948.85 254.604   2
   0   7  -8 3834.85 167.242   7
   0  -7   7 415.343 140.115   2
   0  -7   7 460.353 103.465   3
   0   7  -7 376.305 92.7735   7
   0   7  -7 477.385 114.551   6
   0  -7   6-20.9457 126.615   2
   0  -7   6-4.41415 80.5686   3
   0   7  -6 15.3851 80.9483   7
   0  -7   5 180.296 83.8888   3
   0  -7   5 99.8282 137.648   2
   0   7  -5 131.551 82.8964   7
   0   7  -4 195.490 83.6329   7
   0  -7   4 137.010 125.681   2
   0  -7   4-38.5244 77.6733   3
   0  -7   3 415.325 92.6457   3
   0   7  -3 232.057 82.4324   7
   0  -7   3 446.747 143.153   2
   0  -7   2 141.690 109.157   3
   0  -7   2 237.363 124.571   2
   0  -7   1 4708.98 230.909   2
   0  -7   0 653.636 140.320   2
   0   7   1 280.569 29.6263   1
   0  -7  -1 453.665 130.167   2
   0  -7  -2 58.7702 121.334   2
   0   7   2 101.408 40.7027   1
   0   7   3 126.508 55.7029   1
   0  -7  -3 19.4175 116.877   2
   0  -7  -4 422.034 86.6329   6
   0  -7  -4 334.820 131.045   2
   0   7   4 181.701 66.8372   1
   0  -7  -5 252.795 146.275   2
   0   7   5 192.017 74.7664   1
   0  -7  -5 142.894 79.7990   6
   0   7   6 1287.10 117.268   1
   0  -7  -6 1504.93 122.713   6
   0  -7  -7 1412.35 189.770   2
   0   7   7 1681.88 132.735   1
   0  -7  -8 1293.72 187.327   2
   0   7   8 1520.08 137.392   1
   0   7   9 1983.63 158.026   1
   0  -7  -9 1502.41 204.422   2
   0  -7  -9 1906.16 139.916   6
   0  -7 -10 273.268 166.891   2
   0  -7 -10 323.018 99.5626   6
   0  -7 -11 202.429 160.997   2
   0   7  11 290.397 122.826   1
   0  -7 -11 131.067 97.5624   6
   0  -8  12 241.884 132.415   3
   0  -8  12 293.091 194.226   2
   0   8 -12 204.096 156.739   6
   0  -8  11 601.232 201.742   2
   0   8 -11 437.925 165.389   6
   0  -8  11 446.821 135.511   3
   0   8 -10 237.645 136.014   6
   0  -8  10 288.770 168.230   2
   0  -8  10 326.157 124.092   3
   0  -8   9 92.3766 102.273   3
   0   8  -9 168.628 123.921   6
   0  -8   9 110.610 159.808   2
   0  -8   8 306.981 158.167   2
   0  -8   8 116.541 102.644   3
   0  -8   7 182.741 155.755   2
   0  -8   7 254.556 100.611   3
   0  -8   6 415.971 103.763   3
   0  -8   6 666.282 171.167   2
   0  -8   5 42.9147 82.9894   3
   0  -8   5-113.713 134.838   2
   0  -8   4 514.051 114.464   3
   0  -8   4 349.460 150.293   2
   0  -8   3 547.256 117.527   3
   0  -8   3 372.309 144.978   2
   0  -8   2 1174.45 158.313   2
   0  -8   1 1152.76 163.829   2
   0  -8   0 22.5070 136.534   2
   0  -8  -1 1961.34 198.670   2
   0  -8  -2-74.2638 132.959   2
   0  -8  -3 205.124 137.559   2
   0  -8  -3 222.806 82.1347   6
   0  -8  -4 480.720 100.404   6
   0  -8  -4 90.9911 141.546   2
   0  -8  -5 69.0458 156.022   2
   0  -8  -5 463.200 101.295   6
   0  -8  -6 459.353 100.483   6
   0  -8  -6 561.546 180.202   2
   0  -8  -7 33.9440 155.520   2
   0  -8  -7 182.623 92.9985   6
   0  -8  -8 7344.89 376.871   2
   0  -8  -8 8963.81 286.703   6
   0  -8  -9 1648.55 147.898   6
   0  -9   9 410.966 195.835   2
   0  -9   9 278.275 126.265   3
   0  -9   8 814.750 214.584   2
   0  -9   8 686.854 139.899   3
   0  -9   7 546.175 177.795   2
   0  -9   7 603.037 126.188   3
   0  -9   6 2658.39 257.448   2
   0  -9   6 2184.84 183.525   3
   0  -9   5 643.073 132.480   3
   0  -9   5 623.890 171.044   2
   0  -9   4 220.354 115.498   3
   0  -9   4 139.265 150.877   2
   0  -9   3 406.304 149.156   2
   0  -9   2 14.2499 148.428   2
   0  -9   1 338.570 153.538   2
   0  -9   0 276.834 166.593   2
   0  -9  -1 1421.19 201.959   2
   0  -9  -2 28.6658 144.445   2
   0  -9  -3 329.422 104.537   6
   0  -9  -3 381.951 164.431   2
   0  -9  -4 452.215 183.400   2
   0  -9  -4 170.113 100.577   6
   0  -9  -5 156.390 101.172   6
   0  -9  -5 425.982 192.261   2
   1 -10  -3 328.126 114.815   6
   1 -10  -3 439.392 183.815   2
   1 -10  -2 3621.07 199.045   6
   1 -10  -2 3460.69 278.901   2
   1 -10  -1 1639.42 225.669   2
   1 -10   0 98.9256 161.313   2
   1 -10   1 275.625 170.621   2
   1 -10   2 1220.78 202.026   2
   1 -10   3 774.051 191.229   2
   1 -10   4 1492.58 215.240   2
   1 -10   5 318.456 135.459   3
   1 -10   5 288.102 195.821   2
   1 -10   6 419.216 140.359   3
   1 -10   6 698.248 205.219   2
   1  -9  -7 173.631 97.9233   6
   1  -9  -7 301.550 188.466   2
   1  -9  -6 494.723 179.924   2
   1  -9  -6 464.162 105.879   6
   1  -9  -5 247.207 95.1093   6
   1  -9  -5 42.5024 150.651   2
   1  -9  -4 617.366 108.866   6
   1  -9  -4 792.797 164.650   2
   1  -9  -3 64.5172 142.173   2
   1  -9  -3 266.756 91.8897   6
   1  -9  -2 1263.40 191.084   2
   1  -9  -1 3385.48 253.488   2
   1  -9   0 1084.96 187.945   2
   1  -9   1 50.0669 136.097   2
   1  -9   2-79.0284 140.323   2
   1  -9   3 307.059 120.240   3
   1  -9   3 189.174 147.433   2
   1  -9   4 4172.87 276.575   2
   1  -9   4 3739.65 208.219   3
   1  -9   5 2890.66 191.450   3
   1  -9   5 3116.98 253.467   2
   1  -9   6 2680.57 253.671   2
   1  -9   6 2626.86 178.661   3
   1  -9   7 1083.88 200.782   2
   1  -9   7 510.794 123.013   3
   1  -9   8 888.409 140.006   3
   1  -9   8 1242.97 207.503   2
   1  -9   9 266.658 124.115   3
   1  -9   9 262.753 185.333   2
  -1   9 -10 172.362 140.264   6
   1  -9  10 127.901 128.197   3
   1  -9  10 270.675 189.916   2
   1  -8 -10 256.360 100.912   6
   1  -8 -10 267.622 172.499   2
   1  -8  -9 666.617 188.823   2
   1  -8  -9 1019.70 121.021   6
   1  -8  -8 15354.2 344.280   6
   1  -8  -8 12457.2 458.636   2
   1  -8  -7 9279.64 270.432   6
   1  -8  -7 8415.91 378.644   2
   1  -8  -6 303.100 86.1108   6
   1  -8  -6 427.740 158.402   2
   1  -8  -5-99.2943 131.178   2
   1  -8  -5 159.609 81.4763   6
   1  -8  -4 345.096 86.6050   6
   1  -8  -4 260.885 141.997   2
   1  -8  -3 1528.89 118.316   6
   1  -8  -3 1525.73 182.594   2
   1  -8  -2 146.086 131.377   2
   1  -8  -1 548.523 143.021   2
   1  -8   0 5926.90 273.571   2
   1  -8   1 5213.45 263.491   2
   1  -8   2 575.359 129.271   3
   1  -8   2 421.837 156.493   2
   1  -8   3 159.002 136.016   2
   1  -8   3 83.2041 87.0219   3
   1  -8   4 1852.88 198.922   2
   1  -8   4 1396.66 129.758   3
   1  -8   5-86.5319 78.7536   3
   1  -8   5 144.063 145.847   2
   1  -8   6 2429.29 222.468   2
   1  -8   6 2407.25 158.443   3
   1  -8   7 941.201 173.349   2
   1  -8   7 677.335 117.357   3
  -1   8  -8 880.796 137.896   6
   1  -8   8 811.342 125.499   3
  -1   8  -9 439.923 133.650   6
   1  -8   9 493.918 183.280   2
   1  -8   9 370.930 117.935   3
   1  -8  10 111.204 105.074   3
  -1   8 -10 114.098 124.920   6
   1  -8  10 220.605 170.779   2
   1  -8  11 386.814 122.982   3
   1  -8  11 518.874 184.111   2
  -1   8 -11 462.015 142.986   6
  -1   8 -12 67.8797 134.246   6
   1  -8  12 300.583 187.490   2
   1  -8  12 196.753 123.947   3
   1  -7 -12 209.897 148.453   2
   1  -7 -12 306.659 105.228   6
  -1   7  12 354.287 125.329   1
  -1   7  11 181.551 109.940   1
   1  -7 -11 425.273 151.894   2
   1  -7 -11 136.099 88.0685   6
   1  -7 -10 255.679 92.0188   6
  -1   7  10 166.839 98.6159   1
   1  -7  -9 117.048 76.4941   6
  -1   7   9 275.368 95.8336   1
   1  -7  -8 95.2686 143.113   2
  -1   7   8 235.755 88.1948   1
   1  -7  -8 122.109 74.0266   6
   1  -7  -7 446.557 86.9878   6
   1  -7  -7 413.423 148.756   2
  -1   7   7 234.053 82.3409   1
   1  -7  -6 305.046 139.738   2
   1  -7  -6 452.909 85.6931   6
   1  -7  -5 147.202 72.0168   6
   1  -7  -5 126.116 122.293   2
   1  -7  -4 2179.31 193.979   2
   1  -7  -4 2521.99 135.297   6
   1  -7  -3-65.2384 113.173   2
   1  -7  -2 1255.59 155.642   2
   1  -7  -1 1302.66 150.538   2
   1  -7   0 1393.43 160.082   2
   1  -7   1 7961.24 308.535   2
   1  -7   2 3128.96 203.928   2
   1  -7   2 2971.25 161.576   3
   1  -7   3 70.2889 119.111   2
   1  -7   3-1.60820 68.0228   3
   1  -7   4 856.340 103.475   3
   1  -7   4 994.338 157.119   2
   1  -7   5 712.276 107.205   3
   1  -7   5 749.868 147.902   2
  -1   7  -6 8385.35 260.193   6
   1  -7   6 8555.92 260.810   3
   1  -7   6 8779.51 344.419   2
   1  -7   7 3667.42 187.221   3
   1  -7   7 3650.83 240.170   2
  -1   7  -7 3579.27 192.969   6
   1  -7   8 1212.39 127.135   3
  -1   7  -8 1153.47 133.422   6
   1  -7   8 1081.66 176.251   2
   1  -7   9 823.159 116.351   3
  -1   7  -9 731.744 126.271   6
   1  -7   9 667.325 152.908   2
  -1   7 -10 1023.95 137.700   6
   1  -7  10 1112.20 130.815   3
   1  -7  11-44.6262 138.512   2
   1  -7  11 125.488 95.6808   3
  -1   7 -11 186.299 116.822   6
   1  -7  12 261.291 111.017   3
  -1   7 -12 187.840 117.182   6
  -1   7 -13 408.457 140.124   6
   1  -7  13 299.730 124.025   3
  -1   7 -14 368.285 148.757   6
   1  -7  14 228.092 131.373   3
   1  -6 -14 278.169 108.181   6
   1  -6 -14 414.238 167.632   2
  -1   6  14 215.688 125.567   1
  -1   6  13 483.908 133.319   1
   1  -6 -13 937.871 182.382   2
   1  -6 -13 846.350 117.003   6
   1  -6 -12 255.299 138.950   2
   1  -6 -12 114.572 84.0723   6
  -1   6  12 138.754 101.987   1
   1  -6 -11 293.127 89.5853   6
  -1   6  11 56.8133 90.2349   1
   1  -6 -11 108.184 119.677   2
   1  -6 -10 234.166 123.505   2
   1  -6 -10 206.945 74.9543   6
  -1   6  10 177.866 95.1612   1
   1  -6  -9 866.730 98.2478   6
  -1   6   9 752.001 110.811   1
   1  -6  -8 951.395 97.6718   6
   1  -6  -8 894.378 145.145   2
  -1   6   8 914.171 106.776   1
   1  -6  -7 130.065 64.7246   6
  -1   6   7 230.576 79.5092   1
   1  -6  -7 266.519 128.317   2
   1  -6  -6 31541.9 556.802   2
  -1   6   6 31512.1 395.074   1
   1  -6  -6 32580.5 415.050   6
   1  -6  -5 27875.0 371.832   6
   1  -6  -5 26719.4 490.997   2
  -1   6   5 26902.3 337.478   1
   1  -6  -4 1200.66 95.4707   6
   1  -6  -4 1178.48 143.119   2
   1  -6  -3 651.450 52.1195   1
   1  -6  -3 1018.76 135.467   2
   1  -6  -2 836.189 45.9080   1
   1  -6  -2 1185.79 132.140   2
   1  -6  -1 4173.83 200.435   2
   1  -6   0 219.404 114.148   2
   1  -6   1 1713.13 154.387   2
   1  -6   1 1713.97 114.400   3
   1  -6   2 8444.28 284.376   2
   1  -6   2 7859.50 205.703   3
   1  -6   3 13440.0 352.996   2
   1  -6   3 12015.3 256.872   3
   1  -6   4 3264.19 202.998   2
  -1   6  -4 3175.69 148.458   6
   1  -6   4 3093.43 146.160   3
   1  -6   5 544.777 128.906   2
   1  -6   5 442.835 88.7814   3
  -1   6  -5 545.173 93.0880   6
   1  -6   6 1038.24 101.409   3
  -1   6  -6 1046.96 107.163   6
   1  -6   6 1041.07 148.310   2
  -1   6  -7 273.204 88.5016   6
   1  -6   7 172.591 111.332   2
  -1   6  -7 162.295 42.3684   1
   1  -6   7 180.222 83.0560   3
  -1   6  -8 2693.80 156.261   6
   1  -6   8 2627.62 152.597   3
   1  -6   8 2567.33 197.363   2
  -1   6  -9 1783.99 144.559   6
   1  -6   9 1803.33 143.388   3
  -1   6 -10 1125.68 134.160   6
   1  -6  10 1236.73 127.824   3
   1  -6  11 195.689 91.5370   3
  -1   6 -11 269.715 106.745   6
  -1   6 -12 26.1048 107.246   6
   1  -6  12 9.72255 89.0359   3
  -1   6 -13 341.837 128.866   6
   1  -6  13 198.508 107.132   3
  -1   6 -14 21.4922 121.610   6
   1  -6  14 189.530 113.673   3
  -1   6 -15 732.224 171.272   6
   1  -6  15 699.138 145.509   3
   1  -5 -15 133.644 103.622   6
   1  -5 -15 260.944 149.565   2
  -1   5  15 134.709 119.326   1
   1  -5 -14 374.981 103.333   6
   1  -5 -14 441.663 152.222   2
  -1   5  14 387.553 122.867   1
   1  -5 -13 1751.75 196.031   2
  -1   5  13 1991.40 170.760   1
   1  -5 -13 2206.80 154.145   6
  -1   5  12 725.963 124.307   1
   1  -5 -12 813.729 103.467   6
   1  -5 -12 433.165 135.081   2
   1  -5 -11 107.972 70.1861   6
   1  -5 -11 229.450 127.526   2
  -1   5  11-22.6515 84.7737   1
   1  -5 -10 339.792 82.3060   6
   1  -5 -10 224.840 118.159   2
  -1   5  10 86.0132 82.8190   1
  -1   5   9-27.0457 80.0613   1
   1  -5  -9-55.5096 63.7879   6
   1  -5  -9 113.536 107.456   2
  -1   5   8 134.248 80.8605   1
   1  -5  -8 30.8468 60.1963   6
   1  -5  -7 100.956 59.8000   6
   1  -5  -7 21.0569 108.672   2
  -1   5   7-24.8486 70.8286   1
   1  -5  -6 76.8937 52.3307   1
   1  -5  -6 94.3916 96.1998   2
   1  -5  -6-9.68588 59.1445   6
  -1   5   6-81.5751 62.3849   1
   1  -5  -5 757.196 66.3847   1
   1  -5  -5 676.710 105.385   2
   1  -5  -5 899.262 81.0700   6
  -1   5   5 708.804 77.4300   1
   1  -5  -4 736.779 74.4550   6
  -1   5   4 612.590 63.7940   1
   1  -5  -4 635.063 110.880   2
   1  -5  -4 739.778 59.7295   1
   1  -5  -3 1860.72 141.608   2
   1  -5  -3 1660.53 68.8516   1
  -1   5   2 11618.4 234.787   3
   1  -5  -2 11781.0 144.018   1
   1  -5  -2 11422.7 282.095   2
   1  -5  -1 306.840 58.3591   6
   1  -5  -1 205.819 21.5120   1
  -1   5   1 352.288 64.2126   3
   1  -5  -1 306.276 94.7115   2
   1  -5   0 2251.67 103.813   6
  -1   5   0 2325.56 109.476   3
   1  -5   0 2105.26 101.362   7
   1  -5   0 2155.60 106.909   3
   1  -5   0 2158.98 142.943   2
   1  -5   1 3158.58 116.047   6
   1  -5   1 3016.10 166.021   2
   1  -5   1 3255.71 121.937   7
   1  -5   1 3122.77 122.160   3
  -1   5  -1 3109.83 121.297   3
   1  -5   2 975.078 74.6320   6
   1  -5   2 858.577 71.5651   7
  -1   5  -2 1019.25 81.5506   3
   1  -5   2 928.333 77.2132   3
   1  -5   2 968.970 117.378   2
  -1   5  -3 15804.2 265.701   6
   1  -5   3 15281.3 348.284   2
   1  -5   3 16046.9 271.079   3
  -1   5  -3 15474.0 264.914   3
   1  -5   3 16074.0 252.794   6
  -1   5  -4 5725.25 169.009   6
   1  -5   4 5764.23 169.226   3
   1  -5   4 5466.11 219.260   2
  -1   5  -5 35.3548 26.9209   1
  -1   5  -5 97.5192 63.8327   6
   1  -5   5-23.9069 86.7834   2
   1  -5   5-18.8436 53.1645   3
  -1   5  -6 4797.16 168.395   6
  -1   5  -6 4800.61 113.912   1
   1  -5   6 4665.44 174.300   3
   1  -5   7 600.786 85.8509   3
  -1   5  -7 682.023 93.8611   6
   1  -5   8 10786.3 213.972   1
  -1   5  -8 10570.5 206.312   1
   1  -5   8 12055.1 291.913   3
  -1   5  -8 11609.7 274.544   6
  -1   5  -9 2106.36 138.859   6
   1  -5   9 1786.29 108.080   1
   1  -5   9 1929.74 136.111   3
   1  -5  10 215.501 72.9195   1
  -1   5 -10 233.967 92.9699   6
   1  -5  10 164.084 86.7266   3
  -1   5 -11 703.262 112.319   6
   1  -5  11 578.082 94.8577   1
   1  -5  11 579.498 103.806   3
   1  -5  12 730.949 102.315   1
  -1   5 -12 960.634 127.952   6
   1  -5  12 843.462 121.061   3
   1  -5  13 138.856 82.7244   1
  -1   5 -13 129.446 101.257   6
  -1   5 -14 210.170 121.362   6
   1  -5  14 220.548 109.200   3
   1  -5  14 207.794 93.0529   1
   1  -5  15 46.3517 93.2195   1
  -1   5 -15 19.2521 114.578   6
   1  -5  15 188.093 113.384   3
  -1   5 -16 116.122 141.912   6
   1  -5  16 176.084 127.442   3
   1  -5  16 163.061 110.844   1
   1  -4 -16 175.378 104.728   6
   1  -4 -16 398.173 156.138   2
  -1   4  16 32.5326 124.818   1
   1  -4 -15 107.443 86.0317   6
   1  -4 -15 375.845 147.049   2
  -1   4  15 165.724 115.932   1
   1  -4 -14 376.449 131.760   2
   1  -4 -14 297.855 94.5141   6
  -1   4  14 304.442 114.974   1
   1  -4 -13 86.5426 79.9426   6
  -1   4  13 74.2070 95.6942   1
   1  -4 -13 137.441 117.725   2
  -1   4  12 17.8164 83.3783   1
   1  -4 -12 89.6273 74.3490   6
  -1   4  11 1679.48 148.325   1
   1  -4 -11 1588.57 165.173   2
   1  -4 -11 1963.73 125.014   6
  -1   4  10-10.1456 81.5511   1
   1  -4 -10-36.3794 64.4746   6
   1  -4 -10 91.9613 97.4883   2
   1  -4  -9 229.465 101.254   2
  -1   4   9 264.258 85.3466   1
  -1   4   8 1121.35 109.730   1
   1  -4  -8 1332.54 92.4193   6
   1  -4  -8 1375.88 131.932   2
  -1   4   7 2186.17 126.689   1
   1  -4  -7 2373.58 111.318   6
   1  -4  -7 2262.52 161.082   2
  -1   4   6 1697.41 103.921   1
   1  -4  -6 1427.96 86.1124   1
   1  -4  -6 1557.68 88.5530   6
   1  -4  -6 1638.47 133.711   2
   1  -4  -5 1364.69 80.4469   1
  -1   4   5 1476.11 90.7257   1
   1  -4  -5 1366.54 86.0272   6
   1  -4  -5 1235.71 114.298   2
   1  -4  -4 60009.5 440.924   6
   1  -4  -4 60778.1 411.728   1
  -1   4   4 61473.4 435.823   1
  -1   4   3 74477.5 554.307   3
   1  -4  -3 76468.0 404.512   1
   1  -4  -3 74829.2 470.786   6
   1  -4  -3 73757.9 662.151   2
  -1   4   3 76167.2 433.284   1
   1  -4  -3 74610.3 545.158   7
  -1   4   2 4634.35 139.217   3
   1  -4  -2 4434.68 170.336   2
   1  -4  -2 4866.74 93.4647   1
   1  -4  -2 4833.18 143.635   7
  -1   4   1 6399.57 216.516   2
   1  -4  -1 5846.16 150.519   7
   1  -4  -1 5041.31 75.6170   1
  -1   4   1 5359.89 141.633   3
   1  -4  -1 5702.93 196.716   2
   1  -4   0 2785.48 106.872   3
   1  -4   0 3238.89 163.688   2
  -1   4   0 3048.48 147.549   2
   1  -4   0 2956.25 114.339   7
   1  -4   0 2857.95 105.108   6
  -1   4   0 2924.34 108.916   3
   1  -4   1 11014.4 186.024   6
  -1   4  -1 11048.8 191.472   3
   1  -4   1 10755.7 186.830   3
   1  -4   1 10999.7 181.344   7
   1  -4   1 10975.9 255.281   2
   1  -4   2 35.1084 87.8039   2
   1  -4   2 33.2325 46.5371   7
  -1   4  -2-17.5455 53.8873   3
  -1   4  -2 56.1722 57.8361   6
   1  -4   2 14.8505 57.3078   3
   1  -4   2-16.2322 50.0114   6
  -1   4  -3 2469.09 55.6738   1
   1  -4   3 2872.11 93.6886   7
  -1   4  -3 2935.84 112.497   3
   1  -4   3 2553.31 145.201   2
   1  -4   3 2952.76 114.146   3
   1  -4   3 2960.05 105.518   6
   1  -4   3 2637.71 54.3282   1
  -1   4  -3 2851.09 111.420   6
   1  -4   4 8522.90 174.495   6
  -1   4  -4 8127.45 182.497   6
   1  -4   4 8393.58 188.264   3
  -1   4  -4 8034.42 186.609   3
  -1   4  -4 8504.15 116.483   1
   1  -4   4 8309.92 122.632   1
  -1   4  -5 20791.5 295.709   6
  -1   4  -5 20822.8 215.212   1
   1  -4   5 20435.8 302.259   3
   1  -4   5 21091.4 281.809   6
   1  -4   5 20194.9 223.359   1
  -1   4  -6 9399.73 211.901   6
  -1   4  -6 9137.32 160.582   1
   1  -4   6 8764.64 211.992   3
   1  -4   6 8806.40 170.065   1
  -1   4  -7 3171.87 134.393   6
  -1   4  -7 2865.83 103.831   1
   1  -4   7 3028.11 139.522   3
   1  -4   7 2877.23 117.235   1
  -1   4  -8 357.593 81.1733   6
  -1   4  -8 358.410 58.5578   1
   1  -4   8 290.918 59.5301   1
  -1   4  -8 279.956 27.3556   7
   1  -4   8 281.541 75.0093   3
   1  -4   9 325.573 70.1739   1
   1  -4   9 441.974 90.7915   3
  -1   4  -9 445.304 86.8142   6
  -1   4  -9 183.383 20.0314   7
   1  -4  10 1509.45 128.663   3
   1  -4  10 1508.26 109.340   1
  -1   4 -10 1652.10 127.340   6
   1  -4  11 2591.17 158.713   3
   1  -4  11 2721.35 150.738   1
  -1   4 -11 2752.70 157.246   6
  -1   4 -12 964.920 120.153   6
   1  -4  12 898.075 120.204   3
   1  -4  12 852.108 110.344   1
   1  -4  13 159.534 85.3183   1
  -1   4 -13 101.277 97.6882   6
   1  -4  13 164.834 90.7481   3
   1  -4  14 161.626 97.4928   3
   1  -4  14 55.1074 83.3177   1
  -1   4 -14 0.27524 102.496   6
  -1   4 -15 101.119 112.386   6
   1  -4  15 201.323 96.2799   1
   1  -4  15 189.640 107.939   3
   1  -4  16 164.853 102.647   1
  -1   4 -16 11.6270 122.766   6
   1  -4  16 409.265 128.060   3
  -1   4 -17 458.780 149.246   6
   1  -4  17 333.920 121.142   1
   1  -4  17 730.461 151.100   3
   1  -3 -17 81.9527 107.894   6
  -1   3  17 178.289 123.230   1
   1  -3 -17 316.529 161.029   2
  -1   3  16 276.297 121.190   1
   1  -3 -16 474.187 149.137   2
   1  -3 -16 94.5366 98.7813   6
   1  -3 -15 318.205 97.8860   6
   1  -3 -15 315.479 131.049   2
  -1   3  15 85.8053 104.234   1
  -1   3  14 276.282 112.041   1
   1  -3 -14 385.180 92.5138   6
   1  -3 -14 180.885 116.737   2
   1  -3 -13 148.904 76.2273   6
   1  -3 -13 108.087 104.228   2
  -1   3  13 132.975 98.2258   1
   1  -3 -12 1942.80 168.825   2
  -1   3  12 1727.91 153.772   1
   1  -3 -12 2145.88 135.525   6
   1  -3 -11 3100.49 147.542   6
   1  -3 -11 2772.43 194.400   2
  -1   3  11 2748.98 170.419   1
   1  -3 -10 1489.15 105.301   6
   1  -3 -10 1154.83 140.268   2
  -1   3  10 1088.66 114.585   1
   1  -3  -9 326.695 65.3123   6
   1  -3  -9 193.547 93.2673   2
  -1   3   8 405.814 78.3934   1
   1  -3  -8 534.673 68.9770   6
   1  -3  -8 396.335 97.0789   2
   1  -3  -7 361.516 62.1278   6
   1  -3  -7 241.057 84.3735   2
  -1   3   7 375.531 70.4244   1
   1  -3  -6 675.395 66.9597   6
  -1   3   6 618.490 76.8098   1
   1  -3  -6 778.905 108.894   2
   1  -3  -6 595.696 68.1888   1
  -1   3   6 631.168 71.9671   6
   1  -3  -5 3386.54 115.966   1
  -1   3   5 3611.59 158.563   2
   1  -3  -5 3520.27 114.873   6
   1  -3  -5 3579.57 161.688   2
  -1   3   5 3521.55 129.154   1
   1  -3  -4 127.055 51.6445   6
   1  -3  -4 198.969 87.8008   2
   1  -3  -4 134.740 51.0757   1
  -1   3   4 217.380 94.5181   2
  -1   3   4 115.258 54.2178   1
   1  -3  -3 4953.50 107.051   1
  -1   3   3 4711.20 173.111   2
   1  -3  -3 4887.74 165.282   2
  -1   3   3 4534.85 112.904   1
   1  -3  -3 5057.50 113.195   6
  -1   3   2-17.1053 43.2114   3
   1  -3  -2-13.5640 62.1310   2
   1  -3  -2-5.56273 30.9074   1
   1  -3  -1 6791.95 177.339   2
   1  -3  -1 6882.29 85.5776   1
  -1   3   1 6346.94 125.442   3
  -1   3   1 6486.12 178.499   2
  -1   3   0 46838.7 317.428   3
   1  -3   0 45637.2 443.474   2
  -1   3   0 49778.7 446.043   2
   1  -3   0 49999.8 327.624   7
   1  -3   0 47159.4 318.676   3
   1  -3   0 48228.2 318.286   6
   1  -3   1 1137.18 59.6587   3
  -1   3  -1 1216.17 62.3219   3
  -1   3  -1 1014.96 57.0985   6
   1  -3   1 1392.94 60.2491   7
   1  -3   1 1192.59 91.9287   2
   1  -3   1 1292.63 61.0317   6
  -1   3  -2 1998.53 47.6510   1
   1  -3   2 2365.15 79.9657   6
  -1   3  -2 1917.04 74.4131   6
  -1   3  -2 2038.65 79.9497   3
   1  -3   2 2127.51 80.4645   3
   1  -3   2 2223.37 112.769   2
   1  -3   2 2166.74 44.8351   1
   1  -3   2 2119.54 64.3876   7
  -1   3  -3 4917.41 125.434   3
  -1   3  -3 4600.72 117.340   6
   1  -3   3 4743.54 114.062   6
   1  -3   3 5031.00 87.1653   1
   1  -3   3 4768.04 114.238   5
   1  -3   3 4892.62 124.754   3
  -1   3  -3 4847.48 84.6309   1
   1  -3   4 43.9976 48.5339   6
  -1   3  -4 95.2138 54.6944   6
  -1   3  -4 81.8958 42.1942   1
   1  -3   4 90.6682 42.8210   1
   1  -3   4 126.898 62.5524   5
   1  -3   4 88.0740 55.9833   3
  -1   3  -5 18800.9 252.410   6
   1  -3   5 18176.8 222.621   1
  -1   3  -5 18657.5 212.862   1
   1  -3   5 19720.5 245.319   6
   1  -3   5 19095.1 273.979   3
   1  -3   5 19173.5 254.315   5
   1  -3   6 5077.20 148.136   5
   1  -3   6 4709.31 151.020   3
  -1   3  -6 4958.74 145.877   6
   1  -3   6 4436.97 129.921   1
   1  -3   6 5005.84 138.263   6
  -1   3  -6 4568.44 128.283   1
  -1   3  -7 829.215 70.6955   1
  -1   3  -7 863.104 82.4239   6
   1  -3   7 996.138 90.6707   3
   1  -3   7 834.563 83.0419   5
   1  -3   7 704.272 73.2155   1
  -1   3  -8 9412.65 222.807   6
   1  -3   8 9587.31 215.159   1
  -1   3  -8 9862.48 206.009   1
   1  -3   8 9667.27 242.709   3
   1  -3   8 9460.40 219.141   5
  -1   3  -9-40.2213 64.9146   6
   1  -3   9-44.9637 57.8453   1
  -1   3 -10 7382.81 223.513   6
   1  -3  10 7346.90 209.940   1
   1  -3  11 295.740 78.9372   1
  -1   3 -11 136.348 16.6526   7
  -1   3 -11 330.543 94.5096   6
  -1   3 -12 96.0419 89.3801   6
   1  -3  12-85.0349 74.3653   1
  -1   3 -13 195.431 98.8822   6
   1  -3  13 318.096 88.8726   1
  -1   3 -14 704.248 126.504   6
   1  -3  14 553.386 102.820   1
  -1   3 -15 144.309 116.018   6
   1  -3  15 182.138 94.1533   1
  -1   3 -16 361.694 133.765   6
   1  -3  16 309.992 119.939   3
   1  -3  16 224.155 100.656   1
   1  -3  17 232.618 126.062   3
   1  -3  17 197.479 110.259   1
  -1   3 -17 152.411 137.071   6
   1  -2 -18 264.090 171.263   2
  -1   2  17 341.574 134.966   1
   1  -2 -17 257.208 142.946   2
   1  -2 -17 299.134 115.904   6
   1  -2 -16 228.048 140.169   2
   1  -2 -16 313.545 102.191   6
  -1   2  16 188.663 115.457   1
   1  -2 -15 54.4094 86.9464   6
  -1   2  15 128.667 100.289   1
   1  -2 -15 233.663 127.646   2
   1  -2 -14 303.217 89.7551   6
   1  -2 -14 262.701 120.633   2
  -1   2  14 253.368 100.620   1
   1  -2 -13 105.133 72.9471   6
   1  -2 -13 54.8104 104.620   2
  -1   2  13 100.585 84.5422   1
   1  -2 -12 1088.74 142.147   2
   1  -2 -12 1167.01 106.887   6
  -1   2  11 263.141 89.4115   1
   1  -2 -11 475.812 83.6456   6
   1  -2 -11 188.460 96.7744   2
  -1   2  10 1649.12 128.341   1
   1  -2 -10 1375.12 140.050   2
  -1   2   9 4733.98 180.627   1
   1  -2  -9 4860.46 201.064   2
   1  -2  -9 4566.45 154.356   6
   1  -2  -8 99.3549 52.9250   6
  -1   2   8 51.7591 59.9081   1
   1  -2  -8 72.6243 78.5136   2
  -1   2   7 1558.03 115.574   2
  -1   2   7 1314.72 102.264   1
  -1   2   7 1242.76 85.0973   6
   1  -2  -7 1200.67 90.7199   1
   1  -2  -7 1416.62 86.1853   6
   1  -2  -7 1402.71 121.328   2
  -1   2   6 2706.83 123.726   1
   1  -2  -6 2928.98 146.015   2
   1  -2  -6 2719.00 112.606   1
  -1   2   6 2673.80 109.869   6
   1  -2  -6 2840.95 102.860   6
   1  -2  -5 6591.31 136.071   6
  -1   2   5 5912.14 153.115   1
  -1   2   5 6312.94 139.198   6
   1  -2  -5 6237.26 118.979   5
   1  -2  -5 6648.39 189.282   2
  -1   2   5 7099.56 190.441   2
   1  -2  -5 6216.73 146.438   1
   1  -2  -4 360.772 43.5406   6
  -1   2   4 299.558 44.7706   6
   1  -2  -4 247.114 67.6567   2
  -1   2   4 285.266 50.4801   1
   1  -2  -4 257.585 44.8403   1
  -1   2   4 277.616 72.0309   2
  -1   2   3 18088.9 205.214   1
  -1   2   3 18499.2 182.341   6
   1  -2  -3 17854.4 172.964   6
  -1   2   3 17768.7 252.546   2
   1  -2  -3 18259.5 253.854   2
  -1   2   2 84917.5 517.402   2
   1  -2  -2 86685.5 372.495   1
  -1   2   1 161727. 676.946   2
   1  -2  -1 156519. 673.935   2
   1  -2   0 16363.5 130.373   3
   1  -2   0 16578.3 129.250   6
  -1   2   0 16471.2 132.083   3
   1  -2   1 15474.1 139.863   3
  -1   2  -1 15854.6 129.556   1
  -1   2  -1 15436.0 136.081   6
   1  -2   1 16139.5 134.083   6
   1  -2   1 15979.2 119.482   1
  -1   2  -1 16057.3 140.031   3
   1  -2   2 3196.50 62.9972   1
   1  -2   2 3233.40 71.4142   6
  -1   2  -2 3278.83 75.1409   6
   1  -2   2 3082.31 78.8391   3
  -1   2  -2 3319.11 69.4050   1
   1  -2   3 17198.3 171.035   1
   1  -2   3 17446.6 179.957   6
  -1   2  -4 210.790 40.7584   1
   1  -2   4 168.854 40.4939   1
  -1   2  -4 186.403 43.8730   6
   1  -2   4 185.245 40.9016   6
  -1   2  -5 2354.69 94.1811   6
   1  -2   5 2201.13 92.0534   1
   1  -2   5 2247.23 85.8204   6
  -1   2  -5 2067.80 85.1634   1
  -1   2  -6 5037.09 135.570   1
   1  -2   6 5163.62 178.025   2
  -1   2  -6 5109.20 141.362   6
   1  -2   6 5038.18 140.273   1
   1  -2   6 4841.69 129.002   6
   1  -2   7 9326.85 196.565   1
   1  -2   7 9020.48 183.878   6
   1  -2   7 9441.28 238.922   2
  -1   2  -7 8894.28 197.159   1
  -1   2  -7 9253.90 195.867   6
   1  -2   8 9944.91 219.110   5
  -1   2  -8 9579.06 212.357   6
   1  -2   8 9593.21 214.237   1
  -1   2  -9 4816.75 165.081   6
   1  -2   9 4933.94 168.959   5
   1  -2   9 5007.50 168.751   1
   1  -2  10 574.509 87.0235   1
  -1   2 -10 414.523 81.9534   6
   1  -2  10 509.657 90.2001   5
  -1   2 -10 387.269 37.3511   7
   1  -2  11 154.371 75.6666   1
  -1   2 -11 36.3099 74.4966   6
  -1   2 -11 16.0613 33.1660   7
  -1   2 -12 795.144 110.442   6
  -1   2 -12 626.494 52.7188   7
   1  -2  12 900.756 105.755   1
   1  -2  13 2369.65 159.272   1
  -1   2 -13 2704.06 165.034   6
  -1   2 -14 458.832 113.336   6
   1  -2  14 540.572 105.301   1
   1  -2  15 40.8839 82.1538   1
  -1   2 -15-75.5826 101.632   6
   1  -2  16 106.551 96.1454   1
  -1   2 -16 60.3286 111.888   6
  -1   2 -17 63.7360 122.324   6
   1  -2  17 156.550 107.173   1
  -1   1  18 286.932 124.256   1
   1  -1 -18 354.958 171.732   2
   1  -1 -18 174.494 116.228   6
   1  -1 -17 203.634 107.157   6
   1  -1 -17 371.779 152.768   2
  -1   1  17 241.238 114.348   1
   1  -1 -16 3643.44 250.121   2
   1  -1 -16 3849.47 212.382   6
  -1   1  16 3649.01 222.587   1
  -1   1  15 94.6557 86.2104   1
   1  -1 -15 438.615 101.366   6
   1  -1 -15 197.241 129.567   2
   1  -1 -14 176.428 116.732   2
  -1   1  14-38.9394 81.1694   1
   1  -1 -14 131.228 82.3490   6
   1  -1 -13 174.742 109.526   2
   1  -1 -13 138.246 77.2033   6
  -1   1  13-9.35079 77.5349   1
  -1   1  12 922.729 116.109   1
   1  -1 -12 1233.17 110.046   6
   1  -1 -12 1023.22 131.551   2
  -1   1  11 1110.95 116.312   1
   1  -1 -11 1259.84 134.882   2
   1  -1 -10 5236.36 203.894   2
  -1   1  10 4691.97 183.949   1
   1  -1 -10 4868.97 169.249   6
   1  -1  -9 2598.32 144.454   2
   1  -1  -9 2741.99 124.664   6
  -1   1   9 2733.77 138.557   1
   1  -1  -8 707.763 75.6924   6
  -1   1   8 880.865 106.150   2
   1  -1  -8 822.562 82.9219   5
  -1   1   8 758.858 85.6086   1
   1  -1  -8 664.057 94.0391   2
  -1   1   8 668.123 72.1765   6
  -1   1   7 2464.29 124.415   1
   1  -1  -7 2308.87 113.907   1
   1  -1  -7 2724.41 108.076   6
   1  -1  -7 2625.59 110.908   5
  -1   1   7 2833.20 105.830   6
  -1   1   7 3057.92 144.802   2
   1  -1  -7 2778.77 138.960   2
  -1   1   6 475.425 59.5676   6
  -1   1   6 453.014 71.1443   1
  -1   1   6 620.548 96.4712   2
   1  -1  -6 478.077 60.6440   6
   1  -1  -6 537.174 69.1088   5
   1  -1  -6 426.862 66.8611   1
   1  -1  -6 553.764 91.2500   2
   1  -1  -5 904.135 58.5344   6
  -1   1   5 961.942 57.6963   6
  -1   1   5 850.734 69.4305   1
  -1   1   5 837.647 78.0395   2
   1  -1  -5 820.555 65.9625   1
   1  -1  -5 886.416 79.7772   2
  -1   1   4 14115.7 203.920   1
   1  -1  -4 13721.7 193.507   2
  -1   1   4 14212.1 198.147   2
   1  -1  -4 13937.7 194.742   1
   1  -1  -4 14063.3 162.766   6
  -1   1   4 14187.5 158.335   6
  -1   1   3 27177.9 187.096   6
  -1   1   3 27024.8 251.178   2
   1  -1  -3 27521.8 246.503   2
   1  -1  -3 27678.3 241.252   1
   1  -1  -3 27508.8 190.803   6
  -1   1   2 354.389 28.1597   6
   1  -1  -2 314.009 28.0128   6
   1  -1  -2 268.471 47.9513   2
  -1   1   2 306.833 50.9529   2
   1  -1  -1 35496.4 235.230   2
  -1   1   1 35802.3 239.014   2
   1  -1   0 9380.43 111.495   1
   1  -1   1 6148.00 91.9555   1
  -1   1  -1 6047.23 60.4451   6
   1  -1   1 5990.83 59.3632   6
   1  -1   2 75339.4 275.664   6
  -1   1  -2 75173.9 340.000   1
   1  -1   2 76129.2 342.025   1
  -1   1  -2 75072.2 286.520   6
   1  -1   3 2268.01 73.4594   1
   1  -1   3 2344.24 98.3288   2
  -1   1  -3 2199.01 74.8491   1
   1  -1   3 2155.24 63.5077   6
  -1   1  -3 2186.78 66.5520   6
   1  -1   4 1373.81 85.1937   2
  -1   1  -4 1403.24 34.9883   7
  -1   1  -4 1582.75 73.4090   1
   1  -1   4 1586.38 64.7386   6
   1  -1   4 1508.49 71.1639   1
  -1   1  -4 1583.79 66.4809   6
   1  -1   5 1290.59 77.5396   1
  -1   1  -5 1398.10 72.1396   6
   1  -1   5 1237.57 95.0576   2
  -1   1  -5 1110.69 72.9565   1
  -1   1  -5 1297.78 40.6122   7
   1  -1   5 1443.98 71.3676   6
   1  -1   6 321.701 67.1747   1
  -1   1  -6 442.180 64.0536   6
  -1   1  -6 323.795 63.0934   1
   1  -1   6 278.577 54.2557   6
  -1   1  -6 380.451 39.8408   7
   1  -1   6 313.294 86.0134   2
   1  -1   7 3767.36 123.157   6
  -1   1  -7 4386.46 88.0576   7
  -1   1  -7 3973.97 131.218   6
  -1   1  -7 3731.10 131.296   1
   1  -1   7 4018.87 141.096   1
   1  -1   7 3324.78 152.131   2
  -1   1  -8 670.043 76.2945   6
   1  -1   8 663.620 84.1260   5
  -1   1  -8 663.800 47.5853   7
   1  -1   8 473.412 70.4591   1
   1  -1   9 2452.26 126.762   5
  -1   1  -9 2458.74 121.994   6
   1  -1   9 2262.90 120.303   1
   1  -1  10 4766.61 174.522   5
  -1   1 -10 4663.94 171.840   6
   1  -1  10 4510.39 174.126   1
   1  -1  11 731.935 100.659   1
   1  -1  11 682.908 100.012   5
  -1   1 -11 702.233 65.3433   7
  -1   1 -11 633.926 96.4628   6
  -1   1 -12 1207.53 85.2054   7
   1  -1  12 1061.23 115.734   1
  -1   1 -13 39.2953 89.3697   6
   1  -1  13 58.5668 71.7681   1
   1  -1  14 119.372 84.6822   1
  -1   1 -14 171.975 98.3371   6
  -1   1 -15 309.666 113.295   6
   1  -1  15 390.982 105.585   1
  -1   1 -16 454.708 126.625   6
   1  -1  16 258.599 106.912   1
  -1   1 -17 180.528 133.308   6
   1  -1  17 279.671 116.013   1
   1   0 -18 372.839 126.753   6
  -1   0  17 193.465 108.499   1
   1   0 -17 77.7752 97.2450   6
   1   0 -16 382.023 106.521   6
  -1   0  16 579.381 117.389   1
  -1   0  15 156.965 94.0076   1
   1   0 -15 262.045 90.4253   6
   1   0 -14 151.162 125.765   2
   1   0 -14 270.725 89.2982   6
  -1   0  14 232.358 89.0981   1
   1   0 -13 221.459 77.7787   6
  -1   0  13-56.0464 77.0548   1
   1   0 -13 220.691 118.257   2
  -1   0  12 236.335 83.8288   1
   1   0 -12 180.374 108.751   2
   1   0 -12 166.657 72.4795   6
   1   0 -11 2063.02 122.916   6
   1   0 -11 1622.81 145.528   2
  -1   0  11 1698.40 126.445   1
   1   0 -10 2651.78 130.851   6
   1   0 -10 2703.26 154.576   2
  -1   0  10 2534.69 140.732   1
   1   0  -9 331.366 85.9115   2
  -1   0   9 279.883 70.7731   1
  -1   0   9 410.067 84.8949   2
   1   0  -8 11865.0 225.513   6
   1   0  -8 12175.1 257.927   2
  -1   0   8 12012.7 247.270   1
   1   0  -8 11659.2 224.680   5
   1   0  -8 12194.7 239.764   1
  -1   0   8 12182.2 249.123   2
  -1   0   8 11444.5 208.002   6
   1   0  -7 11260.1 204.992   6
   1   0  -7 10929.0 222.508   2
   1   0  -7 11026.0 216.537   1
  -1   0   7 10908.2 189.013   6
   1   0  -7 10413.4 201.197   5
  -1   0   7 11712.5 221.447   2
  -1   0   7 11453.0 229.277   1
   1   0  -6 1066.70 91.4616   2
   1   0  -6 1158.69 77.3989   6
   1   0  -6 967.845 80.0360   1
  -1   0   6 1102.58 87.1924   2
  -1   0   6 1002.52 81.5917   1
  -1   0   6 1131.92 71.7936   6
   1   0  -5 6383.70 152.879   1
   1   0  -5 6899.06 136.863   6
  -1   0   5 7058.76 144.602   2
   1   0  -5 6463.40 144.401   2
  -1   0   5 6759.60 129.152   6
   1   0  -4 237.079 46.0343   1
  -1   0   4 322.143 46.5640   2
   1   0  -4 306.189 47.7127   2
   1   0  -4 283.986 42.2483   6
  -1   0   4 289.247 40.6841   6
  -1   0   3 14306.2 146.322   6
  -1   0   3 15038.1 175.923   3
   1   0  -3 14052.2 133.522   2
  -1   0   3 14308.1 135.745   2
   1   0  -3 14800.4 159.112   6
  -1   0   2 3530.56 68.6306   6
  -1   0   2 3647.35 75.6787   3
   1   0  -2 3560.40 71.6898   6
   1   0  -2 3506.62 74.0393   3
   1   0  -1 22343.5 189.742   4
  -1   0   1 22502.7 190.114   4
   1   0  -1 22937.9 153.692   3
  -1   0   1 22446.7 153.007   3
  -1   0   1 22447.7 147.001   6
   1   0  -1 22613.9 148.843   6
   1   0   0 16781.5 164.080   1
   1   0   0 17340.1 133.639   3
  -1   0   0 18102.2 124.281   2
   1   0   0 18028.8 118.419   2
  -1   0   0 17024.8 166.867   1
   1   0   1 69766.1 303.696   2
  -1   0  -1 69440.6 280.419   6
  -1   0  -1 69149.3 329.901   1
   1   0   2 13114.0 148.688   6
  -1   0  -2 12939.6 173.292   2
  -1   0  -2 12867.0 157.251   1
   1   0   2 13127.2 129.785   7
   1   0   2 12601.8 164.241   2
  -1   0  -2 12956.2 141.015   6
   1   0   3 5974.10 111.832   6
   1   0   3 5795.59 93.9971   7
   1   0   3 5620.80 132.416   2
  -1   0  -3 5801.82 138.546   2
  -1   0  -3 6033.45 94.5639   7
  -1   0  -3 5718.36 109.863   6
   1   0   3 5602.85 113.863   1
  -1   0  -3 5828.53 118.395   1
   1   0   4 510.477 54.9015   1
   1   0   4 639.034 72.0785   2
  -1   0  -4 523.711 53.3664   1
  -1   0  -4 725.944 45.0460   7
  -1   0  -4 496.766 70.6346   2
  -1   0  -4 668.971 53.6832   6
   1   0   4 722.213 54.3202   6
  -1   0  -5 3873.33 112.389   6
  -1   0  -5 3661.26 147.893   2
   1   0   5 3991.66 111.496   6
   1   0   5 4012.43 124.676   1
  -1   0  -5 3849.53 90.2929   7
   1   0   5 3547.98 142.245   2
  -1   0  -6 71.8019 54.4893   6
   1   0   6 5.25555 48.9786   6
  -1   0  -6 3.69929 47.6547   7
   1   0   6-12.3166 57.3625   1
   1   0   6 103.909 82.7539   2
  -1   0  -6 61.5422 55.2562   1
  -1   0  -6 33.4278 83.5291   2
  -1   0  -7 446.498 65.7796   6
  -1   0  -7 448.374 100.869   2
  -1   0  -7 413.117 63.3079   1
   1   0   7 349.876 66.6319   1
  -1   0  -7 586.071 62.5172   7
   1   0   7 413.721 57.5734   6
   1   0   8 2805.99 128.311   1
  -1   0  -8 2512.85 116.139   6
  -1   0  -8 2518.75 154.665   2
   1   0   9 1470.46 106.002   5
  -1   0  -9 1556.33 103.153   6
  -1   0  -9 1142.96 128.113   2
   1   0   9 1400.52 102.389   1
  -1   0  -9 1759.53 89.0500   7
   1   0  10 2640.09 142.012   1
  -1   0 -10 2372.80 171.472   2
   1   0  10 2777.12 138.952   5
  -1   0 -10 2541.93 133.588   6
  -1   0 -11 1826.29 109.993   7
   1   0  11 1213.86 117.890   1
  -1   0 -11 1496.50 117.162   6
   1   0  11 1724.25 127.934   5
  -1   0 -11 1279.44 154.435   2
  -1   0 -12 948.546 156.422   2
  -1   0 -12 1009.41 112.320   6
   1   0  12 1220.59 126.808   5
   1   0  12 1091.99 116.778   1
   1   0  13-55.4514 80.6843   1
  -1   0 -13 40.1569 116.878   2
  -1   0 -13 132.899 86.2915   6
  -1   0 -14 662.843 119.374   6
  -1   0 -14 523.764 138.244   2
   1   0  14 573.756 110.360   1
   1   0  15 1130.57 134.494   1
  -1   0 -15 1107.69 139.854   6
  -1   0 -16 382.036 124.954   6
   1   0  16 291.329 105.793   1
   1   0  17 271.208 114.469   1
  -1   0 -17 126.530 127.820   6
   1   1 -18 500.596 136.344   6
   1   1 -17 369.472 119.910   6
   1   1 -16 205.962 105.227   6
  -1  -1  15 176.619 93.5888   1
   1   1 -15 182.189 94.1746   6
   1   1 -14 4118.37 203.093   6
  -1  -1  14 3612.30 202.177   1
  -1  -1  13 439.801 95.7356   1
   1   1 -13 621.653 103.968   6
   1   1 -12 375.051 86.6088   6
  -1  -1  12 322.230 88.4776   1
   1   1 -11 24.6434 69.8065   6
  -1  -1  11 60.4297 68.5785   1
  -1  -1  10 4156.17 173.096   1
   1   1 -10 4764.02 171.366   6
  -1  -1   9 3626.59 153.251   1
  -1  -1   9 3797.21 153.607   2
   1   1  -8 5493.29 165.243   6
  -1  -1   8 5258.95 163.199   2
   1   1  -8 5013.54 160.116   1
  -1  -1   8 5095.62 169.856   1
   1   1  -7 918.990 81.7992   6
  -1  -1   7 680.593 84.0784   2
   1   1  -7 696.976 77.3974   1
  -1  -1   7 608.729 85.5307   3
  -1  -1   7 711.211 71.1499   6
  -1  -1   6 12.8058 51.8428   6
   1   1  -6 12.4226 58.4223   1
   1   1  -6 48.0206 59.5946   6
  -1  -1   6 74.2169 62.3012   3
  -1  -1   6 20.8750 63.3189   2
   1   1  -5 4949.41 139.011   1
  -1  -1   5 5502.52 130.551   2
   1   1  -5 5715.67 136.282   6
  -1  -1   5 5428.25 127.620   6
  -1  -1   5 4844.66 140.629   3
   1   1  -4 364.159 50.9585   6
   1   1  -4 414.884 51.6160   1
  -1  -1   4 461.997 49.5616   2
   1   1  -4 456.242 55.7319   3
  -1  -1   4 444.438 50.6648   6
  -1  -1   4 331.135 52.7947   3
  -1  -1   3 22.9071 37.4947   6
   1   1  -3-12.1035 38.8116   6
  -1  -1   3-0.30451 38.3734   3
   1   1  -3 12.9542 36.6310   3
  -1  -1   2 26707.5 229.370   6
   1   1  -2 26758.7 237.373   3
  -1  -1   2 26620.4 237.552   4
   1   1  -2 26485.6 234.502   6
  -1  -1   2 24694.9 233.964   3
  -1  -1   2 24554.0 192.230   2
  -1  -1   1 27279.0 238.172   3
  -1  -1   1 27658.3 192.680   2
   1   1  -1 28115.6 228.713   4
  -1  -1   1 28014.7 230.568   6
   1   1  -1 28426.0 234.810   3
   1   1  -1 28094.8 234.801   1
   1   1   0 3427.36 89.8201   3
  -1  -1   0 3333.00 92.5938   3
  -1  -1   0 3603.57 87.3022   2
   1   1   0 3358.54 83.1480   1
  -1  -1   0 3413.20 87.6116   1
   1   1   0 3376.87 85.9812   2
   1   1   1 63677.3 373.542   2
   1   1   1 63476.3 381.487   3
   1   1   1 63091.3 342.050   1
  -1  -1  -1 62943.6 373.206   2
  -1  -1  -1 62690.6 353.700   1
   1   1   1 64189.2 358.574   7
   1   1   2 10372.2 154.077   1
  -1  -1  -2 10850.7 179.109   2
  -1  -1  -2 10922.7 162.609   1
  -1  -1  -2 10361.7 150.350   7
  -1  -1  -2 10475.3 152.089   6
   1   1   2 10457.5 148.613   7
   1   1   3-0.41507 35.3930   1
   1   1   3 28.0066 38.5623   7
  -1  -1  -3-0.64340 38.2688   6
  -1  -1  -3-25.9042 56.9592   2
  -1  -1  -3 0.38341 41.0544   7
  -1  -1  -3 22.7897 37.1970   1
   1   1   3 18.6041 57.7093   2
   1   1   4 20877.4 295.862   2
  -1  -1  -4 22031.9 266.480   1
   1   1   4 20044.6 252.632   1
  -1  -1  -4 22099.7 237.118   7
  -1  -1  -4 21513.9 308.926   2
   1   1   4 20543.9 232.308   7
   1   1   4 21765.5 252.066   6
  -1  -1  -4 22128.6 247.839   6
   1   1   5 7044.59 161.690   6
  -1  -1  -5 6057.21 190.062   2
  -1  -1  -5 6223.64 159.376   1
   1   1   5 6657.17 192.889   2
   1   1   5 6226.08 157.101   1
  -1  -1  -5 5945.46 132.410   7
  -1  -1  -5 6565.21 152.058   6
   1   1   6 724.132 72.6915   6
   1   1   6 648.646 95.6575   2
  -1  -1  -6 604.877 71.7976   1
   1   1   6 615.389 76.9253   1
  -1  -1  -6 539.038 91.7448   2
  -1  -1  -6 714.680 72.9238   6
  -1  -1  -6 778.035 68.8079   7
  -1  -1  -7 184.576 58.3384   6
   1   1   7 187.973 61.9939   1
  -1  -1  -7 162.506 81.8630   2
  -1  -1  -7 224.844 53.1809   7
  -1  -1  -8 99.1880 56.7353   6
  -1  -1  -8 55.2799 49.5603   7
  -1  -1  -8-18.0663 80.3097   2
   1   1   8 148.810 64.8294   1
  -1  -1  -9 67.9781 61.6928   6
  -1  -1  -9 4.17508 84.1337   2
  -1  -1  -9 120.267 60.2821   7
   1   1   9 105.010 66.8385   1
  -1  -1 -10 143.963 72.7163   6
   1   1  10 161.834 77.8583   1
  -1  -1 -10 195.596 102.871   2
   1   1  10 32.1193 79.4853   5
  -1  -1 -11 1330.88 115.080   6
  -1  -1 -11 1391.24 151.932   2
   1   1  11 1604.70 123.875   5
  -1  -1 -12 858.524 140.901   2
   1   1  12 726.109 111.368   5
  -1  -1 -12 767.022 107.607   6
  -1  -1 -13 495.144 103.891   6
  -1  -1 -13 360.846 129.839   2
   1   1  13 428.829 107.036   1
  -1  -1 -14-93.5725 92.3061   6
  -1  -1 -14 114.464 124.642   2
   1   1  14-88.9563 100.573   1
  -1  -1 -15-17.2002 102.586   6
   1   1  15 78.5741 99.8376   1
  -1  -1 -15 176.172 137.544   2
  -1  -1 -16 85.3125 114.461   6
  -1  -1 -16 93.3193 148.188   2
   1   1  16 314.038 120.153   1
  -1  -1 -17 372.857 136.251   6
  -1  -1 -17 319.074 174.822   2
   1   1  17 420.521 133.539   1
   1   2 -18 459.256 133.942   6
  -1  -2  18 148.104 130.742   3
   1   2 -17 100.243 108.708   6
  -1  -2  17 175.719 120.903   3
  -1  -2  16 504.735 126.699   3
   1   2 -16 433.014 116.944   6
   1   2 -15 351.880 101.947   6
  -1  -2  15-56.4283 94.3698   3
   1   2 -14 1839.35 146.143   6
  -1  -2  14 1150.66 139.187   3
  -1  -2  13 137.723 90.4784   3
   1   2 -13 148.495 77.5285   6
   1   2 -12 34.9529 74.1615   6
  -1  -2  12 127.544 84.8376   3
   1   2 -11 150.198 70.8173   6
  -1  -2  11-61.4748 72.1964   3
   1   2 -10 2.03010 63.1787   6
  -1  -2  10-30.4232 68.1796   3
  -1  -2   9 3594.63 155.715   2
   1   2  -9 3914.81 153.727   6
  -1  -2   9 3725.16 162.586   3
  -1  -2   8 2483.75 129.488   3
   1   2  -8 2886.40 128.981   6
  -1  -2   8 2719.70 133.791   2
   1   2  -8 2904.87 124.409   1
   1   2  -7 497.944 75.8211   6
  -1  -2   7 476.588 81.0133   2
  -1  -2   7 493.878 80.2924   3
   1   2  -7 363.629 66.8161   1
   1   2  -6 25352.1 317.738   6
   1   2  -6 25119.1 306.368   1
  -1  -2   6 25277.0 338.809   3
  -1  -2   5 11140.3 218.121   3
  -1  -2   5 9576.50 183.561   6
   1   2  -5 11638.2 215.278   6
   1   2  -5 10104.7 210.255   3
   1   2  -5 10909.6 189.255   1
  -1  -2   4 1510.94 87.4837   6
   1   2  -4 1686.91 91.5273   6
   1   2  -4 1602.95 90.9844   3
  -1  -2   4 1734.75 93.7542   3
  -1  -2   3 7056.07 149.988   6
  -1  -2   3 8098.42 168.320   3
   1   2  -3 7539.49 165.083   3
  -1  -2   3 7614.03 157.698   2
  -1  -2   3 7850.78 151.124   4
   1   2  -3 8547.38 169.672   6
   1   2  -2 384.934 54.4661   2
   1   2  -2 416.330 56.3877   6
  -1  -2   2 453.125 60.9506   2
   1   2  -2 417.278 53.2761   3
  -1  -2   2 345.792 49.0782   6
  -1  -2   2 446.439 55.4878   3
   1   2  -1 16894.6 192.423   4
  -1  -2   1 15633.4 206.262   2
   1   2  -1 16965.7 231.074   3
   1   2  -1 16088.0 192.832   1
   1   2  -1 16167.3 235.323   2
  -1  -2   1 16023.8 222.430   3
   1   2   0 4333.28 137.553   2
  -1  -2   0 3963.24 103.350   1
  -1  -2   0 4170.28 122.429   2
   1   2   0 4542.80 122.926   7
   1   2   0 4283.07 121.504   3
  -1  -2   0 4030.69 121.505   3
   1   2   0 4116.86 98.5061   1
   1   2   1 2912.33 115.396   2
  -1  -2  -1 3090.19 96.3724   1
  -1  -2  -1 3242.33 116.355   2
   1   2   1 3065.38 85.7074   1
   1   2   1 3279.58 112.795   3
   1   2   1 3011.32 100.390   7
  -1  -2  -2 78.8236 69.7799   2
  -1  -2  -2 171.731 54.3203   7
   1   2   2 128.369 57.6726   3
   1   2   2 56.4834 65.5529   2
  -1  -2  -2 25.1837 43.3276   1
   1   2   2 49.6601 54.7249   7
   1   2   2 35.0549 43.2232   1
  -1  -2  -3 5286.90 133.819   1
   1   2   3 5576.61 170.885   2
  -1  -2  -3 5298.51 142.682   7
  -1  -2  -3 5643.73 172.214   2
   1   2   3 5526.27 146.103   7
   1   2   3 5627.70 134.250   1
  -1  -2  -3 5089.73 133.286   6
  -1  -2  -4 3.68923 52.5197   6
   1   2   4-45.6466 56.6193   1
   1   2   4-3.80678 78.6340   2
  -1  -2  -4 17.5398 49.3871   1
   1   2   4-21.8745 55.1629   7
  -1  -2  -4 71.3206 59.9379   7
  -1  -2  -4 54.0549 85.7849   2
  -1  -2  -5 54.4803 52.3554   6
  -1  -2  -5 129.587 82.3408   2
  -1  -2  -5-0.51608 55.4679   7
   1   2   5 74.8926 55.0484   1
  -1  -2  -5 142.449 54.1410   1
   1   2   5 128.756 80.8960   2
  -1  -2  -6 200.671 51.7189   6
   1   2   6 264.187 63.0703   1
  -1  -2  -6 257.993 92.1499   2
  -1  -2  -6 209.239 57.7835   7
  -1  -2  -7 148.579 57.8392   6
   1   2   7 151.783 61.4769   1
  -1  -2  -7 54.6885 88.1554   2
  -1  -2  -8 0.63146 55.2123   6
  -1  -2  -8-68.7458 90.0300   2
   1   2   8 42.9335 66.3328   1
  -1  -2  -9 22.5157 62.5459   6
  -1  -2  -9 136.547 92.6676   2
   1   2   9 99.2378 72.0635   1
   1   2  10 1386.65 115.646   5
  -1  -2 -10 842.873 135.096   2
   1   2  10 986.944 110.663   1
  -1  -2 -10 1196.52 104.134   6
   1   2  11-33.8700 81.2717   1
   1   2  11 196.246 92.7891   5
  -1  -2 -11 89.5493 72.7078   6
  -1  -2 -11 221.992 106.861   2
   1   2  12 237.776 101.820   1
  -1  -2 -12 360.223 86.4754   6
   1   2  12 272.260 96.2072   5
  -1  -2 -12 171.438 125.628   2
  -1  -2 -13-105.366 84.0782   6
  -1  -2 -13 172.543 119.073   2
   1   2  13 121.564 98.0751   1
   1   2  14 476.957 122.744   1
  -1  -2 -14 608.670 110.559   6
  -1  -2 -14 642.393 150.259   2
  -1  -2 -15-30.4472 94.2349   6
   1   2  15 123.949 110.513   1
  -1  -2 -16 185.045 106.629   6
  -1  -2 -16 351.291 159.955   2
   1   2  16 321.700 127.339   1
  -1  -3  17 292.597 124.720   3
   1   3 -17 641.234 149.939   6
  -1  -3  16 438.684 123.645   3
   1   3 -16 573.564 139.020   6
   1   3 -15 349.023 123.949   6
  -1  -3  15 269.483 109.880   3
   1   3 -14 121.884 106.506   6
  -1  -3  14 179.904 96.1978   3
   1   3 -13 329.986 103.073   6
  -1  -3  13 215.481 92.7635   3
   1   3 -12 2636.38 170.359   6
  -1  -3  12 2370.88 165.730   3
   1   3 -11 391.192 93.3704   6
  -1  -3  11 223.725 84.6913   3
  -1  -3  10 2034.98 139.749   3
   1   3 -10 2063.37 134.415   6
  -1  -3   9 311.345 78.6998   3
   1   3  -9 239.904 75.7574   6
  -1  -3   8 7323.58 222.066   3
   1   3  -8 7067.09 185.596   1
   1   3  -7 2619.31 132.278   6
  -1  -3   7 2624.10 135.492   3
   1   3  -7 2505.29 110.663   1
   1   3  -6 1230.31 80.4876   1
  -1  -3   6 1243.48 98.6914   3
   1   3  -6 1319.56 100.361   6
   1   3  -5-23.3155 56.8098   3
  -1  -3   5-53.7367 56.3857   6
  -1  -3   5-5.39321 63.9712   2
   1   3  -5 38.6033 62.2210   6
  -1  -3   5-8.69905 59.4143   3
   1   3  -5-38.0746 42.6044   1
   1   3  -4 650.669 81.0011   6
  -1  -3   4 617.816 68.8230   6
  -1  -3   4 645.522 87.7545   2
   1   3  -4 718.488 77.9674   3
  -1  -3   4 573.692 73.6531   3
  -1  -3   4 626.045 72.1428   4
  -1  -3   3 8421.63 202.087   2
   1   3  -3 8320.04 190.453   3
  -1  -3   3 8712.50 189.764   6
   1   3  -3 8769.32 203.751   6
   1   3  -2 1784.69 100.286   3
  -1  -3   2 1721.13 111.841   2
  -1  -3   2 1816.96 103.035   3
  -1  -3   2 1685.32 95.0276   6
   1   3  -2 1950.81 105.120   7
   1   3  -2 1618.19 83.8770   1
   1   3  -2 1720.89 107.452   2
   1   3  -1 72.5059 51.7243   4
  -1  -3   1 62.0044 59.0830   6
   1   3  -1-20.1193 78.8588   2
  -1  -3   1 88.4449 74.6767   2
   1   3  -1 14.5187 41.7361   1
   1   3  -1 35.6301 62.4336   7
  -1  -3   1 16.2264 55.3169   3
   1   3  -1 21.4959 60.5584   3
  -1  -3   0 7800.45 181.020   6
  -1  -3   0 8141.93 199.783   2
   1   3   0 8265.96 194.913   3
   1   3   0 7532.23 140.535   1
  -1  -3   0 7857.20 161.117   1
  -1  -3   0 7816.26 193.879   3
   1   3   0 7771.92 173.922   7
   1   3   0 8197.04 223.775   2
   1   3   1 10698.4 222.332   3
  -1  -3  -1 11454.0 236.195   2
   1   3   1 11011.4 172.813   1
   1   3   1 10687.9 213.053   7
  -1  -3  -1 11056.8 189.290   1
  -1  -3  -2 6497.46 197.352   2
  -1  -3  -2 6262.04 147.919   1
   1   3   2 6166.07 192.668   2
   1   3   2 6098.38 136.558   1
   1   3   2 6419.63 171.520   7
  -1  -3  -2 5723.13 158.131   7
   1   3   2 6063.30 181.221   3
   1   3   3 28454.6 412.749   2
   1   3   3 28053.1 354.212   7
  -1  -3  -3 29828.7 336.722   1
  -1  -3  -3 29508.4 410.080   2
   1   3   3 29680.2 315.301   1
  -1  -3  -4 1339.77 83.7444   1
  -1  -3  -4 1418.31 90.0925   6
   1   3   4 1572.33 101.078   7
   1   3   4 1592.67 89.8790   1
  -1  -3  -4 1367.82 116.021   2
  -1  -3  -5 586.226 65.9999   1
  -1  -3  -5 546.259 68.5226   6
   1   3   5 441.487 69.2294   1
  -1  -3  -5 509.410 102.077   2
  -1  -3  -6 1113.27 89.1798   6
   1   3   6 1072.40 93.1243   1
  -1  -3  -6 949.439 119.135   2
  -1  -3  -7 1741.27 152.988   2
   1   3   7 2037.97 121.083   1
  -1  -3  -7 1864.24 107.524   6
  -1  -3  -8 37.6306 60.3019   6
  -1  -3  -8-1.63455 101.636   2
   1   3   8-5.53830 69.5502   1
  -1  -3  -9 229.801 123.988   2
   1   3   9 86.5637 77.3523   1
  -1  -3  -9 53.3019 68.9440   6
   1   3  10 115.083 86.8230   1
   1   3  10 7.22407 78.1768   5
  -1  -3 -10 28.3048 66.7815   6
  -1  -3 -10 274.443 119.426   2
   1   3  11 41.6836 83.9497   5
  -1  -3 -11 140.718 77.1408   6
  -1  -3 -11 121.403 121.314   2
   1   3  11 81.3771 83.5265   1
  -1  -3 -12 274.203 86.6167   6
   1   3  12 154.342 105.733   1
  -1  -3 -12 238.858 133.747   2
   1   3  13 307.822 117.088   1
  -1  -3 -13 468.696 98.0467   6
  -1  -3 -14 188.391 96.2570   6
   1   3  14 116.587 100.947   1
  -1  -3 -14 387.947 138.570   2
  -1  -3 -15 169.274 98.4964   6
   1   3  15 154.600 114.520   1
  -1  -3 -15 261.689 149.813   2
  -1  -4  17 302.081 132.109   3
   1   4 -17 411.386 147.499   6
   1   4 -16 377.939 135.077   6
  -1  -4  16 531.332 135.426   3
   1   4 -15 140.579 115.479   6
  -1  -4  15 317.401 114.215   3
   1   4 -14 709.529 135.759   6
  -1  -4  14 478.170 116.886   3
   1   4 -13 71.2885 102.843   6
  -1  -4  13 181.392 97.6421   3
   1   4 -12 3844.21 204.526   6
  -1  -4  12 3326.70 195.876   3
   1   4 -11 176.322 98.5222   6
  -1  -4  11 128.844 87.0767   3
   1   4 -10 48.5960 86.0445   6
  -1  -4  10 140.805 80.0617   3
   1   4  -9 1101.51 118.393   6
  -1  -4   9 834.338 102.947   3
   1   4  -8 96.9232 55.5958   1
   1   4  -8-28.2230 76.9991   6
  -1  -4   8-25.7284 68.9586   3
  -1  -4   7 1046.41 117.541   2
   1   4  -7 1265.58 109.174   6
   1   4  -7 1071.26 80.1599   1
  -1  -4   7 1261.27 107.358   3
  -1  -4   6 1503.01 127.274   2
   1   4  -6 1881.68 121.386   6
   1   4  -6 1619.05 87.4115   1
  -1  -4   6 1807.35 120.830   3
   1   4  -5 3217.22 130.723   7
   1   4  -5 3468.18 155.531   6
  -1  -4   5 3303.85 114.858   4
  -1  -4   5 3283.21 164.388   2
  -1  -4   5 3234.61 145.766   3
   1   4  -5 3153.99 108.704   1
   1   4  -4 11236.1 255.628   6
   1   4  -4 11120.3 227.017   7
  -1  -4   4 11672.0 258.406   3
  -1  -4   4 11426.7 267.409   2
  -1  -4   3 2305.88 122.680   3
   1   4  -3 2551.34 120.530   7
  -1  -4   3 2305.70 134.575   2
  -1  -4   2 1578.86 117.978   2
   1   4  -2 1163.12 68.1865   1
   1   4  -2 1552.00 100.209   7
   1   4  -2 1358.84 109.644   2
  -1  -4   2 1525.70 103.828   3
   1   4  -1 2356.26 114.422   7
   1   4  -1 2099.47 84.2967   1
   1   4  -1 2462.31 93.6884   4
  -1  -4   1 2590.38 128.141   3
  -1  -4   1 2417.89 130.020   2
   1   4  -1 2340.92 144.654   2
   1   4   0 465.434 77.9061   7
   1   4   0 474.075 50.1860   1
  -1  -4   0 435.502 52.9440   1
   1   4   0 511.218 100.628   2
  -1  -4   0 586.936 77.6757   3
  -1  -4   0 467.901 92.7399   2
   1   4   1 6661.14 189.937   7
  -1  -4  -1 6676.64 159.814   1
   1   4   1 6494.01 138.038   1
  -1  -4  -1 6612.32 208.723   2
   1   4   1 7036.91 241.556   2
   1   4   2 1051.45 95.0818   7
  -1  -4  -2 1131.02 76.6102   1
   1   4   2 1295.38 76.8012   1
  -1  -4  -2 1062.18 109.173   2
  -1  -4  -3 90.6171 93.2909   2
  -1  -4  -3 74.9719 46.1070   1
   1   4   3 93.7939 49.3185   1
   1   4   3 98.4038 59.9247   7
  -1  -4  -4 1107.87 85.5317   1
   1   4   4 1256.65 88.0100   1
  -1  -4  -4 1131.22 88.9586   6
   1   4   5 144.316 65.2551   1
  -1  -4  -5 439.511 75.2417   6
  -1  -4  -5 353.050 107.644   2
   1   4   6 779.663 90.4272   1
  -1  -4  -6 868.098 134.347   2
  -1  -4  -6 1012.35 93.7966   6
  -1  -4  -7 1.50838 114.556   2
  -1  -4  -7-15.9367 64.9127   6
   1   4   7 87.4152 76.9609   1
  -1  -4  -8-44.4716 66.7586   6
   1   4   8 33.5365 76.1784   1
  -1  -4  -8 23.3672 117.869   2
  -1  -4  -9 62.9094 71.0457   6
   1   4   9 127.972 82.4795   5
  -1  -4  -9 281.740 127.608   2
   1   4   9 71.8806 81.6591   1
  -1  -4 -10 103.324 76.3782   6
  -1  -4 -10 184.082 137.433   2
   1   4  10 75.9646 83.1751   1
   1   4  10 25.0703 81.0111   5
   1   4  11 220.788 100.438   1
  -1  -4 -11 155.709 134.150   2
  -1  -4 -11 266.328 83.3023   6
   1   4  12 559.487 117.167   1
  -1  -4 -12 349.446 147.984   2
  -1  -4 -12 545.978 100.740   6
   1   4  13 36.6546 99.6609   1
  -1  -4 -13 238.891 94.0826   6
  -1  -4 -13 92.1097 150.300   2
  -1  -4 -14 72.9854 91.8703   6
   1   4  14 216.689 122.460   1
   1   5 -16 91.8822 145.467   6
  -1  -5  16 482.958 144.564   3
   1   5 -15-32.2883 129.033   6
  -1  -5  15 135.144 116.137   3
   1   5 -14 318.253 129.858   6
  -1  -5  14 390.668 120.251   3
   1   5 -13 201.145 118.044   6
  -1  -5  13 34.8225 95.0194   3
   1   5 -12 52.1143 109.770   6
  -1  -5  12 316.757 106.811   3
  -1  -5  11 1359.80 142.247   3
   1   5 -11 1306.63 144.476   6
   1   5 -10 941.525 123.379   6
  -1  -5  10 858.030 136.613   2
  -1  -5  10 961.931 122.024   3
   1   5  -9 28.6798 85.8504   6
  -1  -5   9 18.8911 100.285   2
   1   5  -9 77.7874 75.1379   7
  -1  -5   9 44.1628 75.6023   3
   1   5  -8 2175.30 152.788   6
   1   5  -8 1858.65 123.126   7
  -1  -5   8 1956.10 143.273   3
   1   5  -8 1458.14 100.924   1
  -1  -5   8 1664.74 156.147   2
   1   5  -7 93.6128 51.7080   1
   1   5  -7-91.1694 84.8083   6
  -1  -5   7 80.5677 101.461   2
  -1  -5   7 47.7866 65.2284   4
  -1  -5   7 41.1019 71.2769   3
   1   5  -7 105.633 76.5955   7
   1   5  -6 4325.46 194.982   6
   1   5  -6 4079.08 129.340   1
   1   5  -6 4063.72 162.018   7
  -1  -5   6 4606.09 192.182   3
  -1  -5   6 4020.17 199.013   2
   1   5  -5 664.991 65.0305   1
   1   5  -5 890.286 106.923   6
  -1  -5   5 989.260 105.195   3
   1   5  -5 810.160 94.3288   7
  -1  -5   5 653.192 115.440   2
   1   5  -5 761.805 73.1297   1
   1   5  -4 131.115 44.6975   1
  -1  -5   4 217.819 72.1786   3
  -1  -5   4 201.307 106.422   2
   1   5  -4 266.666 73.0394   7
   1   5  -3 184.247 41.8373   1
  -1  -5   3 193.775 70.3466   3
  -1  -5   3 291.601 101.305   2
   1   5  -3 271.814 72.1524   7
   1   5  -2-23.1067 74.1440   7
  -1  -5   2 37.8951 79.1425   2
  -1  -5   2 14.0897 66.4295   3
   1   5  -2 93.2516 38.5717   1
   1   5  -1 4523.52 108.949   1
  -1  -5   1 4010.85 184.842   2
  -1  -5   1 4013.12 171.693   3
   1   5  -1 4191.41 173.820   7
  -1  -5   0 1194.41 126.952   2
   1   5   0 1106.61 64.0253   1
   1   5   0 1069.42 106.886   7
   1   5   1 19.7464 46.8110   1
  -1  -5  -1 124.431 51.7941   1
   1   5   1-17.9521 70.9457   7
  -1  -5  -2 1551.67 140.805   2
  -1  -5  -2 1495.16 96.9009   1
   1   5   2 1879.29 94.7725   1
   1   5   2 1418.04 115.635   7
  -1  -5  -3 3828.28 207.533   2
  -1  -5  -3 3747.79 145.136   1
   1   5   3 4279.62 139.189   1
   1   5   3 3612.74 164.865   7
  -1  -5  -4 5428.48 182.298   6
  -1  -5  -4 5455.95 248.970   2
   1   5   4 5782.71 168.391   1
  -1  -5  -5 8702.86 297.505   2
  -1  -5  -5 9425.98 245.810   6
   1   5   5 9194.66 220.649   1
  -1  -5  -6 319.054 129.450   2
   1   5   6 116.493 74.0605   1
  -1  -5  -6 80.0832 67.4834   6
  -1  -5  -7 679.945 94.5916   6
   1   5   7 607.370 94.3240   1
  -1  -5  -8-93.0721 71.9005   6
  -1  -5  -8 159.177 126.798   2
   1   5   8 117.500 84.8339   1
  -1  -5  -9 331.971 89.2192   6
   1   5   9 199.440 77.3338   5
   1   5   9 195.925 89.2498   1
   1   5  10 234.650 99.5073   1
  -1  -5 -10 89.5633 82.0472   6
  -1  -5 -10 58.0578 139.178   2
   1   5  11 133.110 100.033   1
  -1  -5 -11 327.313 155.880   2
  -1  -5 -11 69.5856 83.9686   6
  -1  -5 -12 196.051 93.6072   6
   1   5  12 168.789 110.497   1
  -1  -5 -12 309.733 158.214   2
   1   5  13 123.754 113.839   1
  -1  -5 -13 298.999 102.170   6
  -1  -5 -13 10.0998 156.028   2
   1   6 -15 78.9561 143.189   6
  -1  -6  15 324.355 135.090   3
  -1  -6  14 513.575 169.650   2
   1   6 -14 441.370 146.966   6
  -1  -6  14 558.438 135.039   3
  -1  -6  13 241.631 110.814   3
   1   6 -13 100.991 117.946   6
  -1  -6  13 316.637 149.595   2
   1   6 -12 333.043 124.642   6
  -1  -6  12 419.886 113.004   3
  -1  -6  12 688.662 162.817   2
  -1  -6  11 162.737 135.268   2
   1   6 -11 304.950 116.584   6
   1   6 -11 281.421 88.7106   7
  -1  -6  11 364.092 110.245   3
   1   6 -10 4049.90 224.458   6
  -1  -6  10 3804.73 240.710   2
   1   6 -10 3745.79 172.075   7
  -1  -6  10 3951.58 212.463   3
  -1  -6   9 826.115 114.311   3
  -1  -6   9 619.600 153.817   2
  -1  -6   9 602.382 93.9798   4
   1   6  -9 798.680 130.298   6
   1   6  -9 626.163 98.7961   7
  -1  -6   8 673.154 143.029   2
   1   6  -8 505.203 96.4365   7
   1   6  -8 805.489 129.569   6
  -1  -6   8 638.434 108.379   3
  -1  -6   7 3479.95 186.629   3
   1   6  -7 3128.59 153.676   7
   1   6  -7 3089.91 185.945   6
  -1  -6   7 3523.08 223.806   2
   1   6  -6 211.128 93.5718   6
   1   6  -6 312.869 86.6059   7
   1   6  -6 236.735 56.3592   1
  -1  -6   6 68.3406 81.3544   3
  -1  -6   6 320.332 128.913   2
   1   6  -5 163.097 43.8718   1
  -1  -6   5 47.3509 72.6042   3
   1   6  -5 139.297 80.8290   7
   1   6  -5 158.177 44.7314   1
  -1  -6   5 164.156 113.134   2
   1   6  -4 1143.44 66.2726   1
  -1  -6   4 1496.62 128.204   3
   1   6  -4 1369.70 67.6550   1
   1   6  -4 1516.74 129.712   7
  -1  -6   4 1779.31 168.342   2
   1   6  -3 3424.73 90.6965   1
   1   6  -3 3285.77 172.545   7
  -1  -6   3 3454.22 192.990   2
  -1  -6   3 3387.43 177.733   3
   1   6  -2 2473.05 81.1644   1
  -1  -6   2 2359.88 155.164   3
  -1  -6   2 2275.91 161.758   2
   1   6  -2 2051.24 141.942   7
   1   6  -1 707.632 107.420   7
   1   6  -1 705.973 56.3543   1
  -1  -6   1 581.734 124.286   2
   1   6   0 315.500 70.1995   4
  -1  -6   0 628.260 129.551   2
   1   6   0 529.259 57.2251   1
   1   6   0 507.309 99.2092   7
  -1  -6  -1 1268.17 148.011   2
   1   6   1 1405.92 81.6402   1
   1   6   1 1004.77 116.289   7
   1   6   2 190.517 88.0364   7
   1   6   2 230.692 63.9746   1
  -1  -6  -2 281.175 115.250   2
  -1  -6  -3 1957.22 176.436   2
   1   6   3 2035.40 110.669   1
  -1  -6  -4 2.56821 68.9267   6
  -1  -6  -4 205.837 133.862   2
   1   6   4 84.9287 71.2596   1
  -1  -6  -5 11.2586 126.322   2
  -1  -6  -5 151.678 81.8093   6
   1   6   5 16.7514 71.5529   1
   1   6   6 1047.15 107.820   1
  -1  -6  -6 1149.93 111.337   6
   1   6   7 211.702 87.1897   1
  -1  -6  -7 104.720 137.397   2
  -1  -6  -7 115.797 79.4744   6
  -1  -6  -8 876.460 108.697   6
  -1  -6  -8 790.003 167.844   2
   1   6   8 903.440 116.645   1
  -1  -6  -9 253.302 85.5749   6
   1   6   9-80.6780 92.0585   1
  -1  -6  -9 187.184 148.563   2
  -1  -6 -10 302.890 166.478   2
   1   6  10 116.818 103.797   1
  -1  -6 -10 189.352 90.4384   6
  -1  -6 -11 170.802 95.9948   6
  -1  -6 -11 338.711 177.738   2
   1   6  11 95.8586 111.224   1
   1   6  12 146.877 121.638   1
   1   7 -13 112.199 144.305   6
  -1  -7  13 239.571 128.060   3
  -1  -7  12 653.609 187.770   2
   1   7 -12 367.560 143.580   6
  -1  -7  12 329.180 122.589   3
  -1  -7  11 64.8495 158.398   2
   1   7 -11 247.435 138.916   6
  -1  -7  11 162.210 114.233   3
   1   7 -10 46.5333 123.479   6
  -1  -7  10 129.354 149.587   2
  -1  -7  10 273.145 112.610   3
   1   7 -10-1.76942 87.6877   7
   1   7  -9 1873.67 183.008   6
  -1  -7   9 2414.91 214.440   2
  -1  -7   9 2131.05 171.695   3
   1   7  -9 2291.72 155.016   7
  -1  -7   8 539.776 144.088   2
   1   7  -8 286.141 119.192   6
  -1  -7   8 408.516 109.065   3
   1   7  -8 313.856 101.249   7
   1   7  -7 703.129 128.184   7
  -1  -7   7 1103.28 129.321   3
  -1  -7   7 942.906 172.559   2
   1   7  -6 700.923 122.956   7
  -1  -7   6 860.849 115.428   3
  -1  -7   6 897.397 152.729   2
   1   7  -5-146.865 97.2668   7
  -1  -7   5 88.5663 86.2626   3
  -1  -7   5 150.049 128.552   2
  -1  -7   4 1214.10 130.884   3
   1   7  -4 759.702 117.840   7
  -1  -7   4 973.125 153.429   2
  -1  -7   3 165.344 113.945   2
   1   7  -3 369.697 108.220   7
   1   7  -2-16.7752 91.1663   7
  -1  -7   2 155.773 127.924   2
  -1  -7   2 269.946 96.5714   3
   1   7  -1 106.471 94.7818   7
  -1  -7   1 411.446 136.005   2
   1   7   0 49.7334 92.3411   7
  -1  -7   0 201.656 126.202   2
  -1  -7  -1 916.847 151.064   2
  -1  -7  -2 756.504 144.298   2
  -1  -7  -3 92.2329 137.283   2
  -1  -7  -4 266.850 152.544   2
   1   7   4 244.352 76.4617   1
  -1  -7  -4 272.967 86.8500   6
  -1  -7  -5 1821.17 206.036   2
   1   7   5 1540.39 121.052   1
  -1  -7  -6 3093.43 235.154   2
   1   7   6 2867.90 158.995   1
  -1  -7  -6 3383.41 179.459   6
  -1  -7  -7 2251.81 225.787   2
  -1  -7  -7 2524.53 165.229   6
  -1  -7  -8 4.98763 154.078   2
  -1  -7  -8 166.363 97.8544   6
  -1  -7  -9 354.519 101.743   6
  -1  -7  -9 333.180 174.659   2
   1   8 -11 354.851 152.104   6
  -1  -8  11 319.916 135.528   3
  -1  -8  10 429.986 187.901   2
  -1  -8  10 219.115 124.288   3
   1   8 -10 280.228 146.026   6
  -1  -8   9 429.185 178.643   2
   1   8  -9 240.378 110.598   7
  -1  -8   9 140.532 114.714   3
   1   8  -8 1955.09 165.251   7
  -1  -8   8 1869.15 175.161   3
  -1  -8   7 1594.91 202.061   2
  -1  -8   7 1386.75 153.673   3
   1   8  -7 1365.43 148.850   7
   1   8  -6 607.324 122.847   7
  -1  -8   6 997.482 171.734   2
  -1  -8   6 986.190 132.742   3
  -1  -8   5 4297.22 242.951   2
   1   8  -5 3998.04 214.096   7
  -1  -8   5 4362.89 232.064   3
   1   8  -4 1321.29 147.942   7
  -1  -8   4 1676.41 184.754   2
  -1  -8   4 1725.53 169.941   3
  -1  -8   3 185.677 151.262   2
   1   8  -3-25.1400 103.650   7
  -1  -8   3 402.397 129.613   3
  -1  -8   2 1535.48 181.400   2
   1   8  -2 1170.11 140.466   7
  -1  -8   1 2484.14 216.910   2
  -1  -8   0 418.221 146.218   2
  -1  -8  -1 268.301 138.163   2
  -1  -8  -2 158.457 148.624   2
  -1  -8  -3 352.899 166.873   2
  -1  -8  -3 367.432 98.1218   6
  -1  -8  -4 392.697 166.190   2
  -1  -8  -4 232.803 96.9126   6
  -1  -8  -5 493.544 110.661   6
  -1  -8  -5 593.886 184.216   2
  -1  -8  -6 194.125 102.348   6
  -1  -8  -6 271.926 170.259   2
  -1  -8  -7 229.044 105.118   6
  -1  -8  -7 141.912 172.974   2
  -1  -9   7 1931.40 221.415   2
   1   9  -7 1509.72 168.334   7
  -1  -9   7 1554.28 186.341   3
  -1  -9   6 388.016 166.469   2
   1   9  -6 113.774 116.737   7
  -1  -9   6 270.605 137.088   3
  -1  -9   5 1192.14 190.421   2
  -1  -9   5 962.410 156.822   3
  -1  -9   4 334.265 175.857   2
  -1  -9   3 156.000 158.610   2
  -1  -9   2 199.889 164.165   2
  -1  -9   1 378.045 163.157   2
  -1  -9   0 186.436 159.123   2
  -1  -9  -1 404.006 169.769   2
  -1  -9  -2 135.210 167.549   2
   2 -10  -5 407.700 110.877   6
   2 -10  -4 199.128 97.0998   6
   2 -10  -4 188.024 169.205   2
   2 -10  -3-16.4563 155.122   2
   2 -10  -3 288.784 104.657   6
   2 -10  -2 433.628 177.373   2
   2 -10  -2 251.623 97.3112   6
   2 -10  -1 510.896 188.361   2
   2 -10   0 136.333 153.322   2
   2 -10   1 149.479 151.683   2
   2 -10   2 1624.32 218.789   2
   2 -10   3 3720.19 293.318   2
   2 -10   4 2181.97 249.068   2
   2 -10   5 1565.52 233.371   2
   2 -10   5 776.731 142.973   3
   2 -10   6 359.985 193.676   2
   2 -10   6 124.329 122.211   3
   2 -10   7 106.623 119.549   3
   2 -10   7 232.766 197.702   2
   2  -9  -8 354.795 103.011   6
   2  -9  -8 445.375 176.610   2
   2  -9  -7 796.052 185.716   2
   2  -9  -7 220.511 88.0265   6
   2  -9  -6 306.564 157.098   2
   2  -9  -6 258.539 92.6430   6
   2  -9  -5 108.233 83.7712   6
   2  -9  -5 27.7524 141.581   2
   2  -9  -4 1607.01 209.887   2
   2  -9  -4 1604.68 126.137   6
   2  -9  -3 1184.86 187.796   2
   2  -9  -3 996.774 107.199   6
   2  -9  -2 341.473 155.963   2
   2  -9  -1 170.338 129.074   2
   2  -9   0 536.993 149.089   2
   2  -9   1 19.3535 141.928   2
   2  -9   2 218.322 163.995   2
   2  -9   3 4701.66 210.492   3
   2  -9   3 4693.09 282.552   2
   2  -9   4 279.375 165.613   2
   2  -9   4 164.669 106.498   3
   2  -9   5 231.348 99.0303   3
   2  -9   5 308.165 156.795   2
   2  -9   6 2636.15 256.303   2
   2  -9   6 2228.31 163.411   3
   2  -9   7 1087.99 208.567   2
   2  -9   7 600.789 116.613   3
   2  -9   8 500.971 189.936   2
   2  -9   8 378.266 121.632   3
   2  -9   9 131.374 116.357   3
  -2   9  -9 141.002 127.692   6
   2  -9   9 203.913 196.912   2
  -2   9 -10 206.598 136.726   6
   2  -9  10 167.479 123.722   3
   2  -8 -11 227.382 148.348   2
   2  -8 -11 132.565 97.2994   6
   2  -8 -10 198.640 139.372   2
   2  -8 -10 261.680 93.1416   6
   2  -8  -9 1335.17 194.631   2
   2  -8  -9 1409.92 124.220   6
   2  -8  -8 433.591 151.801   2
   2  -8  -8 732.398 102.086   6
   2  -8  -7 304.198 129.349   2
   2  -8  -7 362.665 84.3176   6
   2  -8  -6 66.2169 73.5618   6
   2  -8  -6-117.555 118.663   2
   2  -8  -5 831.749 158.609   2
   2  -8  -5 941.698 101.356   6
   2  -8  -4 2218.64 208.701   2
   2  -8  -4 2906.34 142.225   6
   2  -8  -3 296.734 78.1240   6
   2  -8  -3 173.390 134.119   2
   2  -8  -2-4.42219 120.992   2
   2  -8  -1 821.383 146.991   2
   2  -8   0 817.753 154.880   2
   2  -8   1-25.2272 124.524   2
   2  -8   2 513.344 164.636   2
   2  -8   2 238.874 85.3896   3
   2  -8   3 712.800 104.317   3
   2  -8   3 742.336 159.940   2
   2  -8   4 3857.29 173.379   3
   2  -8   4 4403.84 263.622   2
   2  -8   5 4911.08 275.299   2
   2  -8   5 4900.12 196.415   3
   2  -8   6 3466.31 184.031   3
   2  -8   6 3364.86 258.146   2
   2  -8   7 3199.97 251.281   2
  -2   8  -7 2918.66 183.750   6
   2  -8   7 2505.90 165.165   3
   2  -8   8 79.3124 153.984   2
  -2   8  -8 38.7890 103.838   6
   2  -8   8 161.196 97.8795   3
  -2   8  -9 48.6253 110.884   6
   2  -8   9 159.525 97.8383   3
   2  -8   9 110.335 162.807   2
  -2   8 -10 96.2632 116.016   6
   2  -8  10 31.5731 155.096   2
   2  -8  10 235.575 107.412   3
  -2   8 -11 118.136 121.737   6
   2  -8  11-25.8883 162.579   2
   2  -8  11 187.739 115.092   3
  -2   8 -12 255.045 130.623   6
   2  -8  12 532.669 194.853   2
   2  -8  12 238.037 120.655   3
   2  -7 -13 126.362 95.6473   6
   2  -7 -13 224.283 150.672   2
   2  -7 -12 193.709 94.5261   6
   2  -7 -12 266.190 139.651   2
   2  -7 -11 514.420 97.3538   6
   2  -7 -11 723.862 157.358   2
   2  -7 -10 292.650 84.3694   6
   2  -7 -10-17.1058 120.279   2
   2  -7  -9 163.215 77.7037   6
   2  -7  -9 145.232 125.847   2
   2  -7  -8 432.323 82.3250   6
   2  -7  -8 96.4298 119.028   2
   2  -7  -7 65.6078 63.8487   6
   2  -7  -7-21.4813 108.736   2
   2  -7  -6 1159.49 145.364   2
   2  -7  -6 1566.26 109.856   6
   2  -7  -5 655.286 128.298   2
   2  -7  -5 675.281 83.7315   6
   2  -7  -4 63.9131 106.595   2
   2  -7  -4 150.477 65.1067   6
   2  -7  -3 105.924 59.8947   6
   2  -7  -3 35.3684 104.455   2
   2  -7  -2 3167.83 193.179   2
   2  -7  -2 1042.18 34.6492   1
   2  -7  -1 1392.41 151.992   2
   2  -7   0 1480.35 161.324   2
   2  -7   1 110.513 121.263   2
   2  -7   2 76.7194 66.0857   3
   2  -7   2 326.488 125.144   2
   2  -7   3-13.1630 66.6547   3
   2  -7   3 63.5229 117.835   2
   2  -7   4-24.3584 65.1874   3
   2  -7   4 238.248 138.811   2
  -2   7  -5 7164.82 219.122   6
   2  -7   5 7556.49 231.491   3
   2  -7   5 7528.86 310.969   2
  -2   7  -6 1810.57 136.266   6
   2  -7   6 1626.70 130.738   3
   2  -7   7 683.598 102.134   3
   2  -7   7 1005.44 164.532   2
  -2   7  -7 969.026 113.027   6
  -2   7  -8 3600.04 186.412   6
   2  -7   8 3486.54 245.420   2
   2  -7   8 3433.48 183.918   3
  -2   7  -9 991.043 126.938   6
   2  -7   9 1055.87 122.231   3
   2  -7   9 856.588 176.086   2
  -2   7 -10 261.149 113.689   6
   2  -7  10 273.265 98.4887   3
  -2   7 -11 41.2598 110.226   6
   2  -7  11 122.408 96.8422   3
  -2   7 -12 240.366 126.309   6
   2  -7  12 326.947 117.339   3
   2  -7  13 598.351 134.113   3
  -2   7 -13 587.316 148.683   6
  -2   7 -14 292.054 145.380   6
   2  -7  14 143.884 124.307   3
   2  -6 -14 135.640 94.2636   6
   2  -6 -14 179.532 146.431   2
   2  -6 -13 123.595 88.3613   6
   2  -6 -13 347.505 140.882   2
   2  -6 -12 145.386 79.6289   6
   2  -6 -12 174.171 131.568   2
   2  -6 -11 375.112 132.041   2
   2  -6 -11 467.307 84.5210   6
   2  -6 -10 238.374 75.5445   6
   2  -6 -10-21.9603 108.036   2
   2  -6  -9 265.627 76.6253   6
   2  -6  -9 401.745 126.655   2
   2  -6  -8 1614.69 168.446   2
   2  -6  -8 1243.95 97.7933   6
   2  -6  -7 2574.72 183.687   2
   2  -6  -7 2555.93 122.559   6
   2  -6  -6 482.245 67.1395   1
   2  -6  -6 555.310 118.629   2
   2  -6  -6 749.949 76.6386   6
   2  -6  -5 1191.32 134.014   2
   2  -6  -5 943.284 73.2712   1
   2  -6  -5 1273.30 87.8836   6
   2  -6  -4-58.3855 92.9203   2
   2  -6  -4 128.403 58.4338   6
   2  -6  -4 21.6897 39.7769   1
   2  -6  -3 2147.14 151.950   2
   2  -6  -3 1742.12 70.9406   1
   2  -6  -3 2037.46 99.9341   6
   2  -6  -2 5952.59 232.286   2
  -2   6   2 5800.24 176.164   3
   2  -6  -2 5582.55 164.770   6
   2  -6  -1 50.2084 15.3790   1
   2  -6  -1 49.8516 52.8823   6
   2  -6  -1 22.0510 90.1238   2
  -2   6   1 56.7910 56.3128   3
   2  -6  -1 32.2222 13.0633   1
   2  -6   0 201.408 56.3852   6
   2  -6   0 215.495 109.712   2
  -2   6   0 120.677 59.9465   3
   2  -6   1 3254.67 123.680   6
  -2   6  -1 3226.97 128.581   3
   2  -6   1 3263.83 129.007   3
   2  -6   1 3467.92 192.858   2
  -2   6  -2 1404.66 92.6498   3
   2  -6   2 1540.54 88.4885   6
   2  -6   2 1396.77 84.6073   7
   2  -6   2 1621.87 96.7425   3
   2  -6   2 1603.47 143.322   2
   2  -6   3 727.071 123.778   2
  -2   6  -3 673.398 79.6313   3
   2  -6   3 871.480 84.0882   3
   2  -6   3 605.446 67.5373   7
   2  -6   3 739.015 73.5104   6
  -2   6  -4 3642.98 147.539   6
   2  -6   4 3511.10 146.588   3
   2  -6   4 3489.69 201.572   2
   2  -6   5 443.514 39.9810   1
  -2   6  -5 582.980 87.0533   6
   2  -6   5 694.500 122.782   2
   2  -6   5 447.453 78.8404   3
  -2   6  -5 358.685 41.4867   1
  -2   6  -6 8568.24 223.284   6
  -2   6  -6 8186.40 157.042   1
   2  -6   6 7738.75 292.055   2
   2  -6   6 8036.86 220.672   3
   2  -6   6 8292.02 154.255   1
  -2   6  -7 6786.56 162.300   1
   2  -6   7 6631.23 157.123   1
  -2   6  -7 7309.30 219.249   6
   2  -6   7 6905.79 220.139   3
   2  -6   8 5207.04 156.810   1
  -2   6  -8 5228.39 199.311   6
  -2   6  -8 5183.99 170.654   1
   2  -6   8 4987.13 195.607   3
  -2   6  -9 2702.66 162.516   6
   2  -6   9 3129.79 140.263   1
   2  -6   9 3111.36 169.145   3
   2  -6  10 144.475 66.4472   1
   2  -6  10 38.2111 81.7444   3
  -2   6 -10-16.5582 91.3200   6
   2  -6  11 6.72153 70.7573   1
  -2   6 -11 65.1927 95.9391   6
   2  -6  11 267.660 95.7531   3
  -2   6 -12 31.0016 100.788   6
   2  -6  12 214.162 85.0640   1
   2  -6  12 210.309 102.315   3
   2  -6  13 249.727 110.699   3
  -2   6 -13 247.268 127.069   6
   2  -6  13 174.554 89.0515   1
  -2   6 -14 261.233 127.409   6
   2  -6  14 119.826 110.919   3
   2  -6  14 159.133 98.1730   1
  -2   6 -15 979.250 164.508   6
   2  -6  15 685.059 142.709   3
   2  -5 -16 279.577 111.730   6
   2  -5 -16 313.917 146.165   2
   2  -5 -15 447.819 108.386   6
   2  -5 -15 649.449 157.006   2
   2  -5 -14 586.076 105.438   6
   2  -5 -14 459.528 146.843   2
   2  -5 -13 324.264 92.2586   6
   2  -5 -13 249.091 131.932   2
   2  -5 -12 279.863 121.186   2
   2  -5 -12 376.916 83.7482   6
   2  -5 -11 138.689 75.1014   6
   2  -5 -11 244.601 118.800   2
   2  -5 -10 370.959 73.8371   6
   2  -5 -10 557.012 122.539   2
   2  -5  -9 641.174 82.8349   6
   2  -5  -9 331.013 122.629   2
   2  -5  -8-20.7700 59.7498   6
   2  -5  -8 95.5496 103.384   2
   2  -5  -7 539.777 68.9787   6
   2  -5  -7 407.837 102.102   2
   2  -5  -6 818.735 115.300   2
   2  -5  -6 736.177 71.8369   6
   2  -5  -5 214.089 52.3101   6
   2  -5  -5 288.210 96.0172   2
   2  -5  -5 160.806 47.2885   1
   2  -5  -4 3259.34 168.762   2
  -2   5   4 2864.52 129.439   3
   2  -5  -4 3107.34 105.095   1
   2  -5  -4 3522.74 112.427   6
   2  -5  -3 5103.57 194.813   2
  -2   5   3 5038.68 146.863   3
   2  -5  -3 5485.29 120.927   1
   2  -5  -2 581.277 100.931   2
  -2   5   2 446.236 62.7712   3
   2  -5  -2 589.465 43.5845   1
   2  -5  -1 1597.19 133.663   2
  -2   5   1 1408.13 83.1313   3
   2  -5  -1 1444.93 81.1679   6
   2  -5  -1 1233.26 48.0697   1
   2  -5   0 6660.00 145.433   6
  -2   5   0 6771.56 152.324   3
   2  -5   0 6842.65 168.871   7
   2  -5   0 6970.36 89.1404   1
   2  -5   0 7016.66 230.592   2
   2  -5   1 1486.36 77.6377   6
   2  -5   1 1196.85 35.6219   1
  -2   5  -1 1294.45 76.2872   3
   2  -5   1 1308.24 72.0178   3
   2  -5   1 1465.27 127.203   2
   2  -5   1 1589.81 87.2831   7
   2  -5   2 4463.70 123.185   6
  -2   5  -2 4495.16 130.841   3
   2  -5   2 4109.31 66.6423   1
   2  -5   2 4332.56 129.500   3
   2  -5   2 4241.54 195.487   2
   2  -5   3 84.4187 44.0790   6
   2  -5   3 89.3023 85.3817   2
  -2   5  -3 95.0253 56.1000   6
   2  -5   3 89.4989 23.8313   1
  -2   5  -3 105.958 51.9810   3
   2  -5   3 17.5448 46.1539   3
   2  -5   3 91.2383 36.2443   7
  -2   5  -4 870.514 77.7884   6
   2  -5   4 943.330 121.868   2
   2  -5   4 924.525 81.0889   5
   2  -5   4 911.820 77.7356   3
   2  -5   4 855.879 56.5483   7
   2  -5   4 901.252 51.3086   1
   2  -5   4 878.952 68.3721   6
  -2   5  -4 1002.98 57.6337   1
  -2   5  -5 389.452 71.7472   6
  -2   5  -5 268.767 44.5958   1
   2  -5   5 233.680 45.3197   1
   2  -5   5 469.569 75.8909   3
   2  -5   5 332.606 70.0539   5
   2  -5   5 316.073 54.4888   6
  -2   5  -6 685.170 64.2378   1
   2  -5   6 829.562 92.3778   5
  -2   5  -6 724.127 85.2191   6
   2  -5   6 742.628 86.7078   3
   2  -5   6 516.109 62.2664   1
   2  -5   7 4819.64 168.813   5
   2  -5   7 4766.66 173.441   3
  -2   5  -7 5011.21 148.564   1
  -2   5  -7 5110.23 172.765   6
   2  -5   7 4998.23 144.882   1
  -2   5  -8 7566.62 210.393   6
  -2   5  -8 6986.77 185.577   1
   2  -5   8 7277.22 215.064   5
   2  -5   8 7597.02 190.362   1
   2  -5   8 7489.77 221.405   3
  -2   5  -9 1065.89 113.134   6
   2  -5   9 784.731 109.349   5
   2  -5   9 842.927 107.162   3
   2  -5   9 945.884 93.6069   1
   2  -5  10 4415.91 196.669   3
  -2   5 -10 4782.30 202.667   6
   2  -5  10 4629.66 176.371   1
   2  -5  11 940.860 106.531   1
  -2   5 -11 1153.99 127.539   6
   2  -5  11 817.253 111.679   3
   2  -5  12 120.635 88.8022   3
   2  -5  12 147.943 82.2641   1
  -2   5 -12-107.588 94.4571   6
   2  -5  13 95.1790 79.2767   1
  -2   5 -13 77.5678 102.396   6
   2  -5  13 165.897 94.9146   3
  -2   5 -14 59.6680 107.532   6
   2  -5  14 153.908 93.6944   1
   2  -5  14 192.384 110.348   3
  -2   5 -15 661.597 146.842   6
   2  -5  15 599.949 131.404   3
   2  -5  15 681.469 124.988   1
  -2   5 -16 31.1088 124.490   6
   2  -5  16 109.482 111.894   1
   2  -5  16 236.967 126.503   3
   2  -4 -17 516.209 127.741   6
   2  -4 -17 510.695 169.740   2
   2  -4 -16 286.350 107.116   6
   2  -4 -16 520.784 149.052   2
   2  -4 -15 121.223 93.5365   6
   2  -4 -15 12.9035 115.322   2
   2  -4 -14 175.117 88.0432   6
   2  -4 -14 147.553 116.041   2
   2  -4 -13 268.557 81.3070   6
   2  -4 -13 427.631 132.029   2
   2  -4 -12 47.0177 67.2105   6
   2  -4 -12 19.9460 104.383   2
   2  -4 -11 730.139 89.9415   6
   2  -4 -11 379.353 120.397   2
   2  -4 -10 44.4082 62.7078   6
   2  -4 -10-13.0074 104.563   2
   2  -4  -9 980.274 87.4573   6
   2  -4  -9 1029.04 128.576   2
   2  -4  -8 35.2115 51.0663   6
   2  -4  -8 148.313 104.130   2
   2  -4  -7 2566.74 105.357   6
   2  -4  -7 2521.99 160.309   2
   2  -4  -6 5331.33 110.422   5
   2  -4  -6 5855.92 142.460   6
   2  -4  -6 5389.62 201.529   2
   2  -4  -6 5358.89 159.557   1
   2  -4  -5 2249.42 141.149   2
   2  -4  -5 2314.35 102.423   1
   2  -4  -5 2405.23 91.3754   6
   2  -4  -4 2798.21 150.533   2
   2  -4  -4 2719.11 87.4221   6
   2  -4  -4 2793.33 103.464   1
  -2   4   4 2969.36 161.883   2
   2  -4  -3 17783.7 198.063   6
  -2   4   3 18476.8 344.310   2
   2  -4  -3 18474.7 226.546   1
  -2   4   2 3069.59 158.970   2
   2  -4  -2 2851.36 145.456   2
  -2   4   2 2641.87 93.8506   3
   2  -4  -2 2975.51 82.5823   6
   2  -4  -2 2949.19 89.0554   1
   2  -4  -1 5550.28 193.264   2
  -2   4   1 5478.51 186.943   2
   2  -4  -1 4996.54 112.005   6
  -2   4   1 5151.95 118.143   3
  -2   4   0 10011.0 149.420   3
   2  -4   0 9903.94 146.471   6
   2  -4   0 10270.4 249.111   2
   2  -4   0 10223.1 138.535   1
   2  -4   1 2615.56 81.6727   6
   2  -4   1 2678.24 72.4001   1
  -2   4  -1 2475.33 83.0645   3
   2  -4   1 2309.38 81.7221   3
   2  -4   1 2574.11 138.384   2
   2  -4   2 109.981 81.1913   2
  -2   4  -2 43.2759 42.8535   6
   2  -4   2 15.5149 45.4983   3
   2  -4   2 52.8682 33.5043   1
   2  -4   2 88.9877 41.2287   6
  -2   4  -3 7498.56 136.381   1
   2  -4   3 7196.58 137.684   6
  -2   4  -3 6900.77 147.754   6
   2  -4   3 7063.93 149.428   3
   2  -4   3 7170.88 122.670   1
   2  -4   4 1196.40 69.7986   6
  -2   4  -4 1142.13 65.7518   1
  -2   4  -4 1195.15 76.3277   6
   2  -4   4 1221.21 49.7744   7
   2  -4   4 1220.05 66.9647   1
   2  -4   4 1196.47 78.7496   3
   2  -4   5 2288.35 109.836   3
   2  -4   5 2328.87 94.1271   1
   2  -4   5 2445.94 96.9342   6
  -2   4  -5 2603.48 101.476   1
  -2   4  -5 2302.65 102.490   6
  -2   4  -6 10130.1 205.712   6
   2  -4   6 10478.7 222.603   3
   2  -4   6 10235.9 195.862   1
   2  -4   6 10375.5 195.729   6
  -2   4  -7 280.639 68.3081   6
  -2   4  -7 276.756 56.8837   1
   2  -4   7 210.891 65.2639   3
   2  -4   8 15504.3 298.074   5
   2  -4   8 14479.0 293.275   3
   2  -4   8 14446.2 255.860   1
  -2   4  -8 15334.0 280.660   6
  -2   4  -9 8059.64 220.824   6
   2  -4   9 8407.47 234.038   5
   2  -4   9 7850.68 208.085   1
  -2   4 -10 4778.46 187.034   6
   2  -4  10 4744.84 199.886   3
   2  -4  10 4547.49 173.571   1
   2  -4  10 4890.32 193.501   5
   2  -4  11 1382.50 117.593   1
  -2   4 -11 1323.65 128.780   6
   2  -4  11 1474.90 130.660   5
   2  -4  11 1302.47 132.859   3
   2  -4  12-61.8939 71.2336   1
  -2   4 -12 106.492 98.6655   6
   2  -4  12 244.600 96.7077   3
  -2   4 -13-44.8479 107.340   6
   2  -4  13 143.158 83.9287   1
   2  -4  13 156.346 97.4057   3
  -2   4 -14-34.1163 107.170   6
   2  -4  14 77.8892 101.040   3
   2  -4  14 32.8234 83.7612   1
   2  -4  15 538.142 115.103   1
   2  -4  15 589.054 131.166   3
  -2   4 -15 574.420 138.594   6
  -2   4 -16 50.9472 129.837   6
   2  -4  16 187.725 107.040   1
   2  -4  16 189.512 122.747   3
   2  -3 -17 129.207 110.336   6
   2  -3 -17 216.291 141.838   2
   2  -3 -16 168.791 98.1610   6
   2  -3 -16 271.635 135.094   2
   2  -3 -15 441.863 101.301   6
   2  -3 -15 535.347 137.429   2
   2  -3 -14 776.438 142.506   2
   2  -3 -14 1004.98 118.286   6
   2  -3 -13 952.792 144.957   2
   2  -3 -13 847.250 106.718   6
   2  -3 -12 247.803 77.4353   6
   2  -3 -12 150.614 109.987   2
   2  -3 -11 625.286 123.120   2
   2  -3 -11 721.825 89.9167   6
   2  -3 -10 1323.53 98.4442   6
   2  -3 -10 1474.88 136.508   2
   2  -3  -9 204.310 61.0376   6
   2  -3  -9 28.1541 56.1361   5
   2  -3  -9 81.7361 88.4822   2
   2  -3  -8 380.119 57.7993   6
   2  -3  -8 298.194 61.9249   5
   2  -3  -7 782.113 69.3097   6
   2  -3  -7 783.884 105.998   2
  -2   3   7 851.776 73.6313   6
  -2   3   6 853.605 103.063   2
   2  -3  -6 593.873 96.0060   2
   2  -3  -6 660.137 62.8795   6
  -2   3   6 663.265 65.0868   6
   2  -3  -6 672.680 71.3714   1
  -2   3   5 538.892 58.1624   6
   2  -3  -5 493.172 55.1597   6
   2  -3  -5 414.064 90.8533   2
  -2   3   5 651.794 104.568   2
   2  -3  -5 419.826 64.6855   1
  -2   3   4 45.2642 45.3341   6
   2  -3  -4 41.4293 83.1010   2
  -2   3   4 175.465 93.3732   2
   2  -3  -4-55.1306 50.8728   1
   2  -3  -4-4.80596 39.6553   6
   2  -3  -3 2417.62 124.187   2
   2  -3  -3 2361.94 95.1696   1
   2  -3  -3 2500.83 68.7045   6
   2  -3  -2 6321.81 177.391   2
   2  -3  -2 6311.20 86.0183   6
  -2   3   1 16313.1 256.728   2
  -2   3   1 15322.3 196.773   4
  -2   3   1 15222.3 136.265   3
   2  -3  -1 16518.9 272.915   2
   2  -3   0 13112.9 168.859   1
  -2   3   0 12998.8 116.947   3
   2  -3   0 12832.0 119.267   3
   2  -3   0 12853.4 110.853   6
  -2   3  -1 17878.9 147.616   6
   2  -3   1 17797.5 188.393   1
   2  -3   1 18364.2 154.891   3
   2  -3   1 18538.6 145.320   6
  -2   3  -2 8819.51 124.756   6
   2  -3   2 8853.94 138.119   1
   2  -3   2 9311.71 120.241   6
   2  -3   2 9004.49 130.807   3
  -2   3  -3 623.296 54.7857   6
  -2   3  -3 739.150 61.1270   1
   2  -3   3 726.984 51.0639   6
   2  -3   3 779.130 59.7150   1
   2  -3   3 547.041 58.8691   3
   2  -3   4 8087.11 153.976   1
  -2   3  -4 8137.64 152.968   6
   2  -3   4 8132.85 141.328   6
   2  -3   5 46.8872 51.7536   1
   2  -3   5 46.5862 38.2711   6
  -2   3  -5 110.064 54.0047   6
  -2   3  -5 68.9937 50.4516   1
  -2   3  -6 5204.28 150.244   1
   2  -3   6 5286.59 150.353   1
   2  -3   6 5099.71 132.672   6
  -2   3  -6 5166.51 145.829   6
   2  -3   7 196.890 49.2536   6
  -2   3  -7 140.194 56.7397   6
  -2   3  -7 196.174 56.0602   1
   2  -3   7 245.873 58.3837   1
  -2   3  -8 2929.65 129.893   6
   2  -3   8 2944.87 129.388   1
  -2   3  -9 348.320 79.5991   6
   2  -3   9 438.754 78.8957   1
   2  -3  10 11261.9 275.713   5
  -2   3 -10 10567.9 255.531   6
   2  -3  10 10458.5 253.028   1
  -2   3 -11 533.299 97.5833   6
   2  -3  11 719.902 99.9366   1
   2  -3  11 530.985 101.361   5
   2  -3  12 4187.59 192.575   5
  -2   3 -12 4042.57 190.202   6
   2  -3  12 3874.32 185.016   1
   2  -3  13 939.146 123.254   5
   2  -3  13 712.931 108.868   1
  -2   3 -13 753.855 121.405   6
  -2   3 -14-7.38414 99.2701   6
   2  -3  14 85.9363 79.4482   1
  -2   3 -15 211.382 118.556   6
   2  -3  15 91.2916 86.9551   1
  -2   3 -16-21.4890 119.282   6
   2  -3  16 195.429 103.300   1
  -2   3 -17 520.071 161.136   6
   2  -3  17 424.238 129.327   1
   2  -2 -18 288.369 124.705   6
   2  -2 -18 207.567 162.223   2
   2  -2 -17 287.491 114.629   6
   2  -2 -17 524.701 157.830   2
   2  -2 -16 439.772 107.912   6
   2  -2 -16 365.764 137.411   2
   2  -2 -15 3733.30 196.151   6
   2  -2 -15 3282.26 210.257   2
   2  -2 -14 810.976 112.107   6
   2  -2 -14 252.334 117.370   2
   2  -2 -13 49.9723 74.6769   6
   2  -2 -13 208.867 112.691   2
   2  -2 -12 75.7287 70.4041   6
   2  -2 -12-42.4698 92.6879   2
   2  -2 -11 148.823 69.5152   6
   2  -2 -11 128.222 93.9385   2
   2  -2 -10 198.805 62.0914   6
   2  -2 -10 160.608 93.8596   2
   2  -2  -9 1772.40 127.160   2
   2  -2  -9 1663.35 100.553   6
  -2   2   8 44.4061 72.4981   2
   2  -2  -8 181.439 73.7966   2
  -2   2   8-4.83369 46.8310   6
   2  -2  -8 74.5653 51.6405   6
   2  -2  -7 1573.29 88.0021   6
   2  -2  -7 1869.75 118.567   2
   2  -2  -7 1591.40 103.150   1
  -2   2   7 1980.32 125.677   2
  -2   2   7 1723.87 87.3318   6
   2  -2  -6 89.3987 51.7295   6
  -2   2   6 74.5878 45.8801   6
   2  -2  -6 123.889 57.2275   1
  -2   2   6 232.381 88.0789   2
   2  -2  -6 86.3282 82.2562   2
   2  -2  -5 9834.51 154.288   6
  -2   2   5 10116.0 209.614   2
   2  -2  -5 9783.98 205.264   2
   2  -2  -5 9516.38 193.091   1
  -2   2   5 9853.59 150.235   6
   2  -2  -4 11248.8 140.930   6
   2  -2  -4 11444.8 204.429   2
  -2   2   4 11230.9 138.713   6
   2  -2  -3 504.040 34.9939   6
   2  -2  -3 406.551 58.0993   2
  -2   2   3 505.048 70.3096   2
  -2   2   3 462.652 33.7058   6
   2  -2  -2 12264.0 93.5066   6
  -2   2   2 13076.2 201.218   2
  -2   2   2 12105.7 196.860   4
  -2   2   2 11848.9 92.5197   6
   2  -2  -2 13020.7 205.770   2
   2  -2  -1 61442.3 432.794   2
  -2   2   1 60379.5 395.943   4
   2  -2   0 9900.18 159.144   4
   2  -2   0 10674.3 164.484   1
   2  -2   1 9993.00 154.552   1
  -2   2  -1 10301.4 87.9450   6
  -2   2  -1 10003.4 164.376   1
   2  -2   1 10303.9 87.2533   6
  -2   2  -2 8711.55 155.722   1
  -2   2  -2 8598.30 106.059   6
   2  -2   2 8400.23 103.896   6
   2  -2   3 7243.28 114.869   6
   2  -2   3 7182.92 143.444   1
  -2   2  -3 7162.82 117.866   6
   2  -2   4 40.8568 43.8539   6
  -2   2  -4-14.8520 43.8412   6
   2  -2   4 16.7105 50.3431   1
  -2   2  -4 68.1053 60.1424   1
  -2   2  -5 5060.62 143.155   1
   2  -2   5 4877.99 180.524   2
   2  -2   5 4769.74 120.530   6
  -2   2  -5 4646.04 125.048   6
   2  -2   5 4918.24 141.971   1
   2  -2   6 216.586 49.2236   6
  -2   2  -6 181.593 55.9161   6
  -2   2  -6 159.105 53.5077   1
   2  -2   6 169.288 58.4514   1
  -2   2  -7 1291.35 89.3226   6
   2  -2   7 1108.93 76.1918   6
   2  -2   7 1248.69 88.0610   1
   2  -2   8 11538.3 244.445   1
  -2   2  -8 11262.5 230.585   6
  -2   2  -9 5272.29 174.279   6
   2  -2   9 5510.64 182.227   1
  -2   2 -10 18552.8 332.907   6
   2  -2  10 18046.8 335.405   1
  -2   2 -11 5582.49 206.408   6
   2  -2  11 5991.14 217.736   5
  -2   2 -12 1728.61 137.933   6
   2  -2  12 1513.09 132.439   1
   2  -2  13 198.936 87.5208   1
  -2   2 -13 335.155 104.907   6
   2  -2  13 164.758 99.5031   5
   2  -2  14 294.513 119.992   5
  -2   2 -14 223.840 103.810   6
   2  -2  14 105.284 87.7351   1
  -2   2 -15 185.797 111.884   6
   2  -2  15 24.3272 82.6396   1
  -2   2 -16 54.6945 122.150   6
   2  -2  16 247.642 102.929   1
  -2   2 -17 608.191 160.514   6
   2  -2  17 418.183 124.708   1
   2  -1 -18 167.415 110.968   6
   2  -1 -17 805.624 134.094   6
   2  -1 -17 815.294 163.216   2
   2  -1 -16 2015.37 164.996   6
   2  -1 -16 2286.94 201.136   2
   2  -1 -15 632.390 111.289   6
   2  -1 -15 737.948 142.291   2
   2  -1 -14 260.782 86.5829   6
   2  -1 -14 311.007 118.527   2
   2  -1 -13 506.679 91.4620   6
   2  -1 -13 630.583 129.239   2
   2  -1 -12 1921.66 149.327   2
   2  -1 -12 2136.53 131.483   6
   2  -1 -11 751.082 89.3051   6
   2  -1 -11 678.229 107.127   2
   2  -1 -10 106.831 63.3268   6
   2  -1 -10 19.4031 79.6066   2
   2  -1  -9 1260.03 93.9421   6
  -2   1   9 1237.00 106.581   2
   2  -1  -9 1443.61 107.435   2
  -2   1   8 3715.26 146.700   2
   2  -1  -8 3405.15 137.661   2
   2  -1  -8 3257.17 127.097   6
   2  -1  -7 4.56530 50.1497   6
  -2   1   7 8.09774 46.3826   6
   2  -1  -7-56.6994 57.9110   1
  -2   1   7-8.19482 66.3212   2
   2  -1  -7 141.563 77.1106   2
  -2   1   6 120.771 49.9359   6
  -2   1   6 107.374 69.8822   2
   2  -1  -6 183.412 60.7308   1
   2  -1  -6 157.642 73.8263   2
   2  -1  -6 149.056 55.1565   6
  -2   1   5 2308.90 81.1983   6
   2  -1  -5 2447.90 87.2369   6
   2  -1  -5 2523.50 98.7908   2
  -2   1   4 5275.14 99.1201   6
  -2   1   4 5195.04 114.015   2
   2  -1  -3 111.682 31.8592   6
  -2   1   3 139.913 43.9580   2
   2  -1  -3 138.380 39.6955   2
  -2   1   3 143.673 33.8396   3
  -2   1   3 115.689 28.3340   6
   2  -1  -2 9686.90 107.749   6
  -2   1   2 9386.24 178.731   4
  -2   1   2 9855.87 110.393   3
  -2   1   2 9999.95 102.592   6
   2  -1  -2 9362.44 128.851   2
   2  -1  -1 5280.77 125.595   1
  -2   1   1 5828.93 74.2695   6
   2  -1  -1 5514.50 131.436   4
   2  -1  -1 6131.60 76.7027   3
  -2   1   1 5756.72 75.7499   3
  -2   1   0 4991.64 123.762   1
   2  -1   0 5150.33 73.7768   3
   2  -1   0 5244.07 128.095   1
   2  -1   1 12084.7 183.323   1
  -2   1  -1 12023.5 191.358   1
  -2   1  -1 11765.9 121.186   6
  -2   1  -2 42985.0 359.706   1
   2  -1   2 43526.5 349.415   1
  -2   1  -2 43575.0 260.037   6
   2  -1   2 43258.0 277.407   6
  -2   1  -3 42368.5 375.241   1
   2  -1   3 43105.8 396.393   2
   2  -1   3 42217.4 352.522   1
  -2   1  -3 42627.8 289.789   6
   2  -1   3 42052.8 300.245   6
  -2   1  -4 2705.32 112.003   1
  -2   1  -4 2543.01 90.0789   6
   2  -1   4 2450.27 121.250   2
   2  -1   4 2596.37 107.601   1
   2  -1   4 2476.14 71.5490   7
   2  -1   4 2500.05 90.5008   6
   2  -1   5-34.3027 53.6307   1
   2  -1   5-50.1762 50.1310   6
  -2   1  -5 43.7249 49.0960   6
  -2   1  -5 10.4238 53.1808   1
   2  -1   5 104.367 79.5339   2
   2  -1   5 17.6437 37.9163   7
  -2   1  -6 4601.90 134.803   6
  -2   1  -6 4357.30 144.079   1
   2  -1   6 4888.04 152.336   1
   2  -1   6 4605.48 131.656   6
   2  -1   7 26.4337 52.6272   1
  -2   1  -7 92.5297 53.6369   6
  -2   1  -8 3643.42 136.998   6
   2  -1   8 3489.53 146.687   1
  -2   1  -9 47.9905 62.6151   6
   2  -1   9 53.8712 64.7362   1
  -2   1 -10 4054.00 164.872   6
   2  -1  10 3993.59 172.906   1
  -2   1 -11 555.849 94.5882   6
   2  -1  11 344.149 89.9322   1
  -2   1 -12 5804.10 213.648   6
   2  -1  12 5397.81 216.314   1
  -2   1 -13 361.740 102.658   6
   2  -1  13 258.023 88.4308   1
   2  -1  13 415.409 111.731   5
  -2   1 -14 3149.36 190.816   6
   2  -1  14 3262.68 196.241   5
   2  -1  14 2926.07 189.289   1
  -2   1 -15 617.477 133.901   6
   2  -1  15 547.043 132.177   5
   2  -1  15 521.695 111.536   1
  -2   1 -16 67.2677 121.424   6
   2  -1  16 297.289 112.313   1
  -2   1 -17 187.635 142.473   6
   2   0 -18 459.850 128.036   6
  -2   0  18 230.371 150.109   3
   2   0 -17 110.359 103.551   6
   2   0 -16 192.186 101.464   6
   2   0 -15 1397.41 141.845   6
   2   0 -14 355.401 96.2082   6
   2   0 -13 13678.6 327.777   6
   2   0 -13 12969.3 339.473   2
   2   0 -12 2511.23 148.027   6
   2   0 -12 1999.26 152.886   2
   2   0 -11 177.545 76.7829   6
   2   0 -11 371.154 99.2445   2
   2   0 -10 2255.33 137.137   2
   2   0 -10 2143.44 128.045   6
   2   0  -9 2735.06 132.486   6
  -2   0   9 2799.94 128.027   2
   2   0  -9 2734.17 135.208   2
  -2   0   8 1017.77 84.6990   2
   2   0  -8 941.492 85.7364   2
   2   0  -8 939.569 82.5795   6
  -2   0   7 4495.60 138.090   6
  -2   0   7 4716.65 137.357   2
   2   0  -7 4895.78 138.675   2
   2   0  -7 5279.10 163.085   1
   2   0  -7 5009.03 151.054   6
  -2   0   7 4576.88 161.814   3
  -2   0   6 156.530 55.9041   6
   2   0  -6 61.6212 56.3943   6
   2   0  -6 98.1162 60.5724   1
  -2   0   6 84.1815 58.6302   2
  -2   0   6 151.295 64.2808   3
   2   0  -6 175.637 62.0494   2
  -2   0   5 3118.22 100.727   6
   2   0  -5 3210.06 111.771   6
  -2   0   5 3435.00 88.1291   2
   2   0  -5 3264.44 87.4180   2
  -2   0   5 2952.04 114.995   3
  -2   0   4 557.513 55.1341   6
  -2   0   4 512.234 33.1216   2
   2   0  -4 474.490 33.0915   2
  -2   0   4 504.832 55.2918   3
   2   0  -4 502.631 56.5552   6
  -2   0   3 11938.3 159.852   6
  -2   0   3 11674.9 215.443   4
   2   0  -3 11858.3 168.144   3
  -2   0   3 11965.0 174.325   3
  -2   0   2 5594.96 107.742   6
   2   0  -2 5453.93 142.237   4
  -2   0   2 5673.13 142.482   4
   2   0  -2 5445.94 109.848   3
  -2   0   2 5786.55 116.534   3
   2   0  -2 5465.24 116.886   6
   2   0  -1 36.8662 45.9558   1
   2   0  -1 104.833 46.9226   4
  -2   0   1 127.256 37.4859   6
  -2   0   1 133.822 37.0326   3
   2   0  -1 87.4301 25.0419   2
   2   0  -1 62.0103 32.5821   3
   2   0   0 18052.7 237.574   1
   2   0   0 18289.5 195.978   3
   2   0   1 39024.7 344.079   1
  -2   0  -1 38804.8 354.223   1
   2   0   1 39721.3 305.114   2
  -2   0  -1 38838.8 322.803   2
  -2   0  -2 14568.3 223.557   1
   2   0   2 15268.0 220.028   1
   2   0   2 14800.8 213.335   2
  -2   0  -2 15043.5 229.435   2
  -2   0  -2 15456.8 191.307   6
  -2   0  -3 8112.18 176.943   1
   2   0   3 8294.40 188.444   2
  -2   0  -3 8507.04 196.311   2
   2   0   3 8036.17 169.261   1
   2   0   3 7963.15 144.244   7
  -2   0  -3 8440.45 152.052   6
  -2   0  -4 3149.12 127.648   1
   2   0   4 2812.91 133.373   2
  -2   0  -4 2789.15 142.107   2
   2   0   4 2248.95 105.487   1
  -2   0  -4 2560.60 97.0721   6
   2   0   4 2525.71 88.6434   7
   2   0   4 2775.59 104.173   6
  -2   0  -5 4104.51 140.741   1
  -2   0  -5 4061.20 169.791   2
  -2   0  -5 4068.99 125.942   6
   2   0   5 4048.01 135.747   1
   2   0   5 4211.68 114.384   7
   2   0   5 4316.63 134.610   6
   2   0   5 4491.86 168.424   2
   2   0   6 62.6882 52.6518   6
  -2   0  -6-5.96484 50.2122   6
   2   0   6 48.4759 57.6662   1
  -2   0  -6-99.7034 89.2831   2
  -2   0  -7 1154.23 124.654   2
   2   0   7 1373.83 96.2128   1
  -2   0  -7 1408.97 91.4052   6
  -2   0  -8 90.8639 57.5825   6
   2   0   8 28.9578 60.3891   1
  -2   0  -8 156.693 92.7867   2
  -2   0  -9 196.455 69.8552   6
   2   0   9 238.043 73.8012   1
  -2   0  -9 164.019 112.075   2
  -2   0 -10 4528.93 239.483   2
  -2   0 -10 4896.59 180.479   6
   2   0  10 4760.31 191.793   1
   2   0  11 8438.06 258.698   1
  -2   0 -11 8618.33 244.660   6
  -2   0 -12 17750.3 359.422   6
   2   0  12 16747.6 370.913   1
   2   0  13 1679.24 143.488   1
  -2   0 -13 1861.27 148.277   6
   2   0  14 352.412 99.1975   1
  -2   0 -14 218.975 106.764   6
   2   0  14 352.686 115.546   5
   2   0  15 216.484 102.731   1
   2   0  15 199.434 123.589   5
  -2   0 -15 91.9738 111.048   6
  -2   0 -16 56.1262 120.394   6
   2   0  16 187.299 103.468   1
   2   1 -18 243.248 121.196   6
  -2  -1  18 250.560 142.194   3
   2   1 -17 271.214 117.335   6
  -2  -1  17-35.9877 122.687   3
  -2  -1  16 176.903 120.292   3
   2   1 -16 177.880 99.2089   6
   2   1 -15 977.586 125.773   6
  -2  -1  15 811.003 141.977   3
   2   1 -14 3985.51 197.005   6
  -2  -1  14 3408.46 207.437   3
   2   1 -13 2928.54 167.060   6
  -2  -1  13 2733.28 179.638   3
   2   1 -12 1404.33 120.804   6
  -2  -1  12 1218.79 128.439   3
   2   1 -11 1140.18 105.393   6
  -2  -1  11 1170.08 117.497   3
   2   1 -10 1568.10 112.872   6
  -2  -1  10 1456.23 107.331   2
  -2  -1  10 1560.49 121.906   3
   2   1  -9 134.205 60.9970   6
  -2  -1   9 30.9616 60.5629   2
  -2  -1   9 59.2467 65.9973   3
   2   1  -8 45.3805 60.4047   6
  -2  -1   8-59.1672 59.7489   2
  -2  -1   8 65.7567 65.3081   3
  -2  -1   7 981.160 78.4890   6
   2   1  -7 960.318 86.8348   6
  -2  -1   7 979.309 76.0037   2
  -2  -1   7 1099.65 94.8667   3
   2   1  -7 1024.36 85.8786   1
  -2  -1   6 3778.47 127.106   6
  -2  -1   6 3450.99 138.436   3
   2   1  -6 3656.92 136.896   6
   2   1  -5 626.726 76.5552   6
  -2  -1   5 749.873 53.7314   2
  -2  -1   5 778.489 70.8124   6
   2   1  -5 600.670 72.0236   3
  -2  -1   5 775.238 82.6488   3
  -2  -1   4 6338.65 149.020   6
   2   1  -4 5764.76 149.139   6
  -2  -1   4 5223.56 78.4006   2
  -2  -1   4 5394.89 166.479   4
   2   1  -4 6173.31 154.732   3
  -2  -1   4 6266.95 156.577   3
  -2  -1   3 6656.12 146.759   6
   2   1  -3 6837.21 154.195   6
  -2  -1   3 6855.46 170.739   4
   2   1  -3 6685.91 153.451   3
  -2  -1   3 6846.09 154.330   3
  -2  -1   2 5950.10 82.2378   2
  -2  -1   2 5837.91 132.833   6
   2   1  -2 5805.12 154.449   4
   2   1  -2 6059.08 141.001   3
  -2  -1   2 6420.79 150.244   3
   2   1  -2 5403.10 148.664   1
   2   1  -1 5510.08 148.945   1
   2   1  -1 5540.95 105.660   2
   2   1  -1 5517.12 147.083   4
  -2  -1   1 5853.43 101.250   2
   2   1  -1 5786.85 142.636   3
  -2  -1   1 5450.98 133.736   3
  -2  -1   1 5446.28 133.554   6
   2   1   0 14441.3 225.097   1
   2   1   0 14558.8 190.490   2
  -2  -1   0 15066.4 239.907   1
   2   1   0 14213.5 210.435   3
  -2  -1  -1 62.8680 53.4254   1
   2   1   1 75.7011 64.9284   2
   2   1   1-22.5922 53.1707   1
  -2  -1  -1-2.92981 60.1754   2
   2   1   1 72.7757 53.3485   3
  -2  -1  -2 1018.16 79.9109   1
   2   1   2 956.446 90.7987   2
  -2  -1  -2 854.026 88.6948   2
   2   1   2 1076.43 78.3445   1
   2   1   2 982.008 78.9405   7
  -2  -1  -3 853.995 80.5854   1
   2   1   3 768.085 89.5751   2
  -2  -1  -3 921.097 74.6331   6
  -2  -1  -3 708.441 90.3703   2
   2   1   3 803.613 76.5535   1
   2   1   3 938.132 79.6565   7
   2   1   4 32733.8 394.983   2
  -2  -1  -4 31272.8 390.723   2
  -2  -1  -4 34077.3 387.239   1
   2   1   4 32081.6 361.357   1
   2   1   4 33193.1 338.133   7
  -2  -1  -4 33223.9 347.038   6
   2   1   5 30486.5 414.028   2
   2   1   5 30827.6 364.859   1
   2   1   5 31442.4 338.242   7
  -2  -1  -5 31136.3 345.417   6
   2   1   6 22.6484 47.0988   7
  -2  -1  -6-19.3654 54.5698   6
   2   1   6 31.1617 57.0869   1
  -2  -1  -6 109.457 82.5798   2
  -2  -1  -7 150.231 58.5329   6
   2   1   7 138.189 65.0559   1
  -2  -1  -7 77.2934 88.8316   2
  -2  -1  -8 1010.58 124.994   2
  -2  -1  -8 1212.15 97.1754   6
   2   1   8 1274.53 108.110   1
  -2  -1  -9 73.7369 68.3905   6
   2   1   9 186.338 80.1246   1
  -2  -1  -9 40.5238 105.750   2
  -2  -1 -10 817.563 97.2170   6
  -2  -1 -10 749.838 152.843   2
   2   1  10 448.759 95.2190   1
  -2  -1 -11 126.051 75.9501   6
  -2  -1 -11 35.5344 120.881   2
   2   1  11 107.657 90.6862   1
  -2  -1 -12 2960.51 167.311   6
  -2  -1 -12 1998.80 204.604   2
   2   1  12 2165.39 163.806   1
   2   1  12 3093.59 173.178   5
  -2  -1 -13 1507.93 142.780   6
  -2  -1 -13 1221.32 198.382   2
   2   1  13 1751.54 152.378   5
   2   1  13 1425.00 153.861   1
   2   1  14 1429.45 159.298   1
  -2  -1 -14 1320.25 193.484   2
   2   1  14 1855.83 160.037   5
  -2  -1 -14 1782.72 159.158   6
  -2  -1 -15 406.839 126.217   6
   2   1  15 300.934 122.531   1
   2   1  15 359.992 123.615   5
  -2  -1 -15 258.306 149.134   2
  -2  -1 -16 1067.24 212.683   2
  -2  -1 -16 1651.38 177.415   6
   2   1  16 1189.89 171.368   1
   2   2 -18 605.222 145.193   6
  -2  -2  18 650.836 171.126   3
   2   2 -17 370.024 125.526   6
  -2  -2  17 393.316 149.050   3
   2   2 -16 279.964 111.141   6
  -2  -2  16 339.966 133.825   3
   2   2 -15 465.819 109.629   6
  -2  -2  15 471.967 132.707   3
   2   2 -14-79.0892 85.8314   6
  -2  -2  14 156.214 109.189   3
  -2  -2  13 2837.00 190.703   3
   2   2 -13 3232.44 184.376   6
   2   2 -12 18.5556 76.4659   6
  -2  -2  12 51.8857 95.3802   3
   2   2 -11 26830.0 428.550   6
  -2  -2  11 25506.0 448.740   3
  -2  -2  10 8764.41 213.480   2
  -2  -2  10 9213.68 262.633   3
   2   2  -9 603.936 86.8950   6
  -2  -2   9 510.773 76.1635   2
  -2  -2   9 414.785 92.1637   3
   2   2  -8 8428.20 228.445   6
  -2  -2   8 8618.72 184.033   2
  -2  -2   8 8479.26 236.634   3
   2   2  -7 4574.09 166.793   6
   2   2  -7 4660.48 155.974   1
  -2  -2   7 4305.23 134.675   2
  -2  -2   7 4511.48 167.812   3
   2   2  -6 3305.09 140.634   6
  -2  -2   6 3520.43 147.119   3
  -2  -2   5 5546.86 163.336   6
  -2  -2   5 4934.25 168.179   4
   2   2  -5 5042.07 160.878   3
  -2  -2   5 5362.83 166.621   3
   2   2  -5 5152.27 163.352   6
  -2  -2   4 269.968 60.8193   2
  -2  -2   4 174.810 60.7300   6
   2   2  -4 149.688 64.9083   6
  -2  -2   4 203.502 66.6681   4
   2   2  -4 89.9163 57.6479   3
  -2  -2   4 136.614 62.5944   3
  -2  -2   3 1750.56 79.5310   2
  -2  -2   3 1955.85 101.968   6
   2   2  -3 1832.69 107.616   6
   2   2  -3 1985.53 102.067   3
  -2  -2   3 2099.59 110.227   3
  -2  -2   2 430.833 65.4497   2
  -2  -2   2 387.617 67.7052   6
   2   2  -2 269.498 73.1636   4
  -2  -2   2 399.182 69.1874   3
   2   2  -2 346.476 65.7560   3
   2   2  -2 445.500 67.5060   2
   2   2  -2 317.312 68.9565   1
   2   2  -1 3254.22 126.305   1
  -2  -2   1 3828.42 120.380   2
  -2  -2   1 3535.23 131.022   6
   2   2  -1 3554.18 134.351   4
   2   2  -1 3576.18 124.277   2
   2   2  -1 3652.44 134.789   3
  -2  -2   1 3656.19 138.315   3
   2   2   0 1937.42 99.8367   2
  -2  -2   0 2172.25 105.330   2
   2   2   0 1875.81 104.286   3
  -2  -2   0 2051.69 108.337   1
   2   2   0 2045.64 100.928   1
  -2  -2  -1-17.0001 53.8897   1
   2   2   1-34.5584 60.7198   7
   2   2   1 25.2971 67.8823   2
  -2  -2  -1-7.15704 68.9231   2
   2   2   1-1.20033 55.0750   1
   2   2   1 30.8056 55.9600   3
  -2  -2  -2 4934.11 156.053   1
   2   2   2 5173.22 169.200   2
  -2  -2  -2 4892.44 162.284   2
   2   2   2 4904.81 140.477   1
   2   2   2 5073.33 167.182   3
   2   2   2 4689.40 147.187   7
  -2  -2  -3 5248.07 160.115   1
  -2  -2  -3 4954.93 174.296   2
   2   2   3 5193.40 152.598   1
   2   2   3 4974.68 170.501   2
  -2  -2  -3 4847.19 145.470   6
   2   2   3 5027.50 150.742   7
  -2  -2  -4 4392.64 176.941   2
   2   2   4 4250.23 143.510   1
   2   2   4 4714.46 158.617   7
  -2  -2  -4 4970.45 155.973   6
   2   2   5 3710.70 142.903   7
   2   2   5 3595.99 142.575   1
  -2  -2  -5 3847.11 141.072   6
   2   2   6 1466.12 105.461   1
   2   2   6 1330.62 96.5151   7
  -2  -2  -6 1269.61 97.6415   6
  -2  -2  -7 758.901 121.384   2
  -2  -2  -7 920.255 88.3816   6
   2   2   7 795.254 90.3499   1
  -2  -2  -8 101.133 71.2377   6
   2   2   8 60.6175 73.6881   1
  -2  -2  -8 16.2620 105.870   2
  -2  -2  -9 424.910 85.1236   6
   2   2   9 434.982 93.9481   1
  -2  -2  -9 281.156 122.376   2
  -2  -2 -10 25.1714 77.2193   6
   2   2  10 16.5735 80.9687   1
  -2  -2 -10-41.4753 120.518   2
  -2  -2 -11 134.832 82.6424   6
   2   2  11 86.9372 91.7462   1
   2   2  12 1215.80 139.719   1
  -2  -2 -12 1432.32 131.507   6
  -2  -2 -13 6156.56 245.093   6
  -2  -2 -13 5531.02 310.291   2
   2   2  13 5508.35 256.826   1
  -2  -2 -14 12381.5 454.433   2
   2   2  14 11728.4 379.633   1
  -2  -2 -15 408.424 128.797   6
   2   2  15 123.075 120.250   1
   2   3 -17 350.157 124.873   6
  -2  -3  17 251.883 145.065   3
   2   3 -16 258.931 113.178   6
  -2  -3  16 299.992 128.414   3
   2   3 -15 258.534 107.733   6
  -2  -3  15 157.999 118.383   3
   2   3 -14 226.682 100.093   6
  -2  -3  14 291.323 117.511   3
   2   3 -13 1208.06 133.500   6
  -2  -3  13 1022.68 137.727   3
   2   3 -12 3208.46 180.511   6
  -2  -3  12 2835.25 185.076   3
   2   3 -11 4905.86 207.696   6
  -2  -3  11 4767.24 217.843   3
  -2  -3  10 3096.22 149.921   2
  -2  -3  10 3488.62 185.962   3
   2   3  -9 3182.65 163.967   6
  -2  -3   9 2665.10 133.535   2
  -2  -3   9 2978.34 164.148   3
  -2  -3   8 337.509 73.1158   2
   2   3  -8 322.189 79.0962   6
  -2  -3   8 171.618 77.7768   3
  -2  -3   7 129.894 64.9876   2
   2   3  -7 195.867 66.9395   6
   2   3  -7 141.771 57.3292   1
  -2  -3   7 185.057 71.7718   3
   2   3  -6 409.282 77.5254   6
  -2  -3   6 449.923 81.7115   3
  -2  -3   6 285.385 72.9280   2
  -2  -3   6 477.422 80.2123   4
   2   3  -5 47.1832 64.3347   6
  -2  -3   5-27.7940 56.7043   2
  -2  -3   5-41.0857 58.6141   4
  -2  -3   5 51.4238 63.8719   3
  -2  -3   4 771.097 84.8018   3
   2   3  -4 746.346 84.8686   6
  -2  -3   3 1179.82 84.7721   2
   2   3  -3 950.015 87.6422   1
  -2  -3   3 1256.32 98.5339   3
   2   3  -2 7675.98 191.627   1
   2   3  -2 8235.32 196.091   4
   2   3  -2 8365.33 201.901   2
  -2  -3   2 7973.62 204.900   3
  -2  -3   1 6452.39 170.256   2
   2   3  -1 5448.39 158.086   1
  -2  -3   1 6207.25 191.601   3
   2   3  -1 6416.88 183.562   2
   2   3  -1 5842.19 165.569   4
   2   3  -1 5339.35 169.631   7
   2   3   0 606.626 83.1916   2
  -2  -3   0 676.266 89.2291   2
   2   3   0 625.153 75.8008   1
   2   3   0 607.739 79.0767   7
  -2  -3   0 573.910 68.9675   1
   2   3   1 6411.73 196.137   2
   2   3   1 6133.95 159.816   1
  -2  -3  -1 5988.91 175.434   1
   2   3   1 5799.86 174.568   7
  -2  -3  -2 4231.39 151.902   1
  -2  -3  -2 4256.28 167.842   2
   2   3   2 4450.37 142.543   1
   2   3   2 4046.89 167.454   2
   2   3   2 4008.81 147.400   7
  -2  -3  -3 589.042 99.3394   2
   2   3   3 655.925 74.4591   1
   2   3   3 758.683 95.9593   7
  -2  -3  -4 551.726 103.842   2
   2   3   4 608.917 74.4902   1
   2   3   4 477.495 77.7798   7
  -2  -3  -4 485.975 78.2760   6
  -2  -3  -5 24.9637 62.4332   6
   2   3   5-1.94623 64.5713   1
  -2  -3  -5-115.913 103.304   2
   2   3   5 51.0887 62.8078   7
  -2  -3  -6 10679.5 308.593   2
   2   3   6 11372.8 258.212   1
  -2  -3  -6 10953.9 249.564   6
   2   3   7 16031.5 316.480   1
  -2  -3  -7 15182.3 299.156   6
  -2  -3  -8 175.018 74.3962   6
   2   3   8 231.053 86.1357   1
  -2  -3  -8 67.7622 118.107   2
  -2  -3  -9-101.431 80.8290   6
   2   3   9 4.66992 81.8738   1
  -2  -3  -9 157.939 118.390   2
  -2  -3 -10 474.144 96.7788   6
   2   3  10 573.623 110.846   1
  -2  -3 -10 407.297 139.034   2
  -2  -3 -11 72.4053 91.1335   6
  -2  -3 -11-5.24756 137.819   2
   2   3  11-70.5505 88.1131   1
  -2  -3 -12-6.23396 92.6145   6
   2   3  12 316.745 109.814   5
   2   3  12 155.857 100.685   1
  -2  -3 -12 218.365 148.403   2
   2   3  13 111.051 108.418   1
  -2  -3 -13 145.553 104.772   6
   2   3  13 125.190 112.394   5
  -2  -3 -13 147.924 148.269   2
  -2  -3 -14 1266.50 155.588   6
  -2  -3 -14 1241.49 225.026   2
   2   3  14 1562.11 160.446   5
   2   3  14 1155.28 165.021   1
   2   4 -16 1606.51 179.117   6
  -2  -4  16 2233.60 213.386   3
   2   4 -15 622.564 130.852   6
  -2  -4  15 545.013 139.830   3
   2   4 -14 517.812 119.998   6
  -2  -4  14 628.681 132.606   3
   2   4 -13 853.924 128.011   6
  -2  -4  13 597.856 126.863   3
   2   4 -12 406.225 102.675   6
  -2  -4  12 256.147 105.839   3
   2   4 -11 3116.66 182.035   6
  -2  -4  11 2827.58 184.658   3
  -2  -4  10 297.344 101.916   2
   2   4 -10 64.7878 79.5422   6
  -2  -4  10 48.2339 83.2002   3
   2   4  -9 28876.8 465.359   6
  -2  -4   9 30097.4 439.735   2
   2   4  -8 16867.5 355.804   6
  -2  -4   8 16688.6 329.835   4
   2   4  -7 3216.11 165.139   6
  -2  -4   7 3120.21 147.721   4
  -2  -4   7 2944.46 159.863   3
  -2  -4   7 2923.12 155.612   2
   2   4  -6 9595.16 265.473   6
  -2  -4   6 10219.8 255.533   2
  -2  -4   5 1000.24 106.041   2
   2   4  -5 962.200 101.588   6
   2   4  -5 833.523 93.1618   1
  -2  -4   5 803.300 95.8858   3
  -2  -4   4 3055.02 145.978   2
  -2  -4   4 2669.05 144.596   3
   2   4  -4 2940.85 144.796   7
   2   4  -4 2707.07 133.416   1
   2   4  -3 2401.58 118.542   1
   2   4  -3 2322.48 133.830   7
  -2  -4   3 2484.49 135.301   2
   2   4  -2 273.216 61.3412   1
   2   4  -2 192.056 78.4983   7
  -2  -4   2 337.509 84.8954   2
   2   4  -2 315.786 80.6900   2
  -2  -4   2 233.923 80.0966   3
   2   4  -1 1128.09 113.628   2
   2   4  -1 1230.95 98.1919   1
   2   4  -1 1176.56 105.276   7
   2   4  -1 1087.20 91.6164   4
  -2  -4   1 1255.89 108.831   2
  -2  -4   1 1169.55 106.963   3
  -2  -4   0 125.435 81.1843   2
   2   4   0 68.7296 52.4802   1
   2   4   0 43.5303 67.6591   7
  -2  -4  -1 185.761 63.0522   1
   2   4   1 168.205 67.1683   7
   2   4   1 150.634 57.9158   1
  -2  -4  -1 342.376 100.511   2
   2   4   2 447.385 69.2041   1
   2   4   2 311.122 85.1738   7
  -2  -4  -3 171.008 98.3008   2
   2   4   3 46.1441 69.6131   7
   2   4   3 113.519 62.7232   1
   2   4   4 278.433 73.7629   1
  -2  -4  -4 192.363 69.6083   6
  -2  -4  -4 214.189 108.888   2
   2   4   4 208.202 82.2039   7
  -2  -4  -5 254.041 80.6552   6
   2   4   5 329.151 80.7960   1
  -2  -4  -5 259.313 115.928   2
   2   4   5 368.808 86.5989   7
  -2  -4  -6 473.396 84.3916   6
   2   4   6 489.303 89.5730   1
  -2  -4  -6 492.148 132.974   2
  -2  -4  -7 847.820 149.958   2
   2   4   7 1018.25 111.542   1
  -2  -4  -7 1267.10 113.682   6
  -2  -4  -8 536.986 88.0864   6
   2   4   8 555.713 102.923   1
  -2  -4  -8 482.734 146.768   2
  -2  -4  -9 312.388 87.4137   6
  -2  -4  -9 145.619 132.668   2
   2   4   9 324.117 97.2863   1
   2   4  10 79.7940 91.7352   1
  -2  -4 -10 137.780 85.5574   6
  -2  -4 -10 384.381 138.709   2
  -2  -4 -11 166.021 91.1197   6
  -2  -4 -11 270.894 151.482   2
   2   4  11 21.2286 91.1882   1
  -2  -4 -12 122.544 96.1999   6
   2   4  12 97.9377 109.947   1
  -2  -4 -12 263.108 160.795   2
   2   4  13 276.090 124.343   1
  -2  -4 -13 150.351 106.071   6
  -2  -4 -13-7.39893 176.638   2
   2   5 -15 853.585 164.980   6
  -2  -5  15 382.420 137.562   3
   2   5 -14 525.235 146.848   6
  -2  -5  14 95.6209 109.137   3
  -2  -5  13 242.474 130.934   2
   2   5 -13 393.741 126.950   6
  -2  -5  13 298.090 109.516   3
   2   5 -12 487.241 124.921   6
  -2  -5  12 319.286 127.165   2
  -2  -5  12 314.812 107.223   3
   2   5 -11 1198.10 144.336   6
  -2  -5  11 922.742 129.610   4
  -2  -5  11 1078.67 136.477   3
  -2  -5  11 1061.00 149.451   2
   2   5 -10 1511.80 153.075   6
  -2  -5  10 1361.35 132.611   4
  -2  -5  10 1475.20 145.667   3
  -2  -5  10 1449.80 159.610   2
   2   5  -9 3585.41 198.871   6
  -2  -5   9 3131.33 161.704   4
  -2  -5   9 3089.59 180.802   3
  -2  -5   9 3365.90 190.241   2
   2   5  -8 4397.13 216.851   6
  -2  -5   8 4431.22 215.968   3
  -2  -5   8 4342.80 206.660   2
   2   5  -7 5659.79 232.410   6
  -2  -5   7 6039.36 230.884   2
  -2  -5   7 5377.56 225.932   3
   2   5  -6 41.5075 71.1321   1
   2   5  -6 247.360 98.1630   6
  -2  -5   6 204.416 101.572   2
   2   5  -6 91.5001 81.5296   7
  -2  -5   6 282.119 94.1061   3
   2   5  -5 273.619 79.7361   1
  -2  -5   5 431.452 100.988   2
  -2  -5   5 277.165 89.3231   3
   2   5  -5 283.077 93.6384   7
   2   5  -4 633.765 85.7428   1
  -2  -5   4 880.535 107.018   3
  -2  -5   4 690.396 111.455   2
   2   5  -4 601.381 98.6382   7
  -2  -5   3 459.179 106.195   2
   2   5  -3 284.414 70.7320   1
  -2  -5   3 467.588 98.0421   3
   2   5  -3 300.164 90.6146   7
   2   5  -2 69.0408 77.7580   7
  -2  -5   2 9.26089 94.5127   2
   2   5  -2 192.854 67.6513   1
  -2  -5   2 16.4429 79.0499   3
   2   5  -1 1102.79 88.6026   1
   2   5  -1 1029.60 106.024   4
   2   5  -1 1056.93 109.124   7
  -2  -5   1 1225.48 126.807   2
  -2  -5   0 4928.35 210.129   2
   2   5   0 4593.83 152.915   1
   2   5   0 4700.44 201.731   7
  -2  -5  -1 4427.27 214.438   2
   2   5   1 4245.08 153.172   1
   2   5   1 4172.97 192.731   7
   2   5   2 43.3225 78.3053   7
  -2  -5  -2 3.79580 113.587   2
   2   5   2 9.94882 62.6513   1
  -2  -5  -3 2556.10 176.657   2
   2   5   3 2628.76 160.765   7
   2   5   3 3063.63 141.674   1
   2   5   4 714.923 93.7243   1
  -2  -5  -4 447.511 130.762   2
   2   5   4 572.317 97.2113   7
  -2  -5  -4 675.715 92.9619   6
  -2  -5  -5 329.610 88.2921   6
   2   5   5 319.417 83.2952   1
  -2  -5  -5 249.855 131.371   2
  -2  -5  -6 310.732 83.7578   6
   2   5   6 352.562 91.3992   1
  -2  -5  -6 539.476 141.440   2
  -2  -5  -7 77.1812 76.6132   6
   2   5   7-52.0446 83.9043   1
   2   5   8 3604.56 191.935   1
  -2  -5  -8 3661.50 179.876   6
  -2  -5  -9 6687.12 236.547   6
   2   5   9 6771.80 258.739   1
  -2  -5 -10 361.967 98.6293   6
   2   5  10 322.099 114.165   1
  -2  -5 -10 353.910 151.457   2
  -2  -5 -11 55.2724 90.7420   6
  -2  -5 -11-48.4495 145.576   2
   2   5  11 99.3998 106.041   1
   2   5  12 174.676 121.797   1
  -2  -5 -12 273.328 175.051   2
   2   6 -14 3647.90 257.564   6
  -2  -6  14 2571.29 227.401   3
   2   6 -13 803.548 162.519   6
  -2  -6  13 443.872 134.341   3
   2   6 -12 242.199 129.784   6
   2   6 -12 455.903 116.917   7
  -2  -6  12 422.604 121.898   3
   2   6 -11 383.668 138.241   6
   2   6 -11 381.200 113.882   7
  -2  -6  11 454.029 123.720   3
   2   6 -10 721.278 147.546   6
  -2  -6  10 662.888 126.653   3
   2   6 -10 662.464 116.327   7
  -2  -6  10 1019.86 159.237   2
   2   6  -9 1638.56 170.883   6
  -2  -6   9 1673.99 178.620   2
  -2  -6   9 1779.64 160.268   3
   2   6  -9 1576.20 146.731   7
   2   6  -8 80.5487 80.7467   1
   2   6  -8 92.6157 114.549   6
  -2  -6   8 73.3247 119.890   2
  -2  -6   8 215.516 101.523   3
   2   6  -8 68.9143 99.1935   7
   2   6  -7 17007.5 367.723   7
   2   6  -7 17038.4 307.358   1
   2   6  -6 15558.6 276.766   1
  -2  -6   6 16053.0 371.176   2
  -2  -6   6 15854.1 379.652   3
  -2  -6   5 5209.99 220.292   2
   2   6  -5 5525.79 164.402   1
  -2  -6   5 5205.81 228.197   3
  -2  -6   4 3944.69 206.746   2
   2   6  -4 4176.41 140.810   1
  -2  -6   4 3896.67 199.770   3
   2   6  -3 145.018 70.2272   1
  -2  -6   3 63.5586 108.756   2
  -2  -6   3 232.985 111.035   3
   2   6  -3-92.3033 97.3218   7
  -2  -6   2 1447.87 151.817   2
   2   6  -2 1091.70 86.0140   1
  -2  -6   2 1248.61 129.793   3
   2   6  -2 1002.88 130.054   7
  -2  -6   1 550.348 128.237   2
   2   6  -1 529.573 74.2428   1
   2   6  -1 360.788 105.420   7
   2   6   0 152.425 62.9630   1
  -2  -6   0 118.547 113.817   2
   2   6   0 76.6356 91.1688   7
   2   6   1 606.438 85.1269   1
   2   6   1 407.771 104.573   7
  -2  -6  -1 718.214 141.763   2
   2   6   2 105.961 69.3635   1
  -2  -6  -2 82.1246 122.972   2
   2   6   2 51.2182 98.4510   7
   2   6   3 120.050 72.9225   1
  -2  -6  -3 344.125 134.738   2
   2   6   3 175.982 81.5616   7
  -2  -6  -4 133.890 78.2297   6
   2   6   4 239.853 81.0829   1
  -2  -6  -4 168.157 130.870   2
   2   6   5 139.361 80.3669   1
  -2  -6  -5 337.597 145.162   2
  -2  -6  -5 423.294 98.2901   6
  -2  -6  -6-111.910 83.2833   6
   2   6   6-55.4053 85.0071   1
  -2  -6  -6 79.0036 132.055   2
  -2  -6  -7 55.0819 84.1698   6
  -2  -6  -7 86.4612 138.824   2
   2   6   7 120.461 92.9111   1
  -2  -6  -8 104.879 89.5247   6
  -2  -6  -8-95.5451 149.296   2
   2   6   8 137.467 96.8527   1
  -2  -6  -9 350.322 100.553   6
   2   6   9 362.288 111.173   1
  -2  -6  -9 252.298 168.530   2
   2   6  10 373.081 122.284   1
  -2  -6 -10 760.599 194.870   2
   2   7 -12 77.1195 151.702   6
  -2  -7  12 161.686 133.228   3
   2   7 -11 318.333 113.044   7
   2   7 -11 161.850 141.187   6
  -2  -7  11 342.453 128.038   3
   2   7 -10 250.160 134.035   6
  -2  -7  10 431.377 128.099   3
   2   7 -10 474.959 115.188   7
  -2  -7   9 715.007 133.153   3
   2   7  -9 346.076 105.965   7
  -2  -7   8 664.558 155.348   2
   2   7  -8 309.327 106.292   7
  -2  -7   8 664.539 123.520   3
  -2  -7   7 1251.65 156.344   2
  -2  -7   7 1031.21 136.345   3
   2   7  -7 835.092 122.676   7
   2   7  -6 2104.33 166.592   7
  -2  -7   6 2441.99 180.211   3
  -2  -7   5 5006.55 249.782   2
  -2  -7   5 5431.10 254.846   3
   2   7  -5 5123.89 241.171   7
  -2  -7   4 125.642 131.702   2
   2   7  -4 90.9336 118.501   7
  -2  -7   4 390.026 127.879   3
   2   7  -3 109.700 108.292   7
  -2  -7   3 240.970 129.722   2
  -2  -7   3 392.229 118.071   3
  -2  -7   2 950.830 152.165   2
   2   7  -2 854.617 134.155   7
   2   7  -1 378.852 121.756   7
  -2  -7   1 450.374 136.133   2
  -2  -7   0 232.654 135.139   2
   2   7   0-26.7208 104.492   7
   2   7   1 573.170 123.290   7
  -2  -7  -1 918.896 161.281   2
  -2  -7  -2 1490.57 185.043   2
   2   7   2 1305.00 153.405   7
  -2  -7  -3 2157.95 202.215   2
  -2  -7  -3 2317.51 156.859   6
  -2  -7  -4 439.662 160.346   2
  -2  -7  -4 404.843 103.933   6
  -2  -7  -5 827.244 176.153   2
  -2  -7  -5 932.907 126.685   6
  -2  -7  -6 250.634 99.8589   6
  -2  -7  -6-27.7010 157.029   2
  -2  -7  -7 309.986 107.359   6
  -2  -7  -7 312.218 173.906   2
   2   8  -9 226.372 142.635   7
  -2  -8   8 761.885 142.600   3
   2   8  -8 764.915 148.171   7
  -2  -8   7 595.153 137.585   3
   2   8  -7 568.142 140.632   7
   2   8  -6-113.510 128.521   7
  -2  -8   6 1230.82 173.853   3
  -2  -8   5 9549.00 352.729   2
  -2  -8   5 10681.3 374.484   3
  -2  -8   4 12726.5 396.324   2
  -2  -8   4 13103.6 408.788   3
  -2  -8   3 6189.13 296.168   2
   2   8  -3 4613.64 257.917   7
  -2  -8   2 1335.18 191.158   2
   2   8  -2 519.613 141.717   7
  -2  -8   1 178.166 153.276   2
   2   8  -1 125.574 112.437   7
  -2  -8   0 379.504 160.818   2
   2   8   0 224.751 121.011   7
  -2  -8  -1 255.369 165.231   2
  -2  -8  -2-34.7159 152.885   2
  -2  -8  -3 606.175 119.958   6
  -2  -8  -3 153.376 159.290   2
  -2  -8  -4 186.095 165.920   2
   3 -10  -5 234.259 148.871   2
   3 -10  -4 299.027 164.030   2
   3 -10  -3 1242.33 205.162   2
   3 -10  -2 900.275 184.970   2
   3 -10  -1 449.658 169.494   2
   3 -10   0 3092.60 263.680   2
   3 -10   1 5884.39 338.644   2
   3 -10   2 9493.37 413.302   2
   3 -10   3 1015.41 206.858   2
   3 -10   4 412.281 197.022   2
   3 -10   5 92.3146 179.948   2
   3 -10   6 440.940 203.063   2
   3 -10   7 290.360 209.853   2
   3  -9  -9 406.832 162.229   2
   3  -9  -8 316.881 152.771   2
   3  -9  -7 1386.19 179.809   2
   3  -9  -7 1289.67 115.894   6
   3  -9  -6 1239.67 175.858   2
   3  -9  -6 965.803 99.4212   6
   3  -9  -5 5847.08 302.426   2
   3  -9  -5 5847.93 193.845   6
   3  -9  -4 496.450 141.606   2
   3  -9  -4 589.847 91.1602   6
   3  -9  -3 32.0142 113.313   2
   3  -9  -3 176.730 77.9781   6
   3  -9  -2 113.454 126.287   2
   3  -9  -2 244.910 81.5023   6
   3  -9  -1 456.224 151.626   2
   3  -9   0 1061.58 185.847   2
   3  -9   1 384.816 163.080   2
   3  -9   2 3129.92 264.370   2
   3  -9   3 4075.18 284.564   2
   3  -9   4 467.617 165.345   2
   3  -9   4 517.271 105.400   3
   3  -9   5-97.3386 161.470   2
   3  -9   5 224.619 92.8501   3
   3  -9   6-25.6672 156.689   2
   3  -9   6 193.964 95.5480   3
   3  -9   7 361.322 110.566   3
   3  -9   7 233.384 186.819   2
  -3   9  -8 401.584 127.545   6
   3  -9   8 247.058 113.804   3
   3  -9   8 646.908 215.551   2
   3  -9   9 90.4789 180.972   2
  -3   9  -9 93.2148 123.744   6
   3  -9  10 268.062 198.905   2
  -3   9 -10 333.208 142.542   6
   3  -8 -11 552.881 101.772   6
   3  -8 -11 529.844 160.791   2
   3  -8 -10 150.959 82.1538   6
   3  -8 -10 373.154 148.842   2
   3  -8  -9 193.797 83.1436   6
   3  -8  -9 311.238 144.169   2
   3  -8  -8 91.9720 74.1460   6
   3  -8  -8 175.959 123.608   2
   3  -8  -7 493.920 130.170   2
   3  -8  -7 389.872 77.3459   6
   3  -8  -6 749.207 147.625   2
   3  -8  -6 309.081 71.7907   6
   3  -8  -5 678.925 136.992   2
   3  -8  -5 614.646 79.1801   6
   3  -8  -4 90.4499 64.7864   6
   3  -8  -4 133.285 114.676   2
   3  -8  -3 2043.17 176.134   2
   3  -8  -3 2463.13 116.366   6
   3  -8  -2 260.924 67.1397   6
   3  -8  -2 283.144 107.530   2
   3  -8  -1 740.219 141.342   2
   3  -8   0 464.399 127.671   2
   3  -8   1 136.545 135.326   2
   3  -8   2 4524.86 258.929   2
   3  -8   3 12369.9 283.123   3
   3  -8   3 12536.3 415.458   2
   3  -8   4 20425.2 359.715   3
   3  -8   4 21490.9 529.611   2
   3  -8   5 2205.00 227.956   2
   3  -8   5 1811.32 128.178   3
  -3   8  -6 326.463 100.184   6
   3  -8   6 58.3870 145.385   2
   3  -8   6 171.296 86.9253   3
   3  -8   7 182.840 150.947   2
  -3   8  -7 150.522 96.3286   6
   3  -8   7 115.203 88.3772   3
  -3   8  -8 1118.58 141.044   6
   3  -8   8 1343.70 198.531   2
   3  -8   8 1098.49 125.700   3
   3  -8   9 254.472 165.269   2
  -3   8  -9 229.087 111.184   6
   3  -8   9 209.639 104.405   3
   3  -8  10 382.275 183.702   2
  -3   8 -10 272.038 116.322   6
   3  -8  10 318.024 115.369   3
  -3   8 -11 1973.26 173.771   6
   3  -8  11 1678.76 158.800   3
   3  -8  11 2048.82 253.026   2
   3  -8  12 2215.46 187.189   3
  -3   8 -12 3071.31 212.721   6
   3  -7 -13 339.625 99.9550   6
   3  -7 -13 249.239 146.433   2
   3  -7 -12 1106.40 120.200   6
   3  -7 -12 1373.26 179.665   2
   3  -7 -11 1047.12 107.145   6
   3  -7 -11 1335.04 172.793   2
   3  -7 -10 452.205 84.4911   6
   3  -7 -10 555.110 144.681   2
   3  -7  -9 705.717 89.1435   6
   3  -7  -9 404.625 132.263   2
   3  -7  -8 882.138 92.3121   6
   3  -7  -8 839.560 141.394   2
   3  -7  -7 89.8259 60.6534   6
   3  -7  -7 167.540 106.968   2
   3  -7  -6 237.524 113.384   2
   3  -7  -6 455.721 73.3425   6
   3  -7  -5 1744.02 160.895   2
   3  -7  -5 1823.58 100.103   6
   3  -7  -4 2536.42 180.948   2
   3  -7  -4 2875.95 116.102   6
   3  -7  -3 17032.5 400.893   2
   3  -7  -3 18677.0 259.863   6
   3  -7  -2 3089.14 197.208   2
   3  -7  -2 2435.65 89.1847   1
   3  -7  -2 2705.62 121.234   6
   3  -7  -2 3216.26 115.615   6
  -3   7   2 2863.38 131.893   3
   3  -7  -2 2367.70 76.6578   1
   3  -7  -1 150.148 62.6671   6
   3  -7  -1-11.9909 101.716   2
   3  -7  -1 55.9111 24.8423   1
   3  -7  -1 70.7354 25.1307   1
  -3   7   1 93.6721 63.2454   3
   3  -7   0 16.2256 55.4992   6
   3  -7   0-69.5837 109.934   2
   3  -7   0 20.5331 12.8713   1
  -3   7   0-12.6762 60.5182   3
   3  -7   0 12.6182 12.8810   1
   3  -7   1 774.092 77.8718   6
   3  -7   1 985.036 68.1360   5
  -3   7  -1 843.067 86.2567   3
   3  -7   1 1038.71 140.579   2
   3  -7   2 3348.32 114.823   5
  -3   7  -2 2703.83 125.084   3
   3  -7   2 3008.04 119.640   6
   3  -7   2 3088.08 134.209   3
   3  -7   2 3126.25 202.039   2
   3  -7   3 47.7334 64.2221   3
   3  -7   3 55.8696 67.9413   5
   3  -7   3 57.7641 119.735   2
   3  -7   3 30.7133 14.8858   1
   3  -7   4 3573.72 226.953   2
   3  -7   4 3724.58 143.340   5
   3  -7   4 3476.16 148.653   3
   3  -7   4 3123.08 74.6499   1
  -3   7  -5 16313.7 302.053   6
   3  -7   5 15457.4 283.173   5
   3  -7   5 15677.4 307.406   3
   3  -7   5 15215.8 186.249   1
   3  -7   5 15975.6 441.370   2
   3  -7   6 291.771 135.870   2
  -3   7  -6 361.709 93.1949   6
   3  -7   6 187.741 85.4309   5
   3  -7   6 203.232 78.8538   3
   3  -7   6 200.148 49.4319   1
   3  -7   7 104.335 52.1528   1
   3  -7   7 123.767 130.835   2
  -3   7  -7-4.55979 78.7966   6
   3  -7   7-27.5827 85.3917   5
   3  -7   7 27.6695 78.0763   3
  -3   7  -8 3.20472 82.7742   6
   3  -7   8 140.497 84.1540   3
  -3   7  -9 341.580 111.180   6
   3  -7   9 231.502 93.6385   3
  -3   7 -10 333.405 105.611   6
   3  -7  10 346.708 104.915   3
  -3   7 -11 21.6684 102.156   6
   3  -7  11 153.510 97.3218   3
  -3   7 -12 329.586 125.586   6
   3  -7  12 319.369 122.555   3
  -3   7 -13 265.006 136.450   6
   3  -7  13 193.868 121.395   3
   3  -6 -15 653.563 122.691   6
   3  -6 -15 576.872 170.780   2
   3  -6 -14 363.377 105.417   6
   3  -6 -14 552.967 152.057   2
   3  -6 -13 337.539 92.2494   6
   3  -6 -13 382.399 134.156   2
   3  -6 -12 107.023 76.9145   6
   3  -6 -12 223.969 133.168   2
   3  -6 -11 236.183 78.3358   6
   3  -6 -11 225.990 126.989   2
   3  -6 -10 1353.92 105.033   6
   3  -6 -10 973.522 155.260   2
   3  -6  -9 1442.28 101.691   6
   3  -6  -9 1391.87 170.341   2
   3  -6  -8 47.5758 60.3620   6
   3  -6  -8-43.0460 100.859   2
   3  -6  -7 197.655 61.8154   6
   3  -6  -7 134.185 100.783   2
   3  -6  -6 420.133 112.945   2
   3  -6  -6 592.215 71.0027   6
   3  -6  -5 381.933 63.9205   1
  -3   6   5 366.495 80.1679   3
   3  -6  -5 492.753 59.9930   6
   3  -6  -4 552.946 105.292   2
  -3   6   4 552.930 73.7280   3
   3  -6  -4 440.827 61.4188   1
   3  -6  -4 664.655 62.4286   6
   3  -6  -3 2604.94 167.520   2
   3  -6  -3 2611.24 94.8438   6
  -3   6   3 2101.32 109.941   4
  -3   6   3 2041.45 103.429   3
   3  -6  -3 2288.35 93.9439   1
   3  -6  -2 1359.73 132.725   2
   3  -6  -2 1176.95 75.1554   6
  -3   6   2 1068.92 77.8703   3
   3  -6  -2 1073.71 66.3188   1
   3  -6  -2 1373.92 73.0718   6
   3  -6  -1 4769.68 115.035   1
   3  -6  -1 5045.68 130.594   6
  -3   6   1 5017.68 135.593   3
   3  -6  -1 4868.01 122.861   1
   3  -6   0 1179.23 59.1163   1
   3  -6   0 1307.38 72.5235   6
  -3   6   0 1153.32 74.5619   3
   3  -6   0 1217.82 134.930   2
   3  -6   1 548.167 56.2986   6
   3  -6   1 536.081 41.4099   1
  -3   6  -1 582.271 61.7150   3
   3  -6   1 474.471 63.8486   7
   3  -6   1 677.986 111.698   2
   3  -6   2 447.585 54.6145   6
   3  -6   2 491.700 43.3999   1
   3  -6   2 444.533 113.946   2
   3  -6   2 404.982 58.1083   3
   3  -6   2 412.715 64.0114   7
   3  -6   3 1564.69 80.4193   6
   3  -6   3 1193.24 78.1433   4
   3  -6   3 1497.72 66.1137   1
   3  -6   3 1470.68 89.3107   3
   3  -6   3 1300.15 82.3167   7
   3  -6   3 1331.72 144.423   2
   3  -6   4 2536.99 103.069   6
  -3   6  -4 2770.45 120.016   6
   3  -6   4 2388.10 87.8840   7
   3  -6   4 2605.71 89.2609   1
   3  -6   4 2591.27 117.055   3
   3  -6   4 2473.62 173.841   2
   3  -6   5 18095.9 266.395   6
  -3   6  -5 18103.4 281.799   6
   3  -6   5 18481.4 238.134   1
  -3   6  -5 18715.6 274.695   1
  -3   6  -6 39898.8 442.137   6
  -3   6  -6 40754.6 426.246   1
   3  -6   6 41297.8 385.257   1
  -3   6  -7 4165.22 164.105   6
   3  -6   7 4467.95 181.281   5
   3  -6   7 4132.76 167.828   3
   3  -6   7 4186.77 140.122   1
   3  -6   8 40.5588 57.9499   1
  -3   6  -8-69.6009 83.6143   6
   3  -6   8-15.7707 83.4524   5
   3  -6   8 47.4804 72.4991   3
   3  -6   9 86.9010 60.1857   1
  -3   6  -9 36.1830 84.2546   6
   3  -6   9 101.233 78.2557   3
   3  -6   9 104.865 91.4373   5
   3  -6  10 2695.42 163.564   5
   3  -6  10 2460.50 157.483   3
  -3   6 -10 2321.18 157.620   6
   3  -6  10 2185.56 133.498   1
  -3   6 -11 446.912 107.182   6
   3  -6  11 408.678 103.707   5
   3  -6  11 385.950 103.685   3
   3  -6  11 487.907 90.5546   1
  -3   6 -12 139.898 105.495   6
   3  -6  12 300.266 86.7579   1
   3  -6  12 247.803 102.269   3
  -3   6 -13 2070.06 184.010   6
   3  -6  13 1978.62 172.242   3
   3  -6  13 1630.18 142.640   1
   3  -6  14 3483.32 203.061   1
   3  -6  14 3894.94 235.730   3
   3  -5 -16 3410.47 247.409   2
   3  -5 -16 3718.19 208.848   6
   3  -5 -15 548.579 116.106   6
   3  -5 -15 321.049 143.498   2
   3  -5 -14 167.640 88.2803   6
   3  -5 -14 230.237 128.317   2
   3  -5 -13 152.207 85.1079   6
   3  -5 -13 201.672 121.460   2
   3  -5 -12-11.5804 68.5672   6
   3  -5 -12 123.336 117.815   2
   3  -5 -11 296.320 120.428   2
   3  -5 -11 553.107 85.0124   6
   3  -5 -10 5333.50 176.394   6
   3  -5 -10 5595.00 252.031   2
   3  -5  -9 5574.15 166.512   6
   3  -5  -9 4946.14 153.024   5
   3  -5  -8 2019.87 105.647   6
   3  -5  -8 2190.20 166.552   2
   3  -5  -7 4548.71 132.123   6
   3  -5  -7 4573.75 205.410   2
   3  -5  -6 2728.08 98.6602   6
   3  -5  -6 2895.97 171.125   2
   3  -5  -5 545.294 55.3260   6
   3  -5  -5 604.315 108.540   2
   3  -5  -4 990.705 109.324   2
   3  -5  -4 999.285 79.0077   1
  -3   5   4 865.323 72.0358   3
   3  -5  -4 1080.24 60.3887   6
  -3   5   3 94.1244 40.5374   3
   3  -5  -3 137.074 43.3693   1
   3  -5  -3 178.907 89.1969   2
  -3   5   3 107.048 66.9553   4
   3  -5  -3 159.412 36.0360   6
   3  -5  -2 4826.61 109.951   6
  -3   5   2 4467.63 110.552   3
   3  -5  -2 4735.20 94.3352   6
   3  -5  -1 48586.1 304.521   6
  -3   5   1 48970.0 313.069   3
   3  -5  -1 48906.6 401.350   1
   3  -5  -1 48144.7 583.264   2
   3  -5   0 14433.5 162.301   6
   3  -5   0 14392.1 330.138   2
  -3   5   0 14818.3 171.664   3
   3  -5   1 7.49806 32.0152   6
   3  -5   1 60.7833 36.9051   3
   3  -5   1 47.9450 37.0781   1
   3  -5   2 351.875 41.0406   6
   3  -5   2 357.491 45.9015   1
   3  -5   2 412.211 90.0259   2
   3  -5   2 227.940 50.9202   4
   3  -5   2 246.045 45.2561   3
  -3   5  -3 1391.30 75.4245   6
   3  -5   3 1534.94 76.1599   1
   3  -5   3 1687.97 134.400   2
   3  -5   3 1509.81 77.6264   3
  -3   5  -3 1603.26 85.2988   1
   3  -5   3 1663.58 71.1457   6
   3  -5   4 4575.49 116.790   6
   3  -5   4 4751.90 125.631   1
   3  -5   4 4497.78 134.133   3
   3  -5   4 4919.29 104.219   7
  -3   5  -4 4510.57 140.462   1
   3  -5   5 174.204 50.9242   1
   3  -5   5 123.087 46.1195   6
  -3   5  -5 177.432 61.7596   6
  -3   5  -5 176.063 57.1607   1
   3  -5   5 153.105 57.1169   3
   3  -5   5 108.346 25.0406   7
   3  -5   6 1765.44 91.9102   6
  -3   5  -6 1935.00 109.946   1
  -3   5  -6 2081.83 106.433   6
   3  -5   6 1882.70 109.599   3
   3  -5   6 1926.19 101.751   1
  -3   5  -7 30512.2 387.529   6
   3  -5   7 29916.0 368.882   1
  -3   5  -8 25.3088 73.4574   6
   3  -5   8 111.698 66.8474   1
   3  -5   8-29.5599 73.4338   3
  -3   5  -9 836.168 101.805   6
   3  -5   9 898.504 106.737   3
   3  -5   9 891.814 98.5020   1
  -3   5 -10 24.2080 78.7892   6
   3  -5  10 42.7696 86.1936   5
   3  -5  10 156.928 88.7907   3
   3  -5  10 82.7795 64.7152   1
   3  -5  11 39.5830 67.5922   1
  -3   5 -11 76.5237 88.8884   6
   3  -5  11 59.3874 96.0769   5
   3  -5  11 158.755 88.0856   3
  -3   5 -12 327.129 104.568   6
   3  -5  12 549.444 118.395   5
   3  -5  12 473.409 107.094   3
   3  -5  12 482.648 96.9601   1
  -3   5 -13 14.9487 101.501   6
   3  -5  13 401.216 115.954   5
   3  -5  13 93.0790 101.730   3
   3  -5  13 252.627 95.1563   1
  -3   5 -14 96.5552 116.352   6
   3  -5  14 236.000 103.392   1
   3  -5  14 237.325 109.540   3
  -3   5 -15 347.386 136.552   6
   3  -5  15 294.743 115.385   1
   3  -5  15 346.821 125.900   3
   3  -4 -17 3997.67 222.264   6
   3  -4 -17 3520.86 261.439   2
   3  -4 -16 9842.39 317.363   6
   3  -4 -16 8965.21 355.695   2
   3  -4 -15 4164.65 243.469   2
   3  -4 -15 4567.06 217.350   6
   3  -4 -14 3315.44 178.095   6
   3  -4 -14 2725.73 207.479   2
   3  -4 -13 1684.91 126.099   6
   3  -4 -13 1635.76 170.293   2
   3  -4 -12 470.715 85.3575   6
   3  -4 -12 541.242 127.840   2
   3  -4 -11 888.558 93.2921   6
   3  -4 -11 807.341 132.130   2
   3  -4 -10 144.511 64.9738   6
   3  -4 -10-41.7152 100.009   2
   3  -4  -9 108.697 57.7890   6
   3  -4  -9 86.9313 93.7497   2
   3  -4  -8 3675.97 126.088   6
   3  -4  -8 4209.47 199.032   2
  -3   4   7 2723.81 110.237   6
   3  -4  -7 2831.39 156.746   2
   3  -4  -7 2509.68 98.9811   6
  -3   4   6-11.3629 43.1585   6
   3  -4  -6-30.2842 38.5175   6
   3  -4  -5 28.1919 34.0549   6
   3  -4  -5 18.8967 43.2884   1
   3  -4  -4 948.802 96.8510   2
   3  -4  -4 908.041 49.9068   6
  -3   4   4 931.982 111.731   2
   3  -4  -3 354.810 31.3684   6
  -3   4   3 409.264 93.3324   2
   3  -4  -3 401.142 86.8963   2
  -3   4   3 256.794 74.0344   4
   3  -4  -2 32.5079 17.9001   6
   3  -4  -2 49.2931 22.8863   6
   3  -4  -2 53.3935 82.3704   2
  -3   4   2 89.9898 63.4543   4
  -3   4   2 53.9235 23.2513   3
   3  -4  -1 4481.94 58.5014   6
   3  -4  -1 4651.27 53.5743   6
  -3   4   1 4305.71 63.4992   3
   3  -4  -1 5998.46 155.030   1
   3  -4  -1 5771.01 194.216   2
   3  -4   0 7880.52 165.469   1
   3  -4   0 7783.25 74.4221   6
   3  -4   0 8128.01 228.921   2
   3  -4   1 11446.1 106.700   6
   3  -4   1 11391.4 189.525   1
   3  -4   1 10954.2 203.480   4
   3  -4   1 11463.9 266.043   2
   3  -4   2 4581.39 82.4968   6
  -3   4  -2 4802.80 93.3535   6
   3  -4   2 5050.97 133.599   1
   3  -4   2 4452.67 94.6487   3
  -3   4  -2 4746.68 137.717   1
   3  -4   3-16.8044 29.7334   6
  -3   4  -3 83.2900 50.3850   1
  -3   4  -3-16.7669 35.1998   6
   3  -4   3 38.1225 39.3271   3
   3  -4   3 29.3020 39.9739   1
   3  -4   4 106.344 36.1639   6
  -3   4  -4 82.3373 41.8054   6
  -3   4  -4 122.002 54.7428   1
   3  -4   4 104.742 46.2807   3
   3  -4   4 174.307 48.3536   1
   3  -4   5 2064.77 83.6003   6
  -3   4  -5 2461.84 115.273   1
  -3   4  -5 2307.71 97.7347   6
   3  -4   5 2407.79 103.280   1
   3  -4   5 2351.27 104.890   3
  -3   4  -6 289.376 65.0879   6
   3  -4   6 201.739 60.9595   1
   3  -4   6 152.982 45.5713   6
  -3   4  -7 16968.6 276.090   6
   3  -4   7 17051.0 284.099   1
  -3   4  -8 45712.6 479.702   6
   3  -4   8 45403.9 490.988   1
  -3   4  -9 8974.71 234.957   6
   3  -4   9 8524.96 230.530   1
  -3   4 -10 720.499 104.187   6
   3  -4  10 688.206 98.5356   1
  -3   4 -11 87.2560 86.4123   6
   3  -4  11 46.5690 91.0327   5
   3  -4  11 157.099 82.3441   1
  -3   4 -12 2379.71 166.735   6
   3  -4  12 2589.55 157.696   1
  -3   4 -13 573.811 125.526   6
   3  -4  13 853.177 125.985   5
   3  -4  13 780.466 110.588   1
   3  -4  14 218.818 93.7619   1
  -3   4 -14 209.709 120.424   6
   3  -4  14 276.822 113.289   5
  -3   4 -15 1272.56 177.883   6
   3  -4  15 1564.39 166.690   5
   3  -4  15 1322.66 149.669   1
   3  -3 -17 456.600 120.072   6
   3  -3 -17 490.259 149.278   2
   3  -3 -16 2133.98 165.851   6
   3  -3 -16 2165.12 202.873   2
   3  -3 -15 163.936 90.3243   6
   3  -3 -15 204.265 115.810   2
   3  -3 -14 7005.83 234.753   6
   3  -3 -14 6893.77 266.489   2
   3  -3 -13 1002.06 107.448   6
   3  -3 -13 1137.96 136.161   2
   3  -3 -12 4.58436 69.3060   6
   3  -3 -12-6.65598 100.083   2
   3  -3 -11 372.225 81.5628   6
   3  -3 -11 321.142 108.893   2
   3  -3 -10 134.864 65.1344   6
   3  -3 -10 130.230 88.8693   2
   3  -3  -9 1296.55 92.4742   6
   3  -3  -9 1251.57 119.636   2
   3  -3  -8 17390.4 257.125   6
  -3   3   8 16977.3 243.682   6
  -3   3   7 24142.7 386.806   2
   3  -3  -7 22633.9 268.575   6
   3  -3  -7 24373.4 365.493   2
  -3   3   7 22605.0 259.399   6
   3  -3  -6 10920.2 172.880   6
   3  -3  -6 11179.5 238.922   2
  -3   3   6 10791.3 161.660   6
   3  -3  -5 19368.1 303.694   2
  -3   3   5 19048.1 191.802   6
   3  -3  -4 6352.07 173.925   2
   3  -3  -4 6561.10 103.173   6
  -3   3   4 6488.05 105.547   6
   3  -3  -3 2335.33 51.9413   6
  -3   3   3 2350.38 132.296   4
   3  -3  -2 207.685 79.2592   2
  -3   3   2 157.177 70.4098   4
   3  -3  -1 2070.51 118.768   2
   3  -3  -1 2056.73 105.949   1
   3  -3   0 3354.63 124.584   4
   3  -3   0 3636.56 146.497   2
   3  -3   0 3747.90 126.984   1
  -3   3  -1 58687.0 220.146   6
   3  -3   1 63502.1 463.198   1
  -3   3  -1 64629.4 482.960   1
   3  -3   1 59768.2 228.256   3
   3  -3   1 58883.5 214.214   6
  -3   3  -2 32319.2 211.590   6
   3  -3   2 32534.4 200.204   6
   3  -3   3 12.7896 32.7004   6
  -3   3  -3 36.3005 36.0969   6
  -3   3  -3 6.14517 54.8577   1
   3  -3   3-46.1201 45.3885   1
  -3   3  -4 1158.11 64.5252   6
   3  -3   4 1296.68 85.8034   1
  -3   3  -4 1282.84 88.0787   1
   3  -3   4 1161.35 62.6595   6
  -3   3  -5 1305.86 77.2597   6
  -3   3  -5 1330.19 91.5449   1
   3  -3   5 1247.80 85.2967   1
   3  -3   5 1111.02 67.3327   6
   3  -3   6 4072.57 142.777   1
  -3   3  -6 3830.81 125.740   6
  -3   3  -7 714.201 77.0959   6
   3  -3   7 879.756 89.4424   1
  -3   3  -8 588.595 82.2765   6
   3  -3   8 325.515 73.3934   1
  -3   3  -9 27032.1 381.648   6
   3  -3   9 26963.1 409.975   1
  -3   3 -10 136.598 77.6407   6
   3  -3  10 189.677 81.3648   1
  -3   3 -11 2769.82 158.556   6
   3  -3  11 2679.77 163.745   1
  -3   3 -12 98.8994 97.2575   6
   3  -3  12 117.205 97.8968   5
   3  -3  12 21.6139 76.1158   1
   3  -3  13 133.041 83.0186   1
  -3   3 -13 60.0494 96.7718   6
   3  -3  13 140.570 111.781   5
  -3   3 -14 181.900 111.400   6
   3  -3  14 514.253 131.421   5
   3  -3  14 384.930 103.079   1
   3  -3  15 310.080 105.589   1
  -3   3 -15 185.059 120.646   6
   3  -3  15 228.683 134.108   5
  -3   3 -16 2.96171 124.699   6
   3  -3  16 202.001 108.632   1
   3  -2 -18 162.172 122.612   6
   3  -2 -18 222.656 162.808   2
   3  -2 -17 225.207 113.430   6
   3  -2 -17 874.998 165.160   2
   3  -2 -16 159.023 98.4037   6
   3  -2 -16 248.420 129.344   2
   3  -2 -15 7721.12 260.672   6
   3  -2 -15 7065.25 285.352   2
   3  -2 -14 20356.4 390.188   6
   3  -2 -14 18925.5 422.036   2
   3  -2 -13 14665.2 320.564   6
   3  -2 -13 14597.8 354.802   2
   3  -2 -12 7863.00 228.801   6
   3  -2 -12 7851.41 250.322   2
   3  -2 -11 2401.36 154.663   2
   3  -2 -11 2671.75 139.154   6
   3  -2 -10 626.294 79.1557   6
   3  -2 -10 637.850 105.872   2
  -3   2   9 2581.94 138.364   2
   3  -2  -9 2952.96 123.988   6
   3  -2  -9 3022.25 145.522   2
  -3   2   8 255.689 52.6108   6
   3  -2  -8 378.523 79.2100   2
   3  -2  -8 208.801 54.1590   6
  -3   2   8 206.491 70.4507   2
  -3   2   7 40.2793 42.1770   6
   3  -2  -7-21.5846 46.7371   6
  -3   2   7 53.5508 66.6815   2
   3  -2  -7 44.6692 60.1034   2
  -3   2   6 9596.74 154.370   6
   3  -2  -6 9367.05 168.452   6
  -3   2   6 9929.51 210.967   2
  -3   2   5 1689.68 68.7962   6
   3  -2  -5 1772.07 98.9174   2
   3  -2  -5 1641.77 74.1656   6
  -3   2   4 161.676 37.0845   6
   3  -2  -4 173.697 42.2686   6
  -3   2   4 271.316 74.3670   2
  -3   2   4 13.2535 77.2224   4
   3  -2  -4 200.368 64.9408   2
  -3   2   4 104.591 41.7424   3
  -3   2   3 34.0644 29.1970   6
   3  -2  -3 2.13410 34.4686   6
   3  -2  -3 132.547 67.8652   2
  -3   2   3 84.7450 76.4935   4
  -3   2   3 78.9978 34.9183   3
  -3   2   2 2.60049 20.4710   6
  -3   2   2 46.4448 24.1454   3
  -3   2   1 170.079 19.8909   6
   3  -2  -1 214.295 65.6657   2
   3  -2  -1 253.505 69.5127   4
   3  -2  -1 157.141 20.5023   3
   3  -2  -1 284.620 69.9813   1
   3  -2   0 3173.86 127.851   1
   3  -2   0 3051.91 128.972   4
   3  -2   0 2300.35 58.4342   3
  -3   2   0 2544.48 52.1721   6
  -3   2  -1 4533.45 80.2325   6
   3  -2   1 4653.84 140.114   1
  -3   2  -2 14145.5 253.903   1
   3  -2   2 14021.7 236.421   1
  -3   2  -3 14219.8 257.731   1
   3  -2   3 14273.9 239.739   1
   3  -2   3 14334.5 276.406   2
  -3   2  -3 13909.5 170.081   6
   3  -2   3 13494.5 184.175   6
  -3   2  -4 5892.58 127.653   6
  -3   2  -4 5710.09 169.059   1
   3  -2   4 6204.27 199.953   2
   3  -2   4 6239.23 166.251   1
   3  -2   4 5666.31 129.974   6
  -3   2  -5 408.638 55.9426   6
   3  -2   5 438.268 63.8226   1
   3  -2   5 412.518 44.9777   7
   3  -2   5 424.373 54.6794   6
   3  -2   6 74.1642 51.2981   1
  -3   2  -6 101.393 52.0522   6
   3  -2   6 49.0021 46.3232   6
   3  -2   6 99.5801 34.4996   7
  -3   2  -7 1372.77 93.9794   6
   3  -2   7 1533.94 106.673   1
  -3   2  -8 157.568 63.3822   6
   3  -2   8 331.535 74.4896   1
  -3   2  -9 7831.75 212.601   6
   3  -2   9 7787.19 230.769   1
  -3   2 -10 29495.0 418.371   6
   3  -2  10 28892.6 446.503   1
  -3   2 -11 11637.5 288.069   6
   3  -2  11 10923.7 295.353   1
  -3   2 -12 1606.05 141.736   6
   3  -2  12 1554.41 137.801   1
  -3   2 -13 143.645 105.330   6
   3  -2  13 87.5152 108.333   5
   3  -2  13 185.992 83.5303   1
  -3   2 -14 955.242 146.163   6
   3  -2  14 1065.54 132.268   1
  -3   2 -15 695.283 147.817   6
   3  -2  15 631.972 122.107   1
   3  -2  16 192.592 110.450   1
  -3   2 -16 68.4482 128.667   6
   3  -1 -18 189.712 123.250   6
  -3   1  18 13.9322 140.140   3
   3  -1 -17 265.112 114.935   6
  -3   1  17 451.886 145.124   3
   3  -1 -16 324.711 106.453   6
  -3   1  16 88.6123 118.162   3
   3  -1 -16 120.847 122.481   2
   3  -1 -15 340.744 105.189   6
   3  -1 -15 271.300 120.506   2
   3  -1 -14 3065.37 177.489   6
   3  -1 -14 2993.78 192.935   2
   3  -1 -13 419.228 96.1124   6
   3  -1 -13 344.798 108.743   2
   3  -1 -12 10670.4 275.447   6
   3  -1 -12 9975.73 286.365   2
   3  -1 -11 1887.31 125.101   6
   3  -1 -11 1516.88 125.774   2
   3  -1 -10 320.012 75.7623   6
  -3   1  10 234.576 83.0027   2
  -3   1  10 215.533 80.2894   3
   3  -1 -10 111.084 76.2748   2
  -3   1   9 1472.59 105.671   2
   3  -1  -9 1494.62 101.022   6
   3  -1  -9 1483.36 104.655   2
  -3   1   9 1540.61 111.162   3
  -3   1   8 485.499 64.4466   6
  -3   1   8 717.535 78.8615   2
   3  -1  -8 500.033 69.3043   6
   3  -1  -8 615.904 73.6263   2
  -3   1   8 604.303 79.4825   3
  -3   1   7 1701.78 86.5371   2
  -3   1   7 1617.06 84.9534   6
   3  -1  -7 1690.98 93.6551   6
   3  -1  -7 1691.42 88.0969   2
  -3   1   7 1580.07 99.8669   3
  -3   1   6 34936.8 314.944   6
   3  -1  -6 35186.6 347.019   6
   3  -1  -6 35022.9 293.440   2
  -3   1   6 35405.3 311.005   2
  -3   1   5 53134.1 357.319   6
   3  -1  -5 54423.4 311.998   2
  -3   1   5 54380.7 339.129   2
  -3   1   5 52983.3 406.345   3
  -3   1   4 33919.1 270.973   6
   3  -1  -4 33796.6 231.371   2
   3  -1  -4 33744.6 289.920   6
  -3   1   4 33166.1 296.275   3
  -3   1   3 35052.8 255.925   6
  -3   1   3 34115.9 418.630   4
   3  -1  -3 34416.1 281.890   3
   3  -1  -3 35236.3 243.230   2
  -3   1   3 34756.9 278.217   3
   3  -1  -3 34887.1 273.685   6
  -3   1   2 7760.22 122.996   6
   3  -1  -2 6720.22 188.184   4
   3  -1  -2 8074.23 129.857   3
  -3   1   2 7621.42 126.739   3
   3  -1  -2 7176.84 122.481   2
   3  -1  -2 7283.63 188.458   1
  -3   1   1 3116.88 83.6130   6
   3  -1  -1 2993.03 128.914   4
   3  -1  -1 3287.12 86.7927   3
   3  -1  -1 3215.90 136.462   1
   3  -1   0 662.679 80.4451   1
   3  -1   0 554.985 71.9038   2
   3  -1   0 638.113 52.5328   3
  -3   1   0 540.200 71.9747   1
   3  -1   1 4841.52 151.534   1
   3  -1   1 4282.46 139.649   2
   3  -1   1 4639.48 118.211   3
  -3   1  -1 4547.21 107.058   6
  -3   1  -1 4955.25 162.025   1
  -3   1  -2 568.891 77.8925   1
   3  -1   2 667.325 76.8008   1
   3  -1   2 560.496 78.4479   2
  -3   1  -2 603.701 55.6714   6
  -3   1  -3 39368.2 439.679   1
   3  -1   3 39948.6 424.488   2
   3  -1   3 39697.2 408.492   1
  -3   1  -3 39585.2 319.972   6
   3  -1   4 28428.1 382.409   2
   3  -1   4 28872.6 359.167   1
  -3   1  -4 29079.6 294.252   6
  -3   1  -5 382.098 58.4220   6
   3  -1   5 325.451 63.1178   1
   3  -1   5 451.155 59.6897   6
   3  -1   5 413.585 50.6618   7
  -3   1  -6 1733.87 95.4436   6
   3  -1   6 1642.60 101.341   1
   3  -1   6 1704.07 83.9837   7
   3  -1   7 260.333 67.2800   1
  -3   1  -7 145.490 60.0576   6
  -3   1  -8 1966.12 116.155   6
   3  -1   8 1741.01 119.572   1
  -3   1  -9 1370.14 109.224   6
   3  -1   9 1521.59 119.582   1
  -3   1 -10 185.683 81.9313   6
   3  -1  10 330.490 86.3931   1
  -3   1 -11 14569.5 320.348   6
   3  -1  11 14699.5 346.354   1
  -3   1 -12 256.450 96.4911   6
   3  -1  12 186.838 90.0549   1
   3  -1  13 3257.16 190.561   1
  -3   1 -13 3229.01 187.118   6
  -3   1 -14 275.858 118.857   6
   3  -1  14 400.526 131.883   5
   3  -1  14 464.857 109.928   1
   3  -1  15 213.013 105.097   1
  -3   1 -15-12.5808 118.995   6
   3  -1  15 358.468 133.045   5
   3   0 -18 249.010 122.155   6
  -3   0  18 172.870 140.511   3
   3   0 -17 228.998 107.507   6
  -3   0  17-1.41637 130.207   3
   3   0 -16 259.380 101.206   6
  -3   0  16 167.577 120.527   3
   3   0 -15 221.225 99.5576   6
  -3   0  15 79.4694 104.990   3
   3   0 -14 186.136 89.9124   6
  -3   0  14 31.7238 96.0992   3
   3   0 -13 8931.92 265.451   6
  -3   0  13 8666.08 282.961   3
   3   0 -12 27805.3 432.311   6
  -3   0  12 28307.8 469.711   3
   3   0 -11 32825.7 448.459   6
  -3   0  11 32398.8 411.367   2
  -3   0  11 32325.3 479.302   3
   3   0 -10 9615.99 236.676   6
  -3   0  10 9845.02 215.672   2
  -3   0  10 9919.18 259.501   3
   3   0  -9 3333.76 149.508   6
  -3   0   9 3300.59 121.391   2
  -3   0   9 3438.46 156.362   3
  -3   0   8 1112.24 71.5010   2
   3   0  -8 923.200 87.6403   6
  -3   0   8 1109.16 102.836   3
  -3   0   7 3175.29 89.6039   2
  -3   0   7 3405.36 128.193   6
   3   0  -7 3662.32 139.916   6
  -3   0   7 3382.77 146.854   3
  -3   0   6 1677.90 88.7295   6
   3   0  -6 1899.67 104.591   6
  -3   0   6 1819.59 106.419   3
  -3   0   5-9.34075 50.0958   6
   3   0  -5-104.447 59.5397   6
  -3   0   5-30.1726 71.9934   4
   3   0  -5 71.2057 53.9991   3
  -3   0   5-1.95405 56.8344   3
  -3   0   4 10830.4 183.804   6
  -3   0   4 11067.7 251.205   4
   3   0  -4 10921.6 196.911   3
  -3   0   4 10636.1 198.381   3
  -3   0   3 37.8214 53.0073   6
   3   0  -3 33.1067 54.8549   6
   3   0  -3-27.3446 50.0169   3
  -3   0   3 40.5070 55.9139   3
  -3   0   2 1572.99 81.0250   6
   3   0  -2 1384.28 44.4069   2
   3   0  -2 1536.83 112.551   4
   3   0  -2 1595.57 82.8644   3
  -3   0   2 1707.46 85.1160   3
   3   0  -2 1608.22 115.197   1
   3   0  -1 407.067 79.8308   1
  -3   0   1 451.040 64.6840   6
   3   0  -1 331.674 52.7866   2
   3   0  -1 364.739 78.3401   4
   3   0  -1 415.992 61.8310   3
  -3   0   1 389.374 63.3765   3
   3   0   0 1728.57 109.764   1
   3   0   0 1648.85 86.9946   2
   3   0   0 1873.10 91.0164   3
  -3   0   0 1774.37 107.703   1
  -3   0  -1 330.011 71.8972   1
   3   0   1 189.770 65.4933   1
   3   0   1 307.852 60.3652   3
   3   0   1 277.610 69.8644   2
  -3   0  -2 5511.71 176.825   1
   3   0   2 5723.91 162.556   2
   3   0   2 5992.49 179.079   1
  -3   0  -2 5644.75 141.251   6
   3   0   2 5394.20 153.012   3
   3   0   3 611.436 83.0435   2
   3   0   3 764.963 78.7911   1
  -3   0  -3 534.057 91.5292   2
  -3   0  -3 574.228 65.5164   6
   3   0   4 5493.95 180.760   2
   3   0   4 5507.03 145.876   7
   3   0   4 5852.99 173.493   1
  -3   0  -4 5444.13 146.867   6
  -3   0  -5 6025.79 218.305   2
   3   0   5 6080.70 184.263   1
   3   0   5 5663.95 143.379   7
  -3   0  -5 5709.92 158.706   6
  -3   0  -6 2742.00 171.633   2
   3   0   6 2837.16 131.821   1
   3   0   6 3036.19 121.058   7
  -3   0  -6 3004.03 124.421   6
  -3   0  -7 530.136 77.5547   6
  -3   0  -7 551.292 123.401   2
   3   0   7 653.487 90.3498   1
   3   0   7 596.262 70.6330   7
  -3   0  -8 43.1147 68.1798   6
   3   0   8-92.1883 73.0286   1
  -3   0  -8-42.9968 110.108   2
  -3   0  -9 419.907 83.4974   6
   3   0   9 215.336 76.0600   1
  -3   0  -9 147.112 127.060   2
  -3   0 -10 163.143 80.7394   6
   3   0  10 153.215 76.3848   1
  -3   0 -10 164.149 129.786   2
  -3   0 -11 2621.72 158.119   6
   3   0  11 2682.98 168.101   1
  -3   0 -12 11232.1 302.595   6
   3   0  12 11556.8 327.529   1
  -3   0 -13 9237.66 294.626   6
   3   0  13 10323.3 325.250   1
  -3   0 -14 992.502 144.973   6
   3   0  14 888.671 127.769   1
   3   0  15 248.900 108.305   1
  -3   0 -15 107.283 119.426   6
   3   0  15 130.730 128.289   5
   3   1 -18 586.453 148.318   6
  -3  -1  18 836.427 177.866   3
   3   1 -17 1110.18 157.537   6
  -3  -1  17 738.063 157.711   3
   3   1 -16 136.329 105.090   6
  -3  -1  16 196.806 127.110   3
   3   1 -15 422.987 112.805   6
  -3  -1  15 348.981 125.644   3
   3   1 -14 443.662 106.061   6
  -3  -1  14 119.074 102.712   3
   3   1 -13 73.5864 87.7658   6
  -3  -1  13 293.123 112.838   3
   3   1 -12 1877.62 136.805   6
  -3  -1  12 1887.90 152.788   3
   3   1 -11 1425.11 120.200   6
  -3  -1  11 1085.54 100.920   2
  -3  -1  11 1476.68 135.274   3
   3   1 -10 11134.9 272.296   6
  -3  -1  10 10417.0 207.678   2
  -3  -1  10 10716.3 281.746   3
   3   1  -9 1731.91 118.860   6
  -3  -1   9 1601.62 85.6741   2
  -3  -1   9 1776.44 128.328   3
  -3  -1   8 1796.27 74.3628   2
  -3  -1   8 1889.73 124.635   3
   3   1  -8 1715.62 119.463   6
   3   1  -7 3049.95 143.013   6
  -3  -1   7 3065.42 144.502   3
   3   1  -6 1011.47 89.1914   6
  -3  -1   6 1047.45 105.545   4
  -3  -1   6 994.813 92.7138   3
  -3  -1   5 578.488 72.0582   6
   3   1  -5 664.571 79.4096   6
  -3  -1   5 657.413 90.0622   4
   3   1  -5 637.942 72.6417   3
  -3  -1   5 728.400 82.3306   3
  -3  -1   4 27427.5 328.778   6
   3   1  -4 28105.2 359.032   6
   3   1  -4 28156.8 347.086   3
  -3  -1   3 37853.8 380.625   6
   3   1  -3 36637.3 388.000   3
  -3  -1   3 38328.4 403.339   3
   3   1  -3 36484.9 449.695   1
   3   1  -2 38995.4 262.105   2
  -3  -1   2 40742.3 385.702   6
  -3  -1   2 40471.4 248.918   2
   3   1  -2 41720.8 471.092   4
   3   1  -2 44420.8 417.429   3
  -3  -1   2 44283.2 417.767   3
   3   1  -2 42587.6 469.226   1
   3   1  -1 17357.1 296.718   1
   3   1  -1 16945.7 205.444   2
  -3  -1   1 17352.6 266.123   6
  -3  -1   1 16590.7 191.717   2
   3   1  -1 16710.2 296.205   4
   3   1  -1 17999.9 279.627   3
  -3  -1   1 18081.2 280.583   3
   3   1   0 2611.49 122.334   1
   3   1   0 2768.84 104.151   2
  -3  -1   0 2706.96 103.422   2
  -3  -1   0 2469.99 124.634   1
   3   1   0 2624.65 117.626   3
   3   1   1 263.272 67.1821   2
   3   1   1 256.465 65.7946   1
  -3  -1  -1 208.055 69.8625   2
   3   1   1 153.221 56.9870   3
  -3  -1  -1 302.818 69.5042   1
   3   1   2 1110.51 94.7035   2
   3   1   2 1125.86 88.7302   1
  -3  -1  -2 882.676 92.4536   2
   3   1   2 1153.90 89.2594   3
   3   1   2 1142.47 87.0181   7
   3   1   3 735.257 89.3411   2
  -3  -1  -3 646.264 93.7105   2
   3   1   3 695.951 75.5385   1
   3   1   3 936.961 82.2806   7
  -3  -1  -3 770.613 76.3752   6
  -3  -1  -4 69.3777 54.9360   6
   3   1   4 63.0129 56.0988   1
  -3  -1  -4-0.14205 79.5178   2
   3   1   4 57.1959 52.4380   7
   3   1   5 9029.00 228.604   1
   3   1   5 9055.48 209.085   7
  -3  -1  -5 8780.24 208.301   6
  -3  -1  -6 11186.3 304.581   2
   3   1   6 12031.3 264.657   1
   3   1   6 11905.3 243.948   7
  -3  -1  -6 11430.7 237.642   6
  -3  -1  -7 308.224 119.437   2
   3   1   7 450.689 89.8777   1
   3   1   7 363.711 71.2258   7
  -3  -1  -7 580.373 83.1227   6
  -3  -1  -8 688.090 140.411   2
   3   1   8 740.221 102.489   1
  -3  -1  -8 643.175 90.5997   6
  -3  -1  -9-50.4857 78.8954   6
   3   1   9 58.7954 83.1659   1
  -3  -1  -9 157.588 118.852   2
  -3  -1 -10 735.170 100.805   6
   3   1  10 902.044 122.786   1
  -3  -1 -10 684.767 158.592   2
  -3  -1 -11 1135.70 119.580   6
  -3  -1 -11 1066.84 184.273   2
   3   1  11 1091.02 133.865   1
  -3  -1 -12 65.1798 92.6547   6
   3   1  12 122.116 102.574   1
  -3  -1 -12 160.280 158.296   2
  -3  -1 -13 6563.62 266.330   6
  -3  -1 -13 5919.33 340.272   2
   3   1  13 6522.94 281.882   1
   3   1  14 208.284 117.829   1
  -3  -1 -14 148.490 117.732   6
   3   1  14 110.325 129.040   5
  -3  -1 -14 315.762 181.791   2
   3   2 -17 2164.87 187.110   6
  -3  -2  17 1814.08 203.331   3
   3   2 -16 244.736 113.569   6
  -3  -2  16 168.392 128.036   3
   3   2 -15 297.487 108.074   6
  -3  -2  15 381.739 133.883   3
   3   2 -14 156.931 98.5823   6
  -3  -2  14-119.379 113.708   3
   3   2 -13 276.989 98.9013   6
  -3  -2  13 211.256 112.199   3
   3   2 -12 188.274 90.4754   6
  -3  -2  12 233.485 100.259   3
   3   2 -11 6266.90 231.207   6
  -3  -2  11 6333.82 247.442   3
   3   2 -10 23967.2 417.227   6
  -3  -2  10 23398.4 426.452   3
   3   2  -9 46760.3 562.133   6
  -3  -2   9 45564.2 572.748   3
   3   2  -8 5547.33 194.727   6
  -3  -2   8 5246.02 117.301   2
  -3  -2   8 5891.12 222.187   4
  -3  -2   8 5523.99 202.481   3
   3   2  -7 2688.93 143.713   6
  -3  -2   7 2422.46 71.5352   2
  -3  -2   7 2950.32 159.326   4
  -3  -2   7 3042.36 152.790   3
  -3  -2   7 2583.30 80.3440   2
  -3  -2   6 1237.68 48.8984   2
   3   2  -6 1672.76 116.978   6
  -3  -2   6 1282.07 50.8609   2
  -3  -2   6 1751.09 123.013   4
  -3  -2   6 1725.45 116.861   3
   3   2  -5 1484.40 111.692   6
  -3  -2   5 1711.70 115.611   3
  -3  -2   4 1722.68 62.3574   2
   3   2  -4 1633.64 118.621   1
  -3  -2   3 274.951 43.1294   2
   3   2  -3 261.022 73.1535   1
  -3  -2   3 296.462 71.3233   3
   3   2  -2 5166.19 178.097   1
  -3  -2   2 5621.68 126.546   2
   3   2  -2 5198.23 185.486   4
  -3  -2   2 5481.72 177.767   3
   3   2  -2 5634.25 136.175   2
   3   2  -1 77.1374 56.5598   2
   3   2  -1 201.179 63.2674   1
  -3  -2   1 92.2658 53.8030   2
  -3  -2   1 21.2387 62.4014   3
   3   2   0 1600.48 94.1705   2
   3   2   0 1811.78 111.805   1
  -3  -2   0 1661.49 98.6522   2
   3   2   1 1818.44 109.775   2
   3   2   1 1776.28 113.268   7
   3   2   1 1991.52 119.170   1
  -3  -2  -1 1713.07 111.993   2
   3   2   2 2100.07 123.488   2
  -3  -2  -2 1767.75 122.303   2
   3   2   2 2199.74 116.171   1
   3   2   2 2002.71 117.185   7
  -3  -2  -3 480.765 94.0447   2
   3   2   3 438.291 73.3790   1
   3   2   3 401.358 73.1624   7
  -3  -2  -3 423.794 69.3476   6
  -3  -2  -4 1657.61 134.146   2
   3   2   4 2268.73 128.801   1
   3   2   4 1850.92 110.381   7
  -3  -2  -4 2474.74 128.029   6
   3   2   5 17.0635 65.5588   1
  -3  -2  -5-26.0546 64.4871   6
  -3  -2  -5-100.135 101.624   2
   3   2   5 3.18910 76.6919   7
  -3  -2  -6 1773.51 159.511   2
   3   2   6 1765.32 124.125   1
   3   2   6 1754.71 124.156   7
  -3  -2  -6 1737.36 119.697   6
  -3  -2  -7 2195.26 178.860   2
   3   2   7 2643.25 152.943   1
   3   2   7 2610.33 140.691   7
  -3  -2  -7 2307.26 130.851   6
  -3  -2  -8 784.382 144.671   2
   3   2   8 1042.31 114.213   1
  -3  -2  -8 965.676 105.309   6
  -3  -2  -9 381.009 93.2646   6
   3   2   9 421.473 102.483   1
  -3  -2  -9 236.711 132.381   2
  -3  -2 -10-21.9594 86.6752   6
   3   2  10 173.412 95.1992   1
  -3  -2 -10 78.2675 132.130   2
  -3  -2 -11 244.014 100.214   6
  -3  -2 -11 186.363 150.681   2
   3   2  11 211.194 110.244   1
  -3  -2 -12 39.1520 96.1805   6
   3   2  12 295.956 121.483   1
  -3  -2 -12 130.306 154.960   2
  -3  -2 -13 707.045 129.364   6
   3   2  13 760.401 139.454   1
  -3  -2 -13 519.895 186.519   2
  -3  -2 -14 2615.87 206.942   6
  -3  -2 -14 2671.04 283.967   2
   3   2  14 2857.14 204.577   5
   3   2  14 2041.38 195.686   1
   3   3 -16 694.243 146.268   6
  -3  -3  16 896.279 172.464   3
   3   3 -15 883.151 144.782   6
  -3  -3  15 774.458 152.306   3
   3   3 -14 142.958 99.4413   6
  -3  -3  14 2.91478 108.122   3
   3   3 -13 183.814 101.246   6
  -3  -3  13 211.268 119.305   3
   3   3 -12 389.619 102.206   6
  -3  -3  12 265.002 109.612   3
   3   3 -11 1103.55 122.325   6
  -3  -3  11 1180.90 138.278   3
  -3  -3  10 1.56686 77.0502   2
   3   3 -10 14.7287 76.7218   6
  -3  -3  10 127.212 98.7533   4
  -3  -3  10 71.5728 89.6423   3
   3   3  -9 1592.08 131.569   6
  -3  -3   9 1225.38 87.7057   2
  -3  -3   9 1420.66 141.769   4
  -3  -3   9 1543.60 139.413   3
  -3  -3   9 1394.39 106.028   2
   3   3  -8 9101.91 264.519   6
  -3  -3   8 9092.76 179.109   2
  -3  -3   8 9439.74 277.509   4
  -3  -3   8 9418.21 188.892   2
  -3  -3   8 9132.98 274.461   3
  -3  -3   7 941.286 80.4620   2
   3   3  -7 1165.45 119.116   6
  -3  -3   7 784.790 100.031   4
  -3  -3   7 1148.66 119.916   3
   3   3  -6 3786.45 174.059   6
  -3  -3   6 3825.87 180.139   3
  -3  -3   6 3440.52 105.186   2
  -3  -3   5 2746.65 100.244   2
  -3  -3   5 2731.18 151.611   3
  -3  -3   4 1336.86 80.4805   2
  -3  -3   4 1151.89 105.034   3
   3   3  -4 1034.86 104.435   1
   3   3  -3 199.793 89.4439   1
  -3  -3   3 150.705 65.6339   2
  -3  -3   3 155.725 87.5035   3
   3   3  -2 11264.5 257.103   1
  -3  -3   2 11471.7 214.053   2
  -3  -3   2 11382.9 282.414   3
   3   3  -1 9907.14 236.302   1
  -3  -3   1 10157.7 216.809   2
  -3  -3   1 9735.63 262.604   3
   3   3  -1 10009.0 240.160   2
   3   3   0 23041.5 376.140   2
   3   3   0 21929.7 367.595   7
   3   3   1 2363.02 137.682   2
  -3  -3  -1 2406.75 138.142   2
   3   3   1 2759.06 130.598   1
   3   3   1 2365.52 137.924   7
  -3  -3  -2 837.995 111.500   2
   3   3   2 975.110 91.1785   1
   3   3   2 954.709 98.4506   7
  -3  -3  -3 135.404 69.4166   6
  -3  -3  -3 161.535 105.408   2
   3   3   3 316.962 84.9322   7
   3   3   3 142.278 73.5299   1
   3   3   4 176.433 78.3381   1
  -3  -3  -4 262.325 111.431   2
  -3  -3  -4 364.462 87.2255   6
   3   3   4 257.260 90.2390   7
   3   3   5 55.3672 71.2145   1
  -3  -3  -5 61.0780 73.3260   6
  -3  -3  -5 25.5238 105.544   2
   3   3   5 56.6888 71.3910   7
   3   3   6 18.0798 77.8898   1
  -3  -3  -6 96.5124 78.5418   6
  -3  -3  -6 123.624 109.468   2
   3   3   6 5.90769 73.1301   7
  -3  -3  -7 1072.79 153.774   2
  -3  -3  -7 1320.12 119.348   6
   3   3   7 1431.09 130.051   1
   3   3   7 1279.93 118.313   7
  -3  -3  -8 2949.60 219.958   2
   3   3   8 3375.99 182.668   1
  -3  -3  -8 3055.93 161.297   6
  -3  -3  -9 301.596 99.7786   6
   3   3   9 253.359 95.6178   1
  -3  -3  -9 81.8191 132.185   2
  -3  -3 -10 264.789 102.000   6
   3   3  10 327.698 110.904   1
  -3  -3 -10 23.0932 144.855   2
  -3  -3 -11 108.878 99.1109   6
   3   3  11 96.3743 103.782   1
  -3  -3 -11 207.602 149.873   2
  -3  -3 -12 603.422 129.426   6
  -3  -3 -12 584.151 188.157   2
   3   3  12 430.632 124.655   1
  -3  -3 -13 515.351 210.197   2
   3   3  13 357.090 129.162   1
   3   4 -15 2156.72 195.043   6
  -3  -4  15 2006.02 214.085   3
   3   4 -14 212.964 110.711   6
  -3  -4  14 135.008 123.938   3
   3   4 -13 226.113 108.785   6
  -3  -4  13 58.4499 122.171   3
   3   4 -12-0.42589 90.1055   6
  -3  -4  12 225.139 114.342   4
  -3  -4  12 198.946 115.396   3
   3   4 -11 180.372 93.8875   6
  -3  -4  11 199.833 105.850   4
  -3  -4  11-37.1814 104.212   3
  -3  -4  10-14.5910 90.3846   2
  -3  -4  10 121.113 94.1923   4
  -3  -4  10 9.96546 98.1062   3
   3   4  -9 3408.71 190.509   6
  -3  -4   9 3745.73 191.942   4
  -3  -4   9 3091.59 191.938   3
  -3  -4   9 3740.40 163.447   2
  -3  -4   8 11712.7 244.120   2
   3   4  -8 11205.1 319.590   6
  -3  -4   7 32638.7 369.290   2
   3   4  -7 32578.5 509.572   6
  -3  -4   7 31969.0 517.303   3
  -3  -4   6 1280.79 135.123   3
  -3  -4   6 1168.10 98.2485   2
   3   4  -6 1107.26 122.810   1
  -3  -4   5 2890.94 132.129   2
  -3  -4   5 2579.84 157.089   3
   3   4  -5 2480.80 151.406   1
   3   4  -4 1367.50 116.744   1
  -3  -4   4 1209.84 104.975   2
  -3  -4   4 1157.40 117.105   3
   3   4  -3 253.855 81.2726   1
  -3  -4   3 197.454 89.3087   2
  -3  -4   3 213.078 92.8507   3
   3   4  -3 27.0051 81.5266   7
   3   4  -2 1083.02 102.785   1
  -3  -4   2 934.396 114.085   2
  -3  -4   2 986.857 118.484   3
   3   4  -2 817.992 108.872   7
   3   4  -2 714.903 108.730   2
  -3  -4   1 428.266 101.412   2
   3   4  -1 307.094 85.8485   1
   3   4  -1 381.299 93.4447   7
   3   4  -1 319.708 99.3976   2
  -3  -4   0 2628.08 158.330   2
   3   4   0 2474.69 149.774   7
   3   4   0 2921.59 139.680   1
   3   4   1 440.118 81.4671   1
  -3  -4  -1 392.553 109.980   2
   3   4   1 208.225 76.0394   7
   3   4   2 188.404 73.3839   1
  -3  -4  -2 411.469 113.282   2
   3   4   2 241.470 85.8424   7
   3   4   3 2165.86 153.128   7
  -3  -4  -3 1957.05 162.659   2
   3   4   3 2255.89 137.730   1
  -3  -4  -4 747.884 145.330   2
   3   4   4 1038.66 103.528   1
   3   4   4 982.626 116.602   7
  -3  -4  -4 997.976 112.269   6
   3   4   5 239.459 89.7671   1
  -3  -4  -5 3.32642 81.4917   6
  -3  -4  -5 298.703 126.642   2
   3   4   5 142.419 87.1028   7
   3   4   6 541.578 99.3029   1
  -3  -4  -6 239.292 127.196   2
   3   4   6 383.049 97.8453   7
  -3  -4  -6 529.482 104.529   6
  -3  -4  -7 101.626 85.6352   6
   3   4   7 3.73342 84.2054   1
  -3  -4  -7 38.8137 118.450   2
  -3  -4  -8 731.601 157.829   2
  -3  -4  -8 745.627 113.815   6
   3   4   8 714.906 116.022   1
  -3  -4  -9 579.118 161.739   2
  -3  -4  -9 839.091 124.153   6
  -3  -4 -10 368.899 115.368   6
   3   4  10 343.319 116.572   1
  -3  -4 -10 361.528 164.324   2
  -3  -4 -11 293.163 115.395   6
  -3  -4 -11 330.932 175.861   2
   3   4  11 324.225 125.297   1
   3   5 -14 684.107 146.803   6
  -3  -5  14 431.089 150.409   3
   3   5 -13 523.441 136.683   6
  -3  -5  13 309.785 134.312   4
  -3  -5  13 651.139 150.317   3
   3   5 -12 161.238 113.562   6
  -3  -5  12 266.044 116.216   4
  -3  -5  12 175.419 119.292   3
   3   5 -11 249.153 115.958   6
  -3  -5  11 251.740 108.244   4
  -3  -5  11 262.030 126.205   3
   3   5 -10 511.484 124.841   6
  -3  -5  10 697.953 139.675   3
   3   5  -9 1081.89 136.754   6
  -3  -5   9 765.477 135.055   3
  -3  -5   8 586.871 102.043   2
   3   5  -8 668.136 123.359   6
  -3  -5   8 658.547 124.169   3
   3   5  -8 534.951 111.714   1
   3   5  -7 107.213 96.6961   1
  -3  -5   7 188.646 93.5209   2
  -3  -5   7 77.6517 101.205   3
   3   5  -7 145.442 100.680   7
   3   5  -6 3973.14 200.564   1
  -3  -5   6 4980.30 189.294   2
  -3  -5   6 4597.13 219.140   3
   3   5  -6 3903.12 198.279   7
   3   5  -5 81.6952 85.1034   1
  -3  -5   5 64.3986 93.1240   2
  -3  -5   5 112.469 95.4183   3
   3   5  -5-82.5700 94.6700   7
   3   5  -4 2003.06 140.992   1
  -3  -5   4 2432.75 154.523   2
   3   5  -4 2405.40 163.034   7
  -3  -5   4 2482.13 176.354   3
  -3  -5   3 1352.86 137.820   2
   3   5  -3 1254.19 119.291   1
  -3  -5   3 1254.97 145.098   3
   3   5  -3 1105.23 131.506   7
  -3  -5   2 687.224 124.170   2
   3   5  -2 582.145 97.2439   1
  -3  -5   2 687.117 117.996   3
   3   5  -2 576.736 109.466   7
  -3  -5   1 37.8012 102.708   2
   3   5  -1-2.47382 68.6451   1
   3   5  -1-31.7712 88.9868   7
  -3  -5   0 2130.92 156.510   2
   3   5   0 2536.68 137.375   1
   3   5   0 1999.60 149.056   7
  -3  -5  -1 1345.93 148.228   2
   3   5   1 1442.25 116.694   1
   3   5   1 1439.48 143.834   7
  -3  -5  -2 7748.23 277.013   2
   3   5   2 7567.07 272.416   7
   3   5   3 1.08579 75.9387   1
  -3  -5  -3 249.511 95.4551   6
  -3  -5  -3 46.8685 117.804   2
   3   5   3 161.299 96.4842   7
   3   5   4 436.618 95.5032   1
  -3  -5  -4 389.795 101.795   6
  -3  -5  -4 495.499 142.343   2
   3   5   4 388.913 105.544   7
  -3  -5  -5 257.966 99.7272   6
   3   5   5 249.941 90.4816   1
  -3  -5  -5 297.440 128.464   2
   3   5   5 158.449 91.9151   7
  -3  -5  -6 82.8072 98.7677   6
   3   5   6 97.7863 91.2371   1
  -3  -5  -6 32.7314 135.612   2
  -3  -5  -7 220.983 103.723   6
   3   5   7 191.260 94.9884   1
  -3  -5  -7 372.890 160.273   2
  -3  -5  -8 134.818 102.058   6
   3   5   8 101.484 97.9183   1
  -3  -5  -8 11.4325 139.716   2
  -3  -5  -9 220.088 106.497   6
   3   5   9-7.25752 99.5349   1
  -3  -5  -9 406.314 168.518   2
  -3  -5 -10 835.547 196.868   2
   3   5  10 729.309 140.165   1
   3   6 -12 318.348 136.619   6
  -3  -6  12 600.851 163.294   3
   3   6 -12 162.553 120.552   7
   3   6 -11 235.546 123.422   6
  -3  -6  11 522.301 141.062   3
   3   6 -11 185.357 117.809   7
  -3  -6  10 546.757 143.559   3
   3   6 -10 295.503 118.582   6
   3   6 -10 143.758 113.025   7
   3   6  -9 31.8315 104.697   7
  -3  -6   9 383.426 125.553   3
   3   6  -8 259.440 111.527   7
  -3  -6   8 300.310 114.571   3
  -3  -6   7 2127.52 182.455   3
   3   6  -7 1134.90 144.409   7
   3   6  -6 3458.99 172.577   1
   3   6  -6 2780.92 193.990   7
  -3  -6   5 14097.7 329.898   2
   3   6  -5 14202.0 297.561   1
  -3  -6   5 13808.2 391.752   3
  -3  -6   4 166.840 136.860   2
   3   6  -4 973.335 133.583   1
  -3  -6   4 1189.44 185.338   3
   3   6  -4 9.83859 107.368   7
  -3  -6   3 2032.02 168.310   2
   3   6  -3 1602.58 117.962   1
  -3  -6   3 2070.75 171.462   3
   3   6  -3 1326.30 141.497   7
   3   6  -2 591.120 90.4902   1
  -3  -6   2 262.350 130.215   2
   3   6  -2 291.256 110.488   7
  -3  -6   1 71.3513 121.567   2
   3   6  -1 78.2110 70.4920   1
   3   6  -1 247.181 124.338   7
  -3  -6   0 310.647 128.347   2
   3   6   0 518.784 130.962   7
   3   6   0 374.806 84.3687   1
   3   6   1 234.103 75.9834   1
  -3  -6  -1 296.776 125.886   2
   3   6   1 338.598 119.949   7
  -3  -6  -2 1530.66 174.058   2
   3   6   2 1654.34 130.777   1
   3   6   2 1328.00 140.724   7
  -3  -6  -3 285.614 101.574   6
   3   6   3 294.072 91.2795   1
  -3  -6  -3 192.142 134.939   2
   3   6   3 311.504 112.143   7
  -3  -6  -4 154.817 99.7763   6
   3   6   4 236.170 93.3994   1
  -3  -6  -4 356.978 145.546   2
   3   6   4 104.311 101.103   7
  -3  -6  -5 1102.23 184.758   2
   3   6   5 1376.98 134.991   1
  -3  -6  -5 1285.80 141.491   6
   3   6   6 197.337 100.872   1
  -3  -6  -6 386.882 165.824   2
  -3  -6  -6 401.629 120.450   6
  -3  -6  -7 257.745 112.047   6
   3   6   7 307.871 115.576   1
  -3  -6  -7 273.508 175.589   2
   3   7 -10 94.4154 117.700   7
  -3  -7   9 140.587 119.947   3
   3   7  -9 229.016 120.668   7
  -3  -7   8 362.013 122.309   3
   3   7  -8 259.785 118.124   7
  -3  -7   7 498.071 129.363   3
   3   7  -7 262.867 116.624   7
  -3  -7   6 1200.19 159.205   3
   3   7  -6 689.746 132.856   7
  -3  -7   5 676.857 142.870   3
   3   7  -5 59.0480 113.073   7
  -3  -7   4 1635.20 166.839   3
   3   7  -4 1091.49 155.900   7
   3   7  -3 573.254 150.263   7
   3   7  -2 890.122 148.283   7
  -3  -7   1 445.323 148.765   2
   3   7  -1 409.331 126.933   7
  -3  -7   0 220.558 138.160   2
   3   7   0 205.780 122.102   7
  -3  -7  -1 133.979 142.904   2
   3   7   1 8.32660 121.763   7
  -3  -7  -2 464.705 165.507   2
   3   7   2 509.902 134.402   7
  -3  -7  -3 239.611 101.952   6
  -3  -7  -3 229.211 157.452   2
   3   7   3 85.0850 109.041   7
  -3  -7  -4 1460.16 207.218   2
   4 -10  -5 371.062 159.333   2
   4 -10  -4 292.523 154.454   2
   4 -10  -3 144.224 137.648   2
   4 -10  -2 240.033 135.531   2
   4 -10  -1 297.443 150.711   2
   4 -10   0 417.552 163.758   2
   4 -10   1 896.845 214.834   2
   4 -10   2 17239.3 533.696   2
   4 -10   3 2262.47 263.640   2
   4 -10   4 83.8514 187.763   2
   4 -10   5 1394.93 236.219   2
   4 -10   6 418.605 205.647   2
   4  -9  -9 382.800 154.809   2
   4  -9  -8 259.634 142.863   2
   4  -9  -7 295.302 140.601   2
   4  -9  -6 502.089 150.981   2
   4  -9  -5 5218.72 280.761   2
   4  -9  -4-35.4092 110.532   2
   4  -9  -3 444.622 133.871   2
   4  -9  -2 169.348 126.652   2
   4  -9  -1 294.715 142.576   2
   4  -9   0 185.703 133.780   2
   4  -9   1 1103.22 175.868   2
   4  -9   2 226.448 146.758   2
   4  -9   3 4494.67 283.429   2
   4  -9   4 975.125 182.032   2
   4  -9   5 3951.33 296.027   2
   4  -9   6 586.965 193.716   2
   4  -9   7 1034.91 223.899   2
   4  -9   8 277.196 198.463   2
   4  -9   9 967.055 244.639   2
   4  -8 -12 400.484 156.500   2
   4  -8 -11 1068.40 183.615   2
   4  -8 -10 387.754 154.551   2
   4  -8  -9 323.184 139.474   2
   4  -8  -8 226.919 124.233   2
   4  -8  -7 186.721 116.461   2
  -4   8   6 177.841 103.380   4
   4  -8  -6 49.0700 103.912   2
  -4   8   5 57.0661 86.1770   4
   4  -8  -5 306.724 124.442   2
   4  -8  -4 228.061 113.810   2
   4  -8  -3 790.347 136.168   2
   4  -8  -2 660.712 143.970   2
   4  -8  -1 287.272 118.339   2
   4  -8   0 981.810 151.664   2
   4  -8   1 220.991 126.230   2
   4  -8   2 384.995 137.497   2
   4  -8   3 286.078 140.871   2
   4  -8   4 21753.1 348.381   5
   4  -8   4 23225.2 569.736   2
   4  -8   5 3273.81 159.775   5
   4  -8   5 4176.51 264.157   2
   4  -8   6-206.186 137.225   2
  -4   8  -6-52.5893 83.2906   6
   4  -8   6 35.4691 83.3850   5
  -4   8  -7 2658.67 161.718   6
   4  -8   7 3139.87 174.723   5
   4  -8   7 3288.02 264.148   2
   4  -8   8 97.1259 162.020   2
   4  -8   8 181.758 103.091   5
   4  -8   9 1486.03 154.433   5
   4  -8   9 1672.01 228.104   2
   4  -7 -13 279.092 145.541   2
   4  -7 -12 440.999 139.308   2
   4  -7 -11 2210.98 133.733   6
   4  -7 -11 2286.30 209.047   2
   4  -7 -10 2273.08 129.450   6
   4  -7 -10 2591.44 221.962   2
   4  -7  -9 224.080 66.2435   6
   4  -7  -9 61.1198 110.753   2
   4  -7  -8 259.251 66.8929   6
   4  -7  -8 230.065 110.201   2
   4  -7  -7 404.625 63.2236   6
   4  -7  -7 471.414 124.309   2
   4  -7  -6 551.467 64.9487   6
  -4   7   6 648.173 121.166   4
   4  -7  -6 492.229 124.890   2
   4  -7  -5 275.150 52.3219   6
  -4   7   5 377.330 104.752   4
   4  -7  -5 388.456 113.417   2
   4  -7  -4 1743.01 154.586   2
   4  -7  -4 1880.47 80.6322   6
   4  -7  -3 5412.37 247.882   2
   4  -7  -3 5275.85 168.817   1
   4  -7  -3 5471.52 117.169   6
   4  -7  -2 212.225 60.6339   1
   4  -7  -2 230.935 113.728   2
  -4   7   2 158.770 52.8420   3
   4  -7  -2 219.559 42.6947   6
   4  -7  -1 46.1171 37.5884   6
   4  -7  -1-42.5498 106.008   2
   4  -7  -1-9.12648 47.4141   1
  -4   7   1 59.9974 48.1718   3
   4  -7   0 448.302 58.2070   1
   4  -7   0 540.084 127.944   2
   4  -7   1 459.131 53.2682   1
   4  -7   1 651.787 130.700   2
   4  -7   2 532.290 139.392   2
   4  -7   2 180.104 49.6178   1
   4  -7   3 318.208 122.943   2
   4  -7   3 190.294 47.0993   1
   4  -7   3 241.395 57.4974   3
   4  -7   4 92.0154 50.4869   1
   4  -7   4-3.41486 113.559   2
   4  -7   4 109.698 63.7081   3
  -4   7  -5 3291.17 143.460   6
   4  -7   5 3770.86 126.037   1
   4  -7   5 3604.93 146.188   3
   4  -7   5 3458.59 229.462   2
   4  -7   6 21.2089 114.697   2
  -4   7  -6 210.523 80.5571   6
   4  -7   6 254.464 64.9483   1
   4  -7   6 91.7928 74.2691   3
  -4   7  -7 4446.24 173.213   6
   4  -7   7 4703.29 181.029   3
  -4   7  -8 534.980 103.305   6
   4  -7   8 722.865 113.105   5
   4  -7   8 461.163 101.996   3
   4  -7   8 530.773 80.3916   1
  -4   7  -9 1708.88 142.275   6
   4  -7   9 1447.72 144.830   5
  -4   7 -10 373.722 113.033   6
   4  -7  10 317.869 115.410   5
   4  -7  10 200.501 101.812   3
  -4   7 -11 843.957 137.337   6
   4  -7  11 1029.45 137.335   5
  -4   7 -12 713.630 143.143   6
   4  -7  12 983.214 147.912   5
   4  -6 -15 155.468 106.220   6
   4  -6 -15 254.238 152.480   2
   4  -6 -14 446.377 105.320   6
   4  -6 -14 410.140 141.293   2
   4  -6 -13 226.546 89.2144   6
   4  -6 -13 224.331 127.889   2
   4  -6 -12 196.702 85.4885   6
   4  -6 -12 114.640 118.520   2
   4  -6 -11 286.663 76.4354   6
   4  -6 -11 265.519 114.947   2
   4  -6 -10 326.048 74.9957   6
   4  -6 -10 99.8063 111.276   2
   4  -6  -9 2109.12 110.641   6
   4  -6  -9 2453.50 186.541   2
   4  -6  -8 759.737 77.9907   6
   4  -6  -8 1229.54 144.485   2
   4  -6  -7 137.450 54.9691   6
   4  -6  -7 96.6451 104.442   2
   4  -6  -6 255.590 50.6829   6
   4  -6  -6 90.5675 102.203   2
  -4   6   6 120.700 64.4893   3
   4  -6  -5 687.155 55.9656   6
   4  -6  -5 610.145 107.623   2
  -4   6   5 716.126 116.179   4
  -4   6   5 450.241 61.6999   3
   4  -6  -4 65.8659 34.3603   6
   4  -6  -4 110.324 92.6386   2
  -4   6   4 204.447 85.7412   4
  -4   6   4 167.798 49.9763   3
   4  -6  -3 30.9999 24.8546   6
   4  -6  -3 31.4689 31.1521   6
   4  -6  -3 112.850 95.4420   2
  -4   6   3 49.4555 35.6073   3
   4  -6  -2 250.268 29.3179   6
   4  -6  -2 299.629 108.143   2
  -4   6   2 209.497 32.0727   3
   4  -6  -2 302.253 67.6684   1
   4  -6  -2 281.317 26.4926   6
   4  -6  -1 2016.99 104.919   1
   4  -6  -1 1645.53 49.6334   6
   4  -6  -1 1760.90 43.6918   6
   4  -6  -1 1993.36 156.004   2
   4  -6   0 464.570 30.4232   6
   4  -6   0 593.567 66.0135   1
   4  -6   0 658.069 116.304   2
   4  -6   0 490.971 29.7980   6
   4  -6   1 677.913 35.4562   6
   4  -6   1 827.670 73.8271   1
   4  -6   2 1719.46 59.3914   6
   4  -6   2 2055.65 95.0983   1
   4  -6   2 1654.62 109.537   4
   4  -6   2 1718.95 69.0882   3
   4  -6   2 2030.09 167.021   2
   4  -6   3 89.4135 35.1978   6
   4  -6   3-69.8028 99.7683   2
   4  -6   3 43.6253 45.2124   3
   4  -6   3 14.5519 47.2234   1
   4  -6   4 293.781 47.8736   6
  -4   6  -4 341.738 62.6188   6
   4  -6   4 451.674 112.436   2
   4  -6   4 430.833 62.9010   1
   4  -6   4 393.112 62.0325   3
  -4   6  -5 129.317 63.6023   6
   4  -6   5 328.698 64.1440   1
   4  -6   5 199.654 65.1833   3
  -4   6  -6 13263.0 249.510   6
   4  -6   6 13447.4 259.452   3
  -4   6  -7 3774.73 154.799   6
   4  -6   7 3726.15 160.241   3
  -4   6  -8 115.325 82.8385   6
   4  -6   8 61.8005 65.6684   1
   4  -6   8 50.9705 77.2061   3
  -4   6  -9 3602.72 170.671   6
   4  -6   9 3973.04 168.490   1
  -4   6 -10-6.14208 90.9447   6
   4  -6  10 288.020 100.758   3
   4  -6  10 163.692 79.0503   1
  -4   6 -11 1239.44 143.059   6
   4  -6  11 967.059 128.804   3
   4  -6  11 1030.60 109.485   1
   4  -6  12 316.642 97.2466   1
  -4   6 -12 275.637 116.604   6
   4  -6  12 389.769 120.298   5
   4  -6  12 270.811 114.272   3
  -4   6 -13 1533.54 164.502   6
   4  -6  13 867.061 124.821   1
   4  -6  13 1775.25 171.291   5
   4  -6  13 1060.40 147.781   3
   4  -5 -16 204.822 108.489   6
   4  -5 -16 233.890 146.317   2
   4  -5 -15 533.619 111.343   6
   4  -5 -15 486.418 150.244   2
   4  -5 -14 807.564 110.281   6
   4  -5 -14 1001.47 159.000   2
   4  -5 -13 86.9998 77.5005   6
   4  -5 -13 120.895 116.674   2
   4  -5 -12 1331.04 117.250   6
   4  -5 -12 1463.73 159.316   2
   4  -5 -11 142.704 72.1613   6
   4  -5 -11 88.7179 97.3208   2
   4  -5 -10 222.548 69.8670   6
   4  -5 -10 384.206 110.715   2
   4  -5  -9 2657.58 122.743   6
   4  -5  -9 3069.52 191.338   2
   4  -5  -8 4794.28 144.641   6
   4  -5  -8 5448.99 231.920   2
   4  -5  -7 393.310 58.6721   6
   4  -5  -7 477.957 109.394   2
   4  -5  -6 438.923 52.2667   6
   4  -5  -6 442.555 103.733   2
   4  -5  -5 118.390 36.7739   6
  -4   5   5 196.168 88.8015   4
   4  -5  -5 98.2476 80.1888   2
   4  -5  -4 2268.17 145.385   2
  -4   5   4 2324.72 139.394   4
   4  -5  -3 129.447 13.2615   6
   4  -5  -3 92.7922 15.1948   6
  -4   5   3 86.1653 15.3730   3
   4  -5  -2 2972.98 133.749   1
   4  -5  -2 2922.36 162.811   2
   4  -5  -1 2780.37 160.534   2
   4  -5  -1 2798.86 125.184   1
   4  -5   0 417.605 63.1603   1
   4  -5   0 640.197 107.057   2
   4  -5   1 421.163 62.1577   1
   4  -5   1 462.293 96.4969   2
   4  -5   1 360.058 75.9907   4
   4  -5   2 1874.01 97.8286   1
   4  -5   2 1459.24 107.742   4
   4  -5   2 1128.78 47.4923   3
   4  -5   2 1673.57 141.485   2
   4  -5   2 1011.45 41.0392   6
  -4   5  -3 680.141 50.5373   6
   4  -5   3 833.693 71.0742   1
  -4   5  -3 666.824 79.1762   1
   4  -5   3 660.147 52.5830   3
   4  -5   3 733.209 44.5401   6
  -4   5  -4 544.255 60.6256   6
   4  -5   4 669.785 72.5999   1
   4  -5   4 486.318 61.5664   3
   4  -5   4 546.363 48.1411   6
   4  -5   5-10.5441 50.1852   1
   4  -5   5 83.6303 43.7825   6
  -4   5  -5 26.0401 54.8674   6
   4  -5   5 54.2974 53.5362   3
   4  -5   6 228.361 67.6209   1
   4  -5   6 100.130 51.7229   6
  -4   5  -6 164.313 66.3134   6
   4  -5   6 84.3264 63.2795   3
  -4   5  -7 2717.09 127.420   6
   4  -5   7 2675.55 133.687   3
   4  -5   7 3067.66 143.644   1
  -4   5  -8 283.531 80.1293   6
   4  -5   8 226.882 74.3361   1
   4  -5   8 300.740 79.5368   3
  -4   5  -9 3400.87 165.061   6
   4  -5   9 3625.72 181.479   3
   4  -5   9 3927.35 176.095   1
  -4   5 -10 434.962 102.795   6
   4  -5  10 361.267 98.0438   3
   4  -5  10 483.766 90.2647   1
  -4   5 -11 1185.96 130.105   6
   4  -5  11 1165.42 132.770   3
   4  -5  11 1485.79 135.075   1
  -4   5 -12 294.901 114.644   6
   4  -5  12 516.852 122.923   5
   4  -5  12 219.558 106.465   3
   4  -5  12 243.181 94.4710   1
   4  -5  13 677.790 134.939   5
   4  -5  13 516.678 128.184   3
  -4   5 -13 682.016 134.711   6
   4  -5  13 371.722 101.551   1
   4  -5  14 270.493 107.796   1
  -4   5 -14 394.485 134.442   6
   4  -5  14 326.352 129.811   5
   4  -5  14 383.509 132.023   3
   4  -4 -16 274.845 107.189   6
   4  -4 -16 321.704 140.281   2
   4  -4 -15 9391.45 280.618   6
   4  -4 -15 8433.74 312.386   2
   4  -4 -14 245.919 89.2945   6
   4  -4 -14 235.922 123.101   2
   4  -4 -13 196.140 77.2640   6
   4  -4 -13 362.799 117.868   2
   4  -4 -12 741.806 91.8794   6
   4  -4 -12 762.062 126.922   2
   4  -4 -11 121.753 69.4145   6
   4  -4 -11 138.734 96.1488   2
   4  -4 -10 90.4158 61.8032   6
   4  -4 -10 219.329 99.0769   2
   4  -4  -9 649.849 75.4297   6
   4  -4  -9 932.431 132.422   2
   4  -4  -8 364.319 62.0056   6
  -4   4   8 211.697 58.2138   6
   4  -4  -8 481.998 100.498   2
   4  -4  -7 2909.10 104.737   6
  -4   4   7 2853.78 103.530   6
   4  -4  -6 2333.65 83.0343   6
  -4   4   6 2246.13 82.3505   6
   4  -4  -5 835.423 48.6940   6
  -4   4   5 987.340 114.784   4
   4  -4  -4 566.687 90.2127   2
   4  -4  -4 345.386 26.5377   6
  -4   4   4 471.988 89.3359   4
  -4   4   4 294.408 26.8657   3
   4  -4  -3 3252.00 155.710   2
   4  -4  -2 269.705 57.8123   1
   4  -4  -2 446.426 84.5193   2
   4  -4  -1 40.7005 47.8226   1
   4  -4  -1-76.2165 74.4049   2
   4  -4   0 1659.19 98.4005   1
   4  -4   0 1607.03 117.655   2
   4  -4   1 4882.13 154.218   1
   4  -4   1 4268.49 164.723   4
  -4   4  -2 251.926 26.3616   6
   4  -4   2 203.159 27.9891   3
  -4   4  -3 644.360 49.4241   6
   4  -4   3 561.183 46.5933   6
  -4   4  -4 1456.12 74.3904   6
   4  -4   4 1515.89 96.5839   1
   4  -4   4 1368.19 67.3397   6
   4  -4   5 45.6596 41.8534   6
  -4   4  -5 27.8293 50.1529   6
   4  -4   5 76.8374 57.8836   1
   4  -4   6 186.792 65.7713   1
   4  -4   6 126.253 49.9693   6
  -4   4  -6 142.848 61.4992   6
   4  -4   6 98.6179 20.6921   7
   4  -4   7 149.539 70.8095   1
  -4   4  -7 154.393 65.6745   6
  -4   4  -8 4811.64 168.705   6
   4  -4   8 5242.73 191.294   1
  -4   4  -9 2334.88 140.019   6
   4  -4   9 2973.75 155.676   1
  -4   4 -10-64.4519 81.2838   6
   4  -4  10 96.0837 71.8563   1
  -4   4 -11 1962.78 147.275   6
   4  -4  11 2358.28 153.912   1
  -4   4 -12 264.720 101.201   6
   4  -4  12 81.1707 86.3119   1
  -4   4 -13 435.846 121.686   6
   4  -4  13 639.389 128.707   5
   4  -4  13 519.592 107.559   1
   4  -4  14 140.600 96.3150   1
  -4   4 -14 259.185 124.024   6
   4  -4  14 330.362 127.268   5
   4  -3 -17 595.641 135.006   6
   4  -3 -16 299.527 110.536   6
   4  -3 -16 448.396 133.162   2
   4  -3 -15 187.944 94.8805   6
   4  -3 -15 378.674 121.081   2
   4  -3 -14 244.783 91.8078   6
   4  -3 -14 305.412 112.024   2
   4  -3 -13 1347.40 122.292   6
   4  -3 -13 1326.14 137.415   2
   4  -3 -12 3037.87 152.470   6
   4  -3 -12 2961.58 175.160   2
   4  -3 -11 84.7013 70.0267   6
   4  -3 -11 258.444 101.465   2
   4  -3 -10 2486.10 127.517   6
   4  -3 -10 2561.17 161.209   2
   4  -3  -9 410.523 69.5721   6
   4  -3  -9 412.301 90.2194   2
  -4   3   8 85.1008 48.3267   6
   4  -3  -8 92.3013 54.7632   6
  -4   3   8 170.897 86.0768   2
   4  -3  -8 115.850 82.2488   2
   4  -3  -7 1173.38 75.5591   6
   4  -3  -7 1356.91 107.924   2
  -4   3   7 970.411 80.2791   3
  -4   3   7 1207.12 110.751   2
  -4   3   7 967.938 66.9892   6
   4  -3  -6 6324.66 179.317   2
   4  -3  -6 5254.44 120.859   6
  -4   3   6 5916.36 223.566   4
  -4   3   6 5317.30 130.761   3
  -4   3   6 6244.24 196.292   2
  -4   3   6 5392.44 117.931   6
   4  -3  -5 1720.62 101.970   2
   4  -3  -5 1420.01 61.6338   6
  -4   3   5 1534.73 129.793   4
  -4   3   5 1455.48 66.0680   3
  -4   3   5 1728.83 107.316   2
  -4   3   5 1488.04 60.0654   6
   4  -3  -4 522.038 76.1271   2
   4  -3  -4 461.198 34.9237   6
  -4   3   4 414.173 84.3669   4
  -4   3   4 443.366 36.8496   3
  -4   3   4 491.013 31.8788   6
  -4   3   3 147.101 17.3813   3
  -4   3   3 86.5687 14.9135   6
   4  -3  -2 2995.31 141.900   1
   4  -3  -2 2952.82 139.040   2
   4  -3  -1 701.791 83.1043   2
   4  -3  -1 585.726 81.7432   4
   4  -3  -1 673.270 81.2060   1
   4  -3   0 616.617 73.4264   1
   4  -3   0 427.010 78.7228   4
  -4   3  -1 327.438 26.9439   6
   4  -3   1 347.332 27.6801   3
  -4   3  -2 250.228 34.7033   6
   4  -3   2 283.635 62.4489   1
  -4   3  -3 2155.18 73.9294   6
   4  -3   3 2339.19 116.300   1
  -4   3  -4 1870.72 81.5177   6
   4  -3   4 1988.01 110.684   1
   4  -3   4 1694.50 79.2053   6
  -4   3  -5 520.565 62.3510   6
   4  -3   5 560.272 79.0961   1
   4  -3   5 529.661 63.2261   6
  -4   3  -6 800.737 77.7639   6
   4  -3   6 887.144 88.7635   1
   4  -3   6 743.105 51.6278   7
   4  -3   7 132.836 66.1411   1
  -4   3  -7 58.4021 66.0697   6
   4  -3   7 107.874 30.9806   7
  -4   3  -8 365.165 82.4513   6
   4  -3   8 340.240 79.7277   1
  -4   3  -9 1696.07 122.338   6
   4  -3   9 2022.26 141.223   1
  -4   3 -10 1143.15 120.220   6
   4  -3  10 987.248 110.287   1
  -4   3 -11 1187.23 132.917   6
   4  -3  11 1026.47 118.447   1
  -4   3 -12 211.518 108.060   6
   4  -3  12 250.847 90.1462   1
  -4   3 -13 709.161 134.425   6
   4  -3  13 854.156 122.667   1
   4  -3  14 221.955 101.777   1
  -4   3 -14 207.830 118.814   6
   4  -3  14 76.0423 128.172   5
   4  -2 -17 130.542 111.184   6
  -4   2  17 123.778 140.123   3
   4  -2 -16 454.939 112.022   6
  -4   2  16 411.377 136.117   3
   4  -2 -15 365.011 102.660   6
   4  -2 -15 609.799 127.895   2
  -4   2  15 417.985 127.099   3
   4  -2 -14 667.772 104.848   6
   4  -2 -14 668.899 117.809   2
  -4   2  14 555.563 126.029   3
   4  -2 -13 9423.99 266.450   6
   4  -2 -13 9512.82 271.688   2
  -4   2  13 9752.41 300.038   3
   4  -2 -12 31.4563 71.3778   6
  -4   2  12 104.416 87.8223   3
   4  -2 -12 81.7304 88.7530   2
   4  -2 -11 283.588 78.5258   6
  -4   2  11 172.433 88.5081   3
   4  -2 -11 172.956 83.1299   2
  -4   2  10 856.438 110.703   2
   4  -2 -10 713.510 84.9878   6
   4  -2 -10 602.291 90.9121   2
  -4   2  10 601.349 94.1623   3
   4  -2  -9 158.535 61.3323   6
  -4   2   9 127.043 82.6419   2
   4  -2  -9 29.8163 68.9534   2
  -4   2   9 47.8068 68.0286   3
  -4   2   8 459.229 61.4338   6
   4  -2  -8 768.320 76.7538   6
   4  -2  -8 570.560 82.0229   2
  -4   2   8 564.235 80.1486   3
  -4   2   8 695.380 86.6912   2
  -4   2   7 1207.00 72.6424   6
   4  -2  -7 1313.44 82.4252   6
   4  -2  -7 1156.70 87.7800   2
  -4   2   7 1132.35 84.7407   3
  -4   2   7 1422.96 100.103   2
  -4   2   6 236.635 44.4597   6
   4  -2  -6 287.354 51.1927   6
  -4   2   6 309.105 63.7631   2
  -4   2   6 371.642 96.2946   4
  -4   2   6 303.029 57.0796   3
   4  -2  -6 262.810 55.1665   2
  -4   2   5 3357.19 94.2584   6
   4  -2  -5 3712.98 116.964   2
   4  -2  -5 3324.01 102.146   6
  -4   2   5 3256.88 172.457   4
  -4   2   5 3449.97 107.254   3
   4  -2  -4 2388.02 95.8949   2
  -4   2   4 2423.87 74.9739   6
   4  -2  -4 2456.10 82.9634   6
  -4   2   4 2389.20 142.920   4
  -4   2   4 2364.13 82.3790   3
  -4   2   3 2985.59 76.5982   6
  -4   2   3 2966.68 81.5677   3
   4  -2  -3 2652.09 135.647   1
   4  -2  -3 2734.72 110.223   2
  -4   2   2 974.761 47.6793   6
   4  -2  -2 983.613 49.8373   3
   4  -2  -2 807.191 78.3821   2
   4  -2  -2 1008.68 99.8772   1
   4  -2  -1 3195.49 146.939   1
  -4   2   1 3120.99 79.3775   6
   4  -2  -1 3494.68 83.2304   3
  -4   2   0 186.008 38.1531   6
   4  -2   0 169.189 66.8801   1
   4  -2   0 252.564 39.3453   3
  -4   2   0 216.971 35.8094   6
  -4   2  -1 21.9583 32.3386   6
   4  -2   1 20.0756 53.1816   1
   4  -2   1 36.5768 34.7006   3
   4  -2   1 39.5083 57.4451   2
   4  -2   2 1386.61 97.7247   1
  -4   2  -2 1295.61 63.0524   6
  -4   2  -3 3496.58 104.560   6
   4  -2   3 3831.90 149.828   1
  -4   2  -4 0.34582 44.4519   6
   4  -2   4 42.8711 52.6138   1
  -4   2  -5 705.008 69.6509   6
   4  -2   5 785.440 88.1815   1
   4  -2   6 175.099 63.2040   1
  -4   2  -6 144.061 59.2972   6
   4  -2   6 83.7223 46.3974   7
   4  -2   7-36.4661 61.9291   1
  -4   2  -7-57.1841 62.1260   6
   4  -2   7-5.65286 50.7630   7
   4  -2   8-38.8120 68.2727   1
  -4   2  -8-88.0091 72.5532   6
  -4   2  -9 69.8697 74.5455   6
   4  -2   9 38.9264 71.3089   1
  -4   2 -10 713.271 101.245   6
   4  -2  10 989.623 115.121   1
  -4   2 -11 881.889 119.819   6
   4  -2  11 1020.28 120.867   1
  -4   2 -12 147.161 97.3666   6
   4  -2  12 125.284 83.9226   1
  -4   2 -13 674.040 135.678   6
   4  -2  13 592.956 113.255   1
  -4   2 -14 572.748 134.153   6
   4  -2  14 314.438 107.682   1
   4  -1 -17 422.402 123.984   6
  -4   1  17 676.729 153.932   3
   4  -1 -16 212.417 100.954   6
  -4   1  16 139.803 123.397   3
   4  -1 -15 518.309 110.337   6
  -4   1  15 509.631 131.905   3
   4  -1 -14 1494.96 131.633   6
  -4   1  14 1612.44 159.799   3
   4  -1 -13 44.6130 72.0312   6
  -4   1  13 44.5908 96.9550   3
   4  -1 -13 192.608 96.4304   2
   4  -1 -12 749.398 102.128   6
   4  -1 -12 634.712 105.229   2
  -4   1  12 602.773 112.873   3
  -4   1  11 3357.58 144.498   2
   4  -1 -11 4164.36 181.847   6
   4  -1 -11 3599.31 153.511   2
  -4   1  11 4211.40 190.602   3
  -4   1  10 4839.76 161.465   2
   4  -1 -10 4836.31 178.021   6
  -4   1  10 4912.95 191.004   3
   4  -1  -9 128.892 62.6627   6
  -4   1   9 184.771 64.5211   2
  -4   1   9 234.637 76.1461   3
   4  -1  -9 169.978 60.5162   2
   4  -1  -8 1983.69 112.188   6
   4  -1  -8 1593.80 79.0455   2
  -4   1   8 1945.11 118.369   3
  -4   1   8 1652.08 85.6637   2
  -4   1   7 401.852 62.8904   6
   4  -1  -7 422.000 68.0240   6
   4  -1  -7 246.903 38.6383   2
  -4   1   7 474.488 101.458   4
  -4   1   7 573.843 78.9846   3
  -4   1   7 380.162 45.9740   2
  -4   1   6-62.9320 48.4795   6
   4  -1  -6 96.0365 52.1532   6
  -4   1   6-27.2691 77.0472   4
   4  -1  -6 17.7010 23.1005   2
  -4   1   6-21.4270 52.1500   3
  -4   1   5 538.833 61.2529   6
   4  -1  -5 473.592 61.1439   6
   4  -1  -5 335.253 26.1567   2
  -4   1   5 347.462 86.5871   4
  -4   1   5 450.774 66.0319   3
  -4   1   4 1807.59 81.9498   6
   4  -1  -4 1996.75 92.5415   6
   4  -1  -4 2025.91 91.1140   3
  -4   1   4 2089.98 95.4748   3
  -4   1   3 2866.42 97.5151   6
   4  -1  -3 2411.88 83.2941   2
   4  -1  -3 3241.96 106.431   3
  -4   1   3 3070.60 106.092   3
   4  -1  -3 3255.12 158.936   1
   4  -1  -3 2673.45 77.4956   2
   4  -1  -2 40.0453 62.9088   1
  -4   1   2-11.4491 43.7997   6
   4  -1  -2-40.2606 40.0524   3
   4  -1  -2-6.78275 42.6282   2
  -4   1   2-37.2740 47.0401   3
   4  -1  -1 2007.81 122.432   1
  -4   1   1 1760.50 81.0522   6
   4  -1  -1 1937.67 87.3448   3
   4  -1   0 913.836 90.2430   1
  -4   1   0 833.924 63.5687   6
   4  -1   0 763.828 70.6175   2
   4  -1   0 976.017 68.3222   3
   4  -1   1 603.287 76.3552   1
   4  -1   1 425.538 70.3876   2
   4  -1   1 630.251 62.8708   3
  -4   1  -1 636.452 62.1303   6
   4  -1   2 213.707 66.4826   1
   4  -1   2 178.954 65.8087   2
   4  -1   2 214.323 53.4350   3
  -4   1  -2 233.475 52.9221   6
  -4   1  -3 30.9733 45.9644   6
   4  -1   3 17.0296 53.8532   1
   4  -1   3 27.9489 64.6753   2
  -4   1  -4 65.4266 54.3164   6
   4  -1   4 202.335 64.4044   1
   4  -1   5 2004.77 122.637   1
   4  -1   5 1819.63 99.2894   7
  -4   1  -5 1733.62 101.378   6
  -4   1  -6 1161.87 93.2349   6
   4  -1   6 1114.46 104.330   1
   4  -1   6 1162.13 80.8160   7
   4  -1   7 154.298 73.9281   1
  -4   1  -7 195.375 72.9465   6
   4  -1   7 119.591 63.2640   7
  -4   1  -8 455.493 84.9720   6
   4  -1   8 635.821 99.8198   1
   4  -1   8 543.201 71.2528   7
  -4   1  -9 83.8696 76.4712   6
   4  -1   9 5.34021 73.3540   1
  -4   1 -10 350.169 96.6594   6
   4  -1  10 185.535 87.9333   1
  -4   1 -11 886.230 124.277   6
   4  -1  11 1101.54 122.807   1
  -4   1 -12 644.063 117.251   6
   4  -1  12 765.482 112.936   1
  -4   1 -13 88.4573 102.637   6
   4  -1  13 192.874 98.0568   1
  -4   1 -14 214.565 125.047   6
   4  -1  14 161.336 105.874   1
   4   0 -17 595.885 134.536   6
  -4   0  17 800.063 162.998   3
   4   0 -16 387.262 116.635   6
  -4   0  16 332.426 136.890   3
   4   0 -15 177.986 95.6278   6
  -4   0  15 172.000 114.667   3
   4   0 -14 397.864 98.3186   6
  -4   0  14 386.443 117.245   3
   4   0 -13 1233.21 123.094   6
  -4   0  13 1014.62 131.488   3
   4   0 -12 4152.45 183.818   6
  -4   0  12 4003.96 200.381   3
   4   0 -11 4892.46 198.596   6
  -4   0  11 4776.61 206.821   3
   4   0 -10 95.3209 77.8938   6
  -4   0  10 72.7862 49.5880   2
  -4   0  10 221.557 88.2309   3
   4   0  -9 134.271 75.9104   6
  -4   0   9 119.050 35.8360   2
  -4   0   9 227.407 83.6149   3
   4   0  -8 658.347 83.5440   6
  -4   0   8 795.780 116.220   4
  -4   0   8 597.753 89.0754   3
   4   0  -7 100.119 63.2797   6
  -4   0   7 171.804 88.6826   4
  -4   0   7 107.195 65.8901   3
   4   0  -6 815.491 83.8494   6
  -4   0   6 870.034 104.561   4
  -4   0   6 977.012 90.9654   3
  -4   0   5 1665.69 92.5744   6
   4   0  -5 1853.84 107.468   6
  -4   0   5 1753.78 130.298   4
   4   0  -5 1603.37 96.6705   3
  -4   0   5 1945.62 112.878   3
   4   0  -4 219.855 78.0929   1
  -4   0   4 287.896 57.6241   6
   4   0  -4 199.769 53.5585   3
  -4   0   4 231.253 65.9799   3
  -4   0   3 2541.52 108.690   6
   4   0  -3 2460.16 110.140   3
  -4   0   3 2379.60 112.945   3
   4   0  -3 2481.16 148.391   1
  -4   0   2-34.2197 46.6907   6
   4   0  -2 76.7036 66.7330   1
   4   0  -2 4.18776 29.6211   2
   4   0  -2 116.382 50.9349   3
  -4   0   2 61.3083 58.5827   3
   4   0  -1 1147.20 103.251   1
   4   0  -1 1096.33 69.2658   2
  -4   0   1 1180.05 82.5406   6
   4   0  -1 1118.25 78.9357   3
   4   0   0 1525.75 115.574   1
  -4   0   0 1459.96 87.9804   6
   4   0   0 1437.95 87.9369   2
   4   0   0 1551.34 93.3961   3
   4   0   1 962.705 98.6855   1
   4   0   1 872.990 82.1262   2
   4   0   1 830.329 74.7178   3
  -4   0  -2 43.5392 51.9002   6
   4   0   2 33.7142 65.0512   1
   4   0   2 99.3994 65.3513   2
  -4   0  -3 49.9084 55.2953   6
   4   0   3-88.8602 65.3261   1
  -4   0  -4 289.478 68.7944   6
   4   0   4 405.700 78.6958   1
   4   0   4 272.882 70.9674   7
   4   0   5 1408.30 118.277   1
   4   0   5 1285.95 98.1589   7
  -4   0  -5 1572.49 104.131   6
   4   0   6-12.4503 74.7023   1
  -4   0  -6-39.9233 65.5117   6
   4   0   6 57.4654 60.5458   7
   4   0   7 1128.28 114.412   1
   4   0   7 954.348 93.1766   7
  -4   0  -7 904.326 96.6770   6
   4   0   8 128.950 88.1027   1
  -4   0  -8 56.9324 75.6716   6
   4   0   8 81.7761 65.9787   7
  -4   0  -9 94.3496 79.3300   6
   4   0   9 204.989 91.8331   1
  -4   0 -10 11.1335 80.6948   6
   4   0  10 91.7823 92.3387   1
  -4   0 -11 320.388 100.559   6
   4   0  11 215.120 94.4513   1
  -4   0 -12 136.503 107.118   6
   4   0  12-83.8569 91.8328   1
  -4   0 -13 173.659 114.732   6
   4   0  13 140.561 96.0213   1
  -4   0 -14 85.6427 121.422   6
   4   1 -17 297.830 132.410   6
  -4  -1  17 395.641 153.455   3
   4   1 -16 200.534 117.341   6
  -4  -1  16 513.521 147.206   3
   4   1 -15 449.560 116.782   6
  -4  -1  15 419.001 133.912   3
   4   1 -14 49.1567 94.0799   6
  -4  -1  14 42.5789 108.384   3
   4   1 -13 358.818 98.6958   6
  -4  -1  13 349.685 111.872   3
   4   1 -12 2732.95 169.831   6
  -4  -1  12 2340.49 173.025   3
   4   1 -11 184.984 85.0360   6
  -4  -1  11 248.736 101.582   3
   4   1 -10 3502.38 176.241   6
  -4  -1  10 3509.85 207.005   4
  -4  -1  10 3489.13 182.794   3
   4   1  -9 8433.59 242.633   6
  -4  -1   9 8649.83 294.924   4
  -4  -1   9 8160.90 249.494   3
   4   1  -8 4519.83 178.847   6
  -4  -1   8 4665.53 219.498   4
  -4  -1   8 4467.72 188.749   3
   4   1  -7 133.871 70.4607   6
  -4  -1   7 40.8300 83.0603   4
  -4  -1   7 142.953 77.5555   3
   4   1  -6 800.413 94.6804   6
  -4  -1   6 754.584 104.827   4
  -4  -1   6 887.728 101.619   3
   4   1  -5 104.496 73.4626   1
   4   1  -5 38.6682 60.6175   6
  -4  -1   5 219.837 71.5313   3
   4   1  -4 0.85670 78.6364   1
  -4  -1   4-27.5264 62.2129   3
  -4  -1   3 4442.34 162.691   3
   4   1  -3 3819.90 179.783   1
   4   1  -2 79.3625 69.0479   1
   4   1  -2 54.2225 34.2229   2
  -4  -1   2 61.9932 69.3898   3
   4   1  -1 1141.12 75.8266   2
   4   1  -1 1224.69 110.264   1
   4   1   0 750.874 74.1422   2
   4   1   0 872.594 96.6230   1
  -4  -1   0 661.371 78.0455   2
   4   1   1 1359.75 101.678   2
   4   1   1 1437.87 112.051   1
  -4  -1  -1 1336.02 110.397   2
  -4  -1  -2 45.9882 61.5789   6
   4   1   2 77.6583 75.1219   2
   4   1   2 25.7005 64.4469   1
  -4  -1  -2 13.7252 84.3599   2
   4   1   3 574.366 86.3540   1
   4   1   3 469.651 85.0588   7
  -4  -1  -3 474.478 102.259   2
  -4  -1  -3 447.373 79.5143   6
  -4  -1  -4 922.533 122.520   2
   4   1   4 1061.30 105.977   1
   4   1   4 1092.53 103.660   7
  -4  -1  -4 915.956 93.7385   6
  -4  -1  -5 122.618 73.8333   6
  -4  -1  -5-0.09868 108.696   2
   4   1   5 59.2876 66.4069   7
   4   1   5 61.7721 73.6528   1
   4   1   6 32.2847 72.1469   1
  -4  -1  -6 20.1055 68.1720   6
  -4  -1  -6-148.816 115.962   2
   4   1   6-40.9832 78.6038   7
  -4  -1  -7 523.251 90.7515   6
   4   1   7 735.922 107.909   1
  -4  -1  -7 427.606 139.277   2
   4   1   7 698.959 94.4312   7
  -4  -1  -8 365.442 88.2419   6
   4   1   8 283.493 98.4003   1
  -4  -1  -8 486.087 154.139   2
   4   1   8 345.255 83.0533   7
  -4  -1  -9 216.009 89.9586   6
   4   1   9 121.131 93.2164   1
  -4  -1 -10 57.9063 91.9462   6
   4   1  10-83.8107 95.7138   1
  -4  -1 -10 251.839 154.883   2
  -4  -1 -11 211.249 106.724   6
   4   1  11 31.6370 100.386   1
  -4  -1 -11 103.287 158.522   2
  -4  -1 -12 192.052 108.406   6
   4   1  12 186.100 115.898   1
  -4  -1 -12 337.171 179.155   2
  -4  -1 -13 385.465 128.598   6
   4   1  13 496.802 138.605   1
   4   2 -16 315.434 126.893   6
  -4  -2  16 412.687 145.562   3
   4   2 -15 1108.82 150.762   6
  -4  -2  15 994.687 159.144   3
   4   2 -14 470.457 122.944   6
  -4  -2  14 390.827 126.742   3
   4   2 -13 344.604 110.144   6
  -4  -2  13 490.197 129.242   3
   4   2 -12 653.672 110.677   6
  -4  -2  12 596.492 128.705   4
  -4  -2  12 563.419 121.505   3
   4   2 -11 2544.36 167.655   6
  -4  -2  11 2855.54 212.111   4
  -4  -2  11 2356.06 170.056   3
   4   2 -10 6883.82 240.894   6
  -4  -2  10 7201.73 282.599   4
  -4  -2  10 7055.74 253.962   3
   4   2  -9 730.711 107.904   6
  -4  -2   9 580.580 124.302   4
  -4  -2   9 782.649 116.053   3
   4   2  -8 352.987 93.7096   6
  -4  -2   8 355.090 108.582   4
  -4  -2   8 401.229 97.1265   3
   4   2  -7 601.746 98.4357   6
  -4  -2   7 389.670 97.8919   3
   4   2  -6 516.270 90.7588   6
  -4  -2   6 470.293 97.6229   3
   4   2  -6 287.856 95.2022   1
   4   2  -5 115.619 86.6688   1
  -4  -2   5-62.8843 74.7547   3
   4   2  -4 82.9083 77.1834   1
  -4  -2   4 165.568 78.1570   3
   4   2  -3 836.805 108.103   1
  -4  -2   3 554.251 48.9312   2
  -4  -2   3 782.749 105.267   3
   4   2  -3 496.907 45.2800   2
   4   2  -2 80.5483 54.7435   2
   4   2  -2 138.840 80.3787   1
  -4  -2   2 262.152 93.9756   3
  -4  -2   2 60.3183 52.4940   2
   4   2  -1 2147.46 112.802   2
   4   2  -1 2212.12 140.097   1
  -4  -2   1 1917.54 103.412   2
   4   2   0 1608.10 104.742   2
   4   2   0 1925.89 133.936   1
  -4  -2   0 1958.20 118.679   2
   4   2   1 377.899 89.4190   1
   4   2   1 194.866 81.7288   2
  -4  -2  -1 278.453 87.6949   2
   4   2   1 282.565 87.4566   7
   4   2   2 639.371 92.5227   1
   4   2   2 472.870 91.3126   7
  -4  -2  -2 437.494 102.111   2
  -4  -2  -3-11.4237 69.4923   6
  -4  -2  -3 7.24450 98.4830   2
   4   2   3 2.67654 70.4509   1
   4   2   3 56.2525 75.3016   7
  -4  -2  -4 85.9174 73.9115   6
   4   2   4 135.502 80.5346   1
  -4  -2  -4 177.443 103.588   2
   4   2   4 142.472 73.6900   7
   4   2   5 192.092 80.9664   1
  -4  -2  -5 172.413 84.8758   6
  -4  -2  -5 95.5997 110.385   2
   4   2   5 137.319 83.5714   7
   4   2   6 146.131 84.5990   1
  -4  -2  -6 18.0441 78.3091   6
  -4  -2  -6 121.356 124.926   2
   4   2   6 1.72564 77.2857   7
   4   2   7 210.578 90.5384   1
  -4  -2  -7 314.316 86.2656   6
  -4  -2  -7 390.314 147.026   2
   4   2   7 277.781 96.6789   7
  -4  -2  -8 72.6524 87.0602   6
   4   2   8 70.1202 90.7128   1
  -4  -2  -8 211.157 143.360   2
   4   2   8 126.013 79.8392   7
   4   2   9 760.832 124.848   1
  -4  -2  -9 704.456 161.461   2
  -4  -2  -9 766.750 116.113   6
  -4  -2 -10 201.698 106.661   6
   4   2  10 100.369 98.8878   1
  -4  -2 -10 258.974 164.084   2
  -4  -2 -11 212.423 111.310   6
   4   2  11 161.069 114.947   1
  -4  -2 -11 158.698 178.811   2
  -4  -2 -12 219.970 119.058   6
   4   2  12 244.479 122.288   1
  -4  -2 -12 214.226 178.693   2
   4   3 -16 343.015 138.606   6
  -4  -3  16 361.659 157.152   3
   4   3 -15 316.512 127.221   6
  -4  -3  15 260.914 144.434   4
  -4  -3  15 137.732 136.094   3
   4   3 -14 246.327 112.144   6
  -4  -3  14 243.066 138.988   4
  -4  -3  14 168.853 125.222   3
   4   3 -13 498.992 117.322   6
  -4  -3  13 555.708 142.206   4
  -4  -3  13 362.407 123.608   3
   4   3 -12 173.286 102.977   6
  -4  -3  12 219.613 122.872   4
  -4  -3  12 38.4666 109.464   3
   4   3 -11 113.989 95.0450   6
  -4  -3  11 171.071 113.039   4
  -4  -3  11 121.366 114.013   3
   4   3 -10 1668.07 148.055   6
  -4  -3  10 1316.07 146.915   4
  -4  -3  10 1254.56 140.873   3
   4   3  -9 109.034 102.322   6
  -4  -3   9 134.168 96.8030   4
  -4  -3   9 86.7790 101.455   3
   4   3  -8 9132.16 286.780   6
  -4  -3   8 9175.65 297.820   3
   4   3  -7 9503.92 284.276   6
  -4  -3   7 9604.66 299.293   3
  -4  -3   6 934.264 118.582   3
   4   3  -6 713.086 118.902   1
   4   3  -5-9.48729 82.7622   1
  -4  -3   5-27.8051 27.5441   2
  -4  -3   5 68.9419 86.0568   3
   4   3  -4 17.8559 83.4936   1
  -4  -3   4-18.0942 42.1031   2
  -4  -3   4 65.3825 83.3134   3
   4   3  -3 81.5111 80.7207   1
  -4  -3   3 17.0991 55.8445   2
  -4  -3   3 67.0269 84.9554   3
   4   3  -2 75.9204 72.8739   2
   4   3  -2 115.512 85.8769   1
  -4  -3   2-65.2765 68.5395   2
  -4  -3   1 2507.04 134.236   2
   4   3  -1 2703.13 160.611   7
   4   3  -1 2404.82 149.602   2
   4   3   0 1254.31 123.048   1
  -4  -3   0 896.253 108.819   2
   4   3   0 1117.48 119.691   7
   4   3   1 164.780 74.9366   1
  -4  -3  -1 6.64182 86.4437   2
   4   3   1 99.2999 78.5590   7
   4   3   2 666.387 96.9740   1
  -4  -3  -2 478.272 113.998   2
   4   3   2 407.136 92.8278   7
  -4  -3  -3 224.415 85.0350   6
  -4  -3  -3 364.395 112.893   2
   4   3   3 215.811 83.2813   1
   4   3   3 78.0331 73.3941   7
  -4  -3  -4 50.8529 81.4384   6
  -4  -3  -4-101.141 110.675   2
   4   3   4 43.5474 94.9300   7
   4   3   4 133.754 79.9416   1
   4   3   5 423.925 95.3359   1
  -4  -3  -5 478.147 100.255   6
  -4  -3  -5 250.937 125.899   2
   4   3   5 592.439 107.237   7
  -4  -3  -6 695.707 150.145   2
   4   3   6 652.875 108.462   1
   4   3   6 717.309 113.288   7
  -4  -3  -6 637.633 107.603   6
  -4  -3  -7-31.8355 92.9540   6
   4   3   7 253.938 108.795   1
  -4  -3  -7 36.4495 126.973   2
   4   3   7-7.13783 81.1072   7
  -4  -3  -8 13.6546 88.9489   6
   4   3   8 30.5684 93.7039   1
  -4  -3  -8 28.7224 134.178   2
  -4  -3  -9 113.347 102.920   6
   4   3   9-18.3605 99.1139   1
  -4  -3  -9 92.0323 152.329   2
  -4  -3 -10-20.0555 102.691   6
   4   3  10 282.680 121.041   1
  -4  -3 -10 312.483 181.066   2
  -4  -3 -11 242.479 129.460   6
   4   3  11 20.7791 114.974   1
  -4  -3 -11 434.189 189.050   2
   4   4 -14 470.898 137.953   6
  -4  -4  14 332.125 148.503   4
  -4  -4  14 562.490 158.794   3
   4   4 -13 1050.27 154.271   6
  -4  -4  13 821.843 155.398   4
  -4  -4  13 1194.89 171.880   3
   4   4 -12 215.377 118.843   6
  -4  -4  12 325.744 126.927   4
  -4  -4  12 239.503 126.330   3
  -4  -4  11 477.225 126.964   4
  -4  -4  11 327.823 128.262   3
   4   4 -10 474.019 121.076   6
  -4  -4  10 752.779 141.467   3
   4   4  -9 2129.64 173.259   6
  -4  -4   9 2284.87 184.861   3
  -4  -4   8 5155.88 248.385   3
   4   4  -8 4097.74 233.005   1
   4   4  -7 76.9618 97.9768   1
  -4  -4   7-84.4292 100.942   3
   4   4  -6 900.696 125.950   1
  -4  -4   6 835.548 128.216   3
   4   4  -5 938.947 122.900   1
  -4  -4   5 1231.46 137.891   3
   4   4  -4 387.393 98.5104   1
  -4  -4   4 201.081 76.4984   2
  -4  -4   4 468.400 111.848   3
   4   4  -3 5.38397 76.1197   1
  -4  -4   3 31.0571 82.5302   2
  -4  -4   3 7.60256 88.6546   3
   4   4  -3-42.1782 91.7164   7
   4   4  -2-5.28958 75.8713   1
  -4  -4   2 144.792 87.1045   2
   4   4  -2 16.5364 97.1605   7
   4   4  -1 285.825 92.2446   1
  -4  -4   1 95.2758 93.1860   2
   4   4  -1 129.706 89.9785   7
   4   4   0-25.6154 83.8038   7
  -4  -4   0 85.8064 102.656   2
   4   4   0 113.761 79.8737   1
  -4  -4  -1 1596.13 145.629   2
   4   4   1 1894.75 134.180   1
   4   4   1 1541.27 135.377   7
  -4  -4  -2 2361.00 168.118   2
   4   4   2 2662.10 167.235   7
  -4  -4  -3 1688.94 156.739   2
   4   4   3 2024.69 146.495   1
   4   4   3 1836.09 155.360   7
  -4  -4  -3 1992.03 146.933   6
   4   4   4-113.487 81.2900   1
  -4  -4  -4 136.349 93.1939   6
   4   4   4 168.498 98.8441   7
  -4  -4  -4 5.24916 119.367   2
   4   4   5 407.697 99.2187   1
  -4  -4  -5 160.987 126.652   2
   4   4   5 425.586 116.896   7
  -4  -4  -5 536.861 108.243   6
  -4  -4  -6 228.129 108.210   6
   4   4   6 79.1789 95.0394   1
  -4  -4  -6 126.132 136.805   2
   4   4   6 162.704 101.142   7
  -4  -4  -7 53.7625 103.774   6
   4   4   7 199.136 105.045   1
  -4  -4  -7 327.504 151.202   2
   4   4   7 158.264 98.8021   7
  -4  -4  -8 96.9355 105.070   6
   4   4   8 37.9038 107.262   1
  -4  -4  -8 188.126 157.642   2
  -4  -4  -9 149.580 115.246   6
   4   4   9 79.7854 113.006   1
  -4  -4  -9 48.8171 156.961   2
   4   5 -12 519.376 143.362   6
  -4  -5  12 437.883 150.283   3
   4   5 -11 628.034 139.313   6
   4   5 -11 504.751 137.036   1
  -4  -5  11 717.990 160.985   3
   4   5 -10 202.698 120.977   1
  -4  -5  10 346.693 141.067   3
   4   5  -9 147.510 112.243   1
  -4  -5   9 12.6215 113.344   3
   4   5  -8 489.456 117.886   1
  -4  -5   8 136.762 109.352   3
   4   5  -7 216.052 111.356   1
  -4  -5   7 123.713 123.317   3
   4   5  -7-28.2552 110.725   7
   4   5  -6 10371.0 310.937   1
  -4  -5   6 11550.5 365.529   3
   4   5  -5 5883.94 227.375   1
   4   5  -5 5389.58 246.873   7
   4   5  -4 486.288 111.840   1
  -4  -5   4 580.780 151.489   3
   4   5  -3 231.169 95.5199   1
   4   5  -3 177.178 110.854   7
   4   5  -2 70.0174 81.2815   1
   4   5  -2 62.4597 101.037   7
  -4  -5   1 202.917 105.463   2
   4   5  -1 64.7763 79.0398   1
   4   5  -1 69.2024 96.8237   7
  -4  -5   0 106.367 108.300   2
   4   5   0 109.586 84.4061   1
   4   5   0 104.259 89.1048   7
  -4  -5  -1 1047.05 146.769   2
   4   5   1 1554.00 135.289   1
   4   5   1 1292.76 144.738   7
  -4  -5  -2 1028.70 153.876   2
   4   5   2 1473.13 130.221   1
   4   5   2 1353.29 151.898   7
   4   5   3 146.131 87.4962   1
  -4  -5  -3 153.871 105.860   6
  -4  -5  -3 180.335 135.176   2
   4   5   3 40.8001 89.8223   7
   4   5   4 231.371 101.150   1
  -4  -5  -4 89.5882 104.789   6
  -4  -5  -4 113.271 136.891   2
   4   5   4 115.495 99.3955   7
  -4  -5  -5 3.41747 100.782   6
   4   5   5 172.736 105.856   1
  -4  -5  -5 224.359 143.401   2
   4   5   5 99.6580 109.477   7
  -4  -5  -6 52.9838 109.024   6
   4   5   6 106.155 107.022   1
  -4  -5  -6 346.927 155.658   2
   4   5   6-60.8946 96.5245   7
   4   5   7 199.662 115.416   1
  -4  -5  -7 420.915 172.581   2
   4   6 -10 116.057 131.520   7
  -4  -6   9-134.306 138.201   3
   4   6  -9-52.9072 124.768   7
  -4  -6   8 391.767 138.079   3
   4   6  -8 292.872 129.515   7
  -4  -6   7 1377.12 183.850   3
   4   6  -7 504.237 145.289   7
  -4  -6   6 2719.53 218.875   3
   4   6  -6 1592.94 172.803   7
  -4  -6   5 373.682 150.335   3
   4   6  -5 28.1207 118.587   7
   4   6  -4 353.856 130.954   7
   4   6  -3 1578.32 161.475   7
   4   6  -2 182.644 116.749   7
   4   6  -1 10.8594 115.152   7
   4   6   0 163.693 131.858   7
   4   6   1 87.5008 105.728   7
  -4  -6  -2 71.7778 114.358   6
   4   6   2 40.4684 108.423   7
   4   6   3 768.098 145.866   7
  -4  -6  -3 859.393 143.804   6
  -4  -6  -4 1660.87 206.374   2
   5 -10  -5 1518.17 200.433   2
   5 -10  -4 365.605 150.610   2
   5 -10  -3 265.135 145.656   2
   5 -10  -2 151.494 140.323   2
   5 -10  -1 369.855 167.945   2
   5 -10   0 389.514 165.776   2
   5 -10   1 460.021 169.639   2
   5 -10   2 422.184 178.856   2
   5 -10   3 1263.78 212.702   2
   5 -10   4 468.178 192.306   2
   5  -9  -9 481.737 160.692   2
   5  -9  -8 1108.46 174.041   2
   5  -9  -7 1188.17 175.460   2
   5  -9  -6 1101.42 171.421   2
   5  -9  -5 141.603 133.271   2
   5  -9  -4 1373.27 168.333   2
   5  -9  -3 664.384 144.692   2
   5  -9  -2 224.553 145.121   2
   5  -9  -1 189.554 140.632   2
   5  -9   0 848.116 180.020   2
   5  -9   1 1070.74 173.685   2
   5  -9   2 252.811 152.727   2
   5  -9   3 1319.24 199.342   2
   5  -9   4 1810.93 222.155   2
   5  -9   5 1421.32 213.383   2
   5  -9   6 494.026 182.690   2
   5  -9   7 381.019 183.856   2
   5  -8 -11 591.961 166.735   2
   5  -8 -10 277.242 140.942   2
   5  -8  -9 711.060 152.187   2
  -5   8   9 785.777 160.830   4
  -5   8   8 572.996 147.040   4
   5  -8  -8 356.647 136.369   2
  -5   8   7 211.879 122.244   4
   5  -8  -7 221.779 122.529   2
   5  -8  -6 2069.30 189.603   2
   5  -8  -5 2292.06 188.422   2
   5  -8  -4 4215.40 234.290   2
   5  -8  -3 3387.21 222.213   2
   5  -8  -2 265.101 126.195   2
   5  -8  -1 227.031 136.543   2
   5  -8   0 245.317 129.456   2
   5  -8   1 1256.48 167.867   2
   5  -8   2 109.715 135.144   2
   5  -8   3 321.929 162.599   2
   5  -8   4 88.5385 140.159   2
   5  -8   5 882.139 172.015   2
   5  -8   6 123.775 139.477   2
   5  -8   7 965.331 187.775   2
   5  -8   8 138.195 157.292   2
   5  -8   9 725.599 141.597   5
   5  -8  10 366.648 131.473   5
   5  -7 -13 299.458 151.598   2
   5  -7 -12 472.722 149.484   2
   5  -7 -11 177.585 133.432   2
   5  -7 -10 1246.71 160.771   2
  -5   7   9 85.6831 125.107   4
   5  -7  -9 240.732 120.548   2
  -5   7   8-101.655 121.243   4
   5  -7  -8 221.679 120.656   2
  -5   7   7 673.390 136.154   4
   5  -7  -7 483.393 127.026   2
   5  -7  -6 3256.62 210.609   2
  -5   7   6 3511.30 196.326   4
   5  -7  -5 1081.57 142.937   2
   5  -7  -4 489.002 120.156   2
   5  -7  -4 333.712 89.2973   1
   5  -7  -3 87.6180 70.4267   1
   5  -7  -3 265.362 131.727   2
   5  -7  -2 2510.84 196.840   2
   5  -7  -2 2225.36 126.353   1
   5  -7  -1 892.581 86.9432   1
   5  -7  -1 816.455 134.017   2
   5  -7   0 210.970 116.869   2
   5  -7   0 118.338 59.7115   1
   5  -7   1 70.1667 117.564   2
   5  -7   1-29.3534 57.3336   1
   5  -7   2 965.151 84.1854   1
   5  -7   2 700.594 145.561   2
   5  -7   3 954.213 83.1915   1
   5  -7   3 1088.02 161.308   2
   5  -7   4 200.985 123.561   2
   5  -7   4 43.2345 57.3275   1
   5  -7   5 2637.84 128.414   1
   5  -7   5 2702.65 218.653   2
   5  -7   6 2559.99 131.937   1
   5  -7   7 2290.27 130.531   1
   5  -7   8 1326.14 115.479   1
   5  -7  11 197.403 123.568   5
   5  -6 -14 594.889 152.110   2
   5  -6 -13 306.469 134.028   2
   5  -6 -12 435.930 133.310   2
   5  -6 -11 378.314 128.727   2
   5  -6 -10 116.503 115.288   2
   5  -6  -9 1531.38 155.746   2
   5  -6  -8 1883.97 163.178   2
  -5   6   8 1740.61 173.581   4
   5  -6  -7 3932.72 209.075   2
  -5   6   7 3792.00 216.768   4
   5  -6  -6 810.762 122.929   2
  -5   6   6 682.390 122.475   4
   5  -6  -5 524.023 105.578   2
  -5   6   5 210.893 103.152   4
   5  -6  -4 5116.52 232.246   2
   5  -6  -4 4342.82 180.799   1
   5  -6  -3 6164.02 246.822   2
   5  -6  -3 6142.93 212.236   1
   5  -6  -2 6725.60 215.117   1
   5  -6  -2 7543.10 275.866   2
   5  -6  -1 6704.81 204.857   1
   5  -6  -1 6969.13 269.511   2
   5  -6   0 449.461 123.951   2
   5  -6   0 199.452 68.2467   1
   5  -6   1-24.6276 102.544   2
   5  -6   1 39.7463 59.5449   1
   5  -6   2 97.7099 107.086   2
   5  -6   2 180.695 61.0876   1
   5  -6   3 3504.18 142.218   1
   5  -6   3 3295.18 204.757   2
  -5   6  -4 52.1427 40.5154   6
   5  -6   4 26.5098 58.2071   1
  -5   6  -5 430.655 67.4161   6
   5  -6   5 670.155 84.4653   1
   5  -6   6 103.334 60.4723   1
  -5   6  -6 81.4636 69.6584   6
   5  -6   7 156.878 76.3816   1
  -5   6  -7 42.0936 69.7848   6
   5  -6   8 167.524 77.6186   1
  -5   6  -8 151.722 84.5204   6
   5  -6   9 316.514 89.7350   1
   5  -6  10 230.468 86.2198   1
   5  -6  11 582.935 109.415   1
   5  -6  12 145.443 97.8877   1
   5  -5 -14 687.192 144.004   2
   5  -5 -13 102.770 85.1225   6
   5  -5 -13 357.105 124.315   2
   5  -5 -12 160.412 80.9557   6
   5  -5 -12 121.267 107.639   2
   5  -5 -11 681.841 87.5816   6
   5  -5 -11 841.039 126.384   2
   5  -5 -10 139.023 66.5441   6
   5  -5 -10 257.723 112.173   2
   5  -5  -9 50.9273 58.2306   6
   5  -5  -9 156.454 104.241   2
   5  -5  -8 3498.34 117.913   6
   5  -5  -8 3996.77 197.473   2
   5  -5  -7 512.355 55.1032   6
  -5   5   7 414.808 121.517   4
  -5   5   7 437.976 56.7703   3
   5  -5  -6 142.894 32.2954   6
  -5   5   6 148.773 102.137   4
   5  -5  -6 127.965 84.8875   2
  -5   5   6 133.105 35.7686   3
   5  -5  -5 619.760 106.207   2
  -5   5   5 786.115 123.258   4
   5  -5  -4 7782.46 252.562   2
   5  -5  -4 7194.79 227.217   1
   5  -5  -3 130.694 68.1222   1
   5  -5  -3 294.508 94.0500   2
   5  -5  -2 99.1004 66.0512   1
   5  -5  -2 153.837 91.3721   2
   5  -5  -1 360.316 74.3791   1
   5  -5  -1 289.525 105.772   2
   5  -5   0 3673.00 154.171   1
   5  -5   0 4077.80 201.311   2
   5  -5   1 1301.86 99.7639   1
   5  -5   1 1184.06 134.621   2
   5  -5   2 24.4967 64.8629   1
  -5   5  -3-23.9633 26.1922   6
   5  -5   3-0.37830 62.2565   1
   5  -5   3-4.12783 25.0586   3
  -5   5  -4 440.872 52.1006   6
   5  -5   4 516.466 58.7242   3
  -5   5  -5 1094.14 76.7260   6
   5  -5   5 1110.87 100.690   1
  -5   5  -6 433.086 74.1737   6
   5  -5   6 404.335 78.1490   1
   5  -5   6 385.578 75.9937   3
  -5   5  -7 2204.27 120.629   6
   5  -5   7 2575.10 146.529   1
  -5   5  -8 1346.26 113.358   6
   5  -5   8 1640.05 129.651   1
  -5   5  -9 2084.62 140.028   6
   5  -5   9 2594.16 153.805   1
  -5   5 -10 2793.18 164.810   6
   5  -5  10 3487.03 183.779   1
  -5   5 -11 843.501 127.737   6
   5  -5  11 894.272 118.295   1
  -5   5 -12 510.121 130.626   6
   5  -5  12 287.521 104.704   1
   5  -4 -16 384.513 120.835   6
  -5   4  16 316.490 138.661   3
   5  -4 -15 470.549 113.483   6
  -5   4  15 475.936 131.253   3
   5  -4 -14 1562.01 135.101   6
   5  -4 -14 1319.37 148.334   2
   5  -4 -13 759.435 107.574   6
   5  -4 -13 686.716 128.197   2
  -5   4  13 554.771 119.011   3
   5  -4 -12 2326.32 135.823   6
   5  -4 -12 2673.00 175.409   2
  -5   4  12 2326.37 153.195   3
   5  -4 -11 80.6886 67.5554   6
   5  -4 -11 126.810 92.1486   2
  -5   4  11 60.4771 86.4433   3
   5  -4 -10 179.789 68.4398   6
   5  -4 -10 129.668 92.2667   2
  -5   4  10 86.1983 75.9612   3
   5  -4  -9 112.687 59.0788   6
   5  -4  -9 114.855 99.0905   2
  -5   4   9 28.3117 71.9505   3
  -5   4   8 182.578 51.9761   6
   5  -4  -8 175.657 61.3604   6
  -5   4   8 290.172 124.009   4
   5  -4  -8 95.9536 89.3704   2
  -5   4   8 143.677 64.0522   3
   5  -4  -7 1551.95 127.869   2
   5  -4  -7 1445.14 75.9517   6
  -5   4   7 1700.41 163.744   4
  -5   4   7 1210.38 77.3743   3
  -5   4   7 1225.76 69.6622   6
   5  -4  -6 6587.51 210.514   2
   5  -4  -6 4846.66 106.777   6
  -5   4   6 6215.54 247.665   4
  -5   4   6 4426.90 106.459   3
  -5   4   6 4634.44 97.6789   6
   5  -4  -5 14906.1 290.788   2
   5  -4  -5 10073.8 114.235   6
  -5   4   5 15766.3 362.647   4
  -5   4   5 9105.48 114.818   3
  -5   4   5 10269.2 107.365   6
   5  -4  -4 4054.27 167.596   2
   5  -4  -4 3317.82 162.726   1
   5  -4  -3 419.221 87.2738   1
   5  -4  -3 365.206 94.9869   2
   5  -4  -2 8861.85 245.433   2
   5  -4  -2 9100.60 256.242   1
   5  -4  -1 9322.57 250.641   1
   5  -4  -1 10130.4 269.792   2
   5  -4   0 5186.14 187.262   1
   5  -4   0 5366.46 202.195   2
   5  -4   1 6751.31 208.263   1
  -5   4  -2 464.523 31.9967   6
   5  -4   2 559.949 83.7624   1
  -5   4  -3 110.663 38.9262   6
   5  -4   3 157.342 72.1099   1
  -5   4  -4 23.0328 45.3361   6
   5  -4   4 186.012 68.9984   1
  -5   4  -5 3766.89 120.633   6
   5  -4   5 4335.64 175.023   1
  -5   4  -6 237.134 68.6200   6
   5  -4   6 278.867 78.9519   1
  -5   4  -7 1356.02 102.778   6
   5  -4   7 1412.06 113.102   1
   5  -4   8 169.859 73.5302   1
  -5   4  -8 54.5319 77.8796   6
   5  -4   9 9.64333 71.6573   1
  -5   4  -9-9.75818 81.2498   6
  -5   4 -10 340.407 99.0767   6
   5  -4  10 599.572 103.087   1
  -5   4 -11-48.9220 92.7551   6
   5  -4  11 90.3667 84.5214   1
  -5   4 -12 449.423 121.018   6
   5  -4  12 567.747 111.945   1
  -5   4 -13 462.089 132.940   6
   5  -4  13 346.156 114.203   1
   5  -3 -16 263.538 112.181   6
  -5   3  16 280.795 133.832   3
   5  -3 -15 185.967 94.6431   6
  -5   3  15 170.142 115.040   3
   5  -3 -14 119.748 86.4219   6
  -5   3  14 147.354 106.926   3
   5  -3 -13 275.407 88.1874   6
  -5   3  13 283.201 104.518   3
   5  -3 -12 2696.70 143.229   6
   5  -3 -12 2401.82 154.657   2
  -5   3  12 2632.66 160.768   3
   5  -3 -11 146.658 74.0758   6
   5  -3 -11 166.806 89.3775   2
  -5   3  11 131.856 86.5626   3
   5  -3 -10 13.1928 61.7588   6
   5  -3 -10 87.2187 85.2276   2
  -5   3  10 177.524 83.4507   3
   5  -3  -9 1514.35 99.1282   6
   5  -3  -9 1561.06 123.928   2
  -5   3   9 1485.21 111.271   3
  -5   3   8 93.2813 50.7049   6
  -5   3   8 73.1194 78.5488   2
   5  -3  -8 106.171 58.3022   6
  -5   3   8-114.885 109.692   4
   5  -3  -8-102.378 77.0560   2
  -5   3   8 58.4227 66.8911   3
  -5   3   7 213.432 48.7651   6
   5  -3  -7 175.438 53.3326   6
  -5   3   7 183.449 109.915   4
   5  -3  -7 169.655 70.3957   2
  -5   3   7 222.179 62.2675   3
  -5   3   6 7414.18 136.821   6
   5  -3  -6 8057.81 211.321   2
   5  -3  -6 7911.97 151.571   6
  -5   3   6 7735.33 158.566   3
  -5   3   5 2614.98 75.9866   6
   5  -3  -5 2742.80 124.690   2
  -5   3   5 2689.27 88.0428   3
   5  -3  -4 712.940 85.9035   2
  -5   3   4 548.117 37.0129   6
  -5   3   4 610.159 44.6537   3
   5  -3  -4 682.403 97.5283   1
  -5   3   3 152.359 22.7207   6
   5  -3  -3 146.356 78.4613   2
   5  -3  -2 8417.88 215.845   2
   5  -3  -2 8469.80 252.462   1
  -5   3   1 216.382 22.0043   6
   5  -3  -1 294.543 78.6559   2
  -5   3   1 205.045 20.8034   6
  -5   3   0 336.391 32.0572   6
   5  -3   0 321.726 32.0296   3
  -5   3   0 347.643 28.7771   6
  -5   3  -1 866.749 44.9032   6
   5  -3   1 835.834 52.3652   3
  -5   3  -2 4029.93 95.2469   6
   5  -3   2 4239.80 173.573   1
   5  -3   2 3864.57 109.603   3
  -5   3  -3 555.132 53.9066   6
   5  -3   3 665.952 87.1860   1
  -5   3  -4 879.212 72.6358   6
   5  -3   4 936.943 96.0780   1
  -5   3  -5 188.703 59.5716   6
   5  -3   5 115.548 71.1201   1
  -5   3  -6 233.554 68.8954   6
   5  -3   6 243.484 60.6371   7
   5  -3   6 162.666 78.0478   1
  -5   3  -7 1300.69 101.433   6
   5  -3   7 1246.83 113.076   1
   5  -3   7 1206.92 73.4331   7
  -5   3  -8 819.252 98.9671   6
   5  -3   8 933.313 108.589   1
  -5   3  -9 1032.52 112.782   6
   5  -3   9 1160.06 123.707   1
  -5   3 -10 454.984 98.3430   6
   5  -3  10 528.304 101.873   1
  -5   3 -11 1487.74 143.076   6
   5  -3  11 1149.19 131.580   1
  -5   3 -12 2785.39 185.940   6
   5  -3  12 3116.99 196.597   1
  -5   3 -13 1566.01 171.151   6
   5  -3  13 952.308 137.103   1
   5  -2 -16 279.393 118.387   6
  -5   2  16 56.2883 128.330   3
   5  -2 -15 442.917 111.071   6
  -5   2  15 292.389 126.970   3
   5  -2 -14 334.466 98.4629   6
  -5   2  14 474.449 122.083   3
   5  -2 -13 1331.10 124.551   6
  -5   2  13 1149.98 138.627   3
   5  -2 -12 4549.77 180.847   6
  -5   2  12 3651.09 188.125   3
   5  -2 -11 1170.20 108.351   6
  -5   2  11 979.085 115.695   3
   5  -2 -10 5179.47 179.755   6
  -5   2  10 4701.26 254.700   4
  -5   2  10 4768.63 185.890   3
  -5   2   9 146.186 67.8055   2
   5  -2  -9 151.490 69.3262   6
  -5   2   9 299.951 122.726   4
   5  -2  -9 82.5358 62.4726   2
  -5   2   9 233.141 81.5307   3
   5  -2  -8-21.6181 59.2046   6
  -5   2   8-101.782 105.854   4
   5  -2  -8 48.9843 51.7826   2
  -5   2   8 141.461 73.6401   3
  -5   2   7 266.860 59.8667   6
   5  -2  -7 290.705 66.6895   6
   5  -2  -7 339.866 55.2027   2
  -5   2   7 514.607 116.527   4
  -5   2   7 352.631 70.2849   3
  -5   2   6 569.493 65.4205   6
   5  -2  -6 652.121 61.5313   2
   5  -2  -6 733.154 76.4325   6
  -5   2   6 838.462 126.233   4
  -5   2   6 585.409 75.1662   3
  -5   2   5 766.585 62.6204   6
   5  -2  -5 923.283 67.3051   2
  -5   2   5 878.196 73.4462   3
   5  -2  -4 10023.4 184.667   2
  -5   2   4 10082.4 168.607   6
  -5   2   4 9228.39 172.333   3
   5  -2  -4 9217.42 284.062   1
  -5   2   3 35028.5 292.158   6
   5  -2  -3 35547.6 356.783   2
   5  -2  -3 34749.8 530.666   1
   5  -2  -2 13370.1 323.433   1
   5  -2  -2 13298.3 233.602   2
   5  -2  -1 505.217 92.0494   1
  -5   2   1 412.357 57.0206   6
   5  -2  -1 356.109 52.9594   3
   5  -2   0 11752.3 289.306   1
  -5   2   0 10787.5 177.640   6
   5  -2   0 10465.1 240.497   2
   5  -2   0 11259.6 186.449   3
  -5   2   0 11068.7 173.308   6
   5  -2   1 8259.61 242.493   1
   5  -2   1 7994.19 173.295   3
  -5   2  -1 7970.78 148.656   6
   5  -2   2 1583.31 89.5388   3
  -5   2  -2 1641.14 83.2885   6
   5  -2   3 3389.16 135.354   3
  -5   2  -3 3187.73 117.159   6
  -5   2  -4 485.548 72.3418   6
   5  -2   4 610.008 85.1702   1
  -5   2  -5 514.290 74.7815   6
   5  -2   5 808.696 96.1733   1
  -5   2  -6 47.3123 64.4398   6
   5  -2   6 128.532 67.0968   7
   5  -2   6 137.846 77.6102   1
  -5   2  -7 2126.68 124.800   6
   5  -2   7 2145.50 142.796   1
   5  -2   7 2090.75 104.883   7
  -5   2  -8 368.689 86.8209   6
   5  -2   8 728.346 102.998   1
  -5   2  -9 965.004 112.998   6
   5  -2   9 1338.97 131.683   1
  -5   2 -10 112.757 90.4445   6
   5  -2  10 117.583 86.5561   1
  -5   2 -11 143.808 100.903   6
   5  -2  11 249.035 95.7642   1
  -5   2 -12 528.329 122.495   6
   5  -2  12 525.424 115.245   1
  -5   2 -13 192.786 123.281   6
   5  -1 -16 296.062 111.817   6
  -5   1  16 315.788 134.556   3
   5  -1 -15 213.866 108.148   6
  -5   1  15 281.321 128.106   3
   5  -1 -14 691.368 115.749   6
  -5   1  14 530.297 125.415   3
   5  -1 -13 207.664 91.1555   6
  -5   1  13 249.403 104.898   3
   5  -1 -12 507.540 102.237   6
  -5   1  12 508.758 112.829   3
   5  -1 -11 170.268 85.3640   6
  -5   1  11-130.490 116.631   4
  -5   1  11 100.961 89.2090   3
   5  -1 -10 6268.44 212.489   6
  -5   1  10 5964.81 275.422   4
  -5   1  10 5636.08 212.236   3
   5  -1  -9 1479.32 111.746   6
  -5   1   9 1486.17 154.634   4
  -5   1   9 1426.94 119.068   3
   5  -1  -8 88.2710 67.7683   6
  -5   1   8 15.4405 91.6382   4
  -5   1   8 2.51476 69.5529   3
   5  -1  -7 2025.74 115.048   6
  -5   1   7 2223.56 167.580   4
  -5   1   7 2173.67 123.789   3
   5  -1  -6 663.010 78.8435   6
  -5   1   6 658.934 87.4246   3
   5  -1  -5 223.356 92.0841   1
  -5   1   5 104.971 56.4904   6
   5  -1  -5 90.7655 59.0138   3
  -5   1   5 202.583 65.0746   3
  -5   1   4 7944.53 176.442   6
   5  -1  -4 8308.41 194.354   3
  -5   1   4 7864.28 188.073   3
  -5   1   3 5243.10 146.660   6
   5  -1  -3 4187.03 97.3748   2
   5  -1  -3 5262.53 153.638   3
  -5   1   3 5464.23 165.065   3
   5  -1  -3 3799.02 93.2174   2
   5  -1  -3 4731.44 204.590   1
   5  -1  -2 630.503 100.209   1
   5  -1  -2 479.129 56.9319   2
   5  -1  -2 555.049 68.5090   3
  -5   1   1 13.7611 56.4660   6
   5  -1  -1-96.9382 77.2456   1
   5  -1  -1 53.2559 51.6960   2
   5  -1  -1 75.5033 53.4659   3
   5  -1   0 3406.30 163.738   1
  -5   1   0 3646.71 131.919   6
   5  -1   0 3435.94 133.561   3
   5  -1   1 682.465 93.4034   1
   5  -1   1 396.199 77.6990   2
   5  -1   1 459.725 71.6369   3
  -5   1  -1 465.943 70.0213   6
   5  -1   2 490.044 98.3229   1
  -5   1  -2 451.430 72.2444   6
   5  -1   3 1352.66 113.900   1
  -5   1  -3 1274.06 93.6220   6
   5  -1   4 2278.61 137.132   1
  -5   1  -4 1923.24 114.900   6
  -5   1  -5 164.788 70.3767   6
   5  -1   5 223.491 78.5643   1
   5  -1   5 106.964 70.6276   7
  -5   1  -6 2072.12 123.680   6
   5  -1   6 2315.02 147.715   1
   5  -1   6 2193.69 116.977   7
  -5   1  -7 601.893 92.4640   6
   5  -1   7 377.740 87.5638   1
   5  -1   7 580.773 87.7182   7
   5  -1   8 199.774 87.6135   1
  -5   1  -8 77.6988 79.7686   6
   5  -1   8 115.605 75.4317   7
  -5   1  -9 1494.75 129.636   6
   5  -1   9 1706.23 144.020   1
  -5   1 -10 591.669 110.916   6
   5  -1  10 814.047 118.447   1
  -5   1 -11 28.1815 99.1728   6
   5  -1  11 263.980 95.0920   1
  -5   1 -12 145.620 110.144   6
   5  -1  12 145.296 102.475   1
   5   0 -16 432.590 130.719   6
  -5   0  16 587.938 156.425   3
   5   0 -15 203.040 114.507   6
  -5   0  15 219.340 130.625   3
   5   0 -14 189.375 99.3579   6
  -5   0  14 19.0316 111.245   3
   5   0 -13 443.985 102.863   6
  -5   0  13 384.399 115.464   3
   5   0 -12 53.1915 87.0642   6
  -5   0  12 93.6461 116.411   4
  -5   0  12 34.5174 98.1693   3
   5   0 -11 1599.99 130.785   6
  -5   0  11 1689.74 174.699   4
  -5   0  11 1386.83 137.500   3
   5   0 -10 4195.32 180.601   6
  -5   0  10 4353.61 242.489   4
  -5   0  10 4125.15 194.557   3
   5   0  -9 1754.41 126.053   6
  -5   0   9 1597.54 159.680   4
  -5   0   9 1869.73 139.127   3
   5   0  -8 7372.29 222.280   6
  -5   0   8 7257.14 280.026   4
  -5   0   8 6526.32 217.274   3
   5   0  -7 455.632 87.6326   6
  -5   0   7 413.060 105.312   4
  -5   0   7 410.480 89.4515   3
   5   0  -6 225.610 95.4002   1
  -5   0   6 281.002 81.7111   3
  -5   0   5 1075.72 100.091   3
   5   0  -5 785.562 120.590   1
   5   0  -4 218.780 95.6255   1
  -5   0   4 397.047 81.5068   3
   5   0  -3 297.975 115.272   1
  -5   0   3 194.929 99.2993   3
   5   0  -2 7500.16 272.475   1
   5   0  -2 5494.04 116.062   2
   5   0  -1 37182.0 537.647   1
   5   0  -1 34773.3 352.198   2
   5   0   0 24491.4 427.463   1
   5   0   0 22746.7 318.276   2
   5   0   1 495.188 85.1294   2
   5   0   1 679.466 101.795   1
  -5   0  -1 441.907 80.1455   6
   5   0   2 10645.6 289.782   1
  -5   0  -2 9528.86 236.969   6
   5   0   3 4189.96 187.807   1
  -5   0  -3 4248.80 164.454   6
  -5   0  -4 192.178 76.9402   6
   5   0   4 201.544 88.3294   1
   5   0   4 120.961 74.8075   7
   5   0   5 1112.26 120.900   1
   5   0   5 1109.70 106.977   7
  -5   0  -5 1134.19 101.341   6
   5   0   6 645.263 109.958   1
   5   0   6 328.494 76.7564   7
  -5   0  -6 570.909 95.6791   6
   5   0   7 1139.53 128.596   1
   5   0   7 1153.96 117.967   7
  -5   0  -7 911.395 106.745   6
   5   0   8 486.403 109.039   1
  -5   0  -8 462.871 99.3303   6
   5   0   8 343.777 89.0060   7
  -5   0  -9 507.768 109.500   6
   5   0   9 460.633 113.102   1
  -5   0 -10 438.144 111.788   6
   5   0  10 559.228 120.801   1
  -5   0 -11 496.183 120.722   6
   5   0  11 840.973 144.367   1
  -5   0 -12 228.217 120.238   6
   5   1 -16 692.962 149.451   6
  -5  -1  16 719.934 169.149   3
   5   1 -15 622.418 140.039   6
  -5  -1  15 735.908 170.077   4
  -5  -1  15 848.711 161.870   3
   5   1 -14 157.506 109.418   6
  -5  -1  14 142.264 134.336   4
  -5  -1  14 190.595 126.122   3
   5   1 -13 191.534 99.6941   6
  -5  -1  13 299.129 130.127   4
  -5  -1  13 37.6527 108.285   3
   5   1 -12 463.969 102.907   6
  -5  -1  12 522.656 138.946   4
  -5  -1  12 723.800 127.341   3
   5   1 -11 2268.01 156.586   6
  -5  -1  11 1690.81 179.057   4
  -5  -1  11 2067.86 166.717   3
   5   1 -10 910.481 118.555   6
  -5  -1  10 873.836 137.873   4
  -5  -1  10 838.131 124.316   3
   5   1  -9-20.6333 88.3401   6
  -5  -1   9 191.482 104.501   4
  -5  -1   9-15.8603 93.4538   3
   5   1  -8 6853.92 236.028   6
  -5  -1   8 7516.95 256.982   3
   5   1  -7 3906.31 179.002   6
  -5  -1   7 4172.04 195.740   3
   5   1  -6 242.729 106.183   1
  -5  -1   6 170.210 87.1574   3
  -5  -1   5 1756.34 131.953   3
   5   1  -5 1587.55 154.419   1
   5   1  -4 187.716 98.0857   1
  -5  -1   4 336.564 89.8099   3
   5   1  -3 22.9490 93.7952   1
  -5  -1   3 158.110 97.3037   3
   5   1  -2 1757.12 80.2938   2
   5   1  -2 2640.88 171.675   1
   5   1  -1 2505.70 114.585   2
   5   1  -1 3181.67 176.094   1
   5   1   0 169.057 76.7120   2
   5   1   0 134.525 85.8614   1
   5   1   1 187.030 98.1292   1
   5   1   2 579.232 102.382   1
   5   1   2 377.145 89.0100   7
  -5  -1  -2 552.009 92.6126   6
  -5  -1  -3 140.783 79.8750   6
   5   1   3 176.024 86.7246   1
   5   1   3 77.7354 80.7316   7
  -5  -1  -4 226.904 84.0357   6
   5   1   4 199.484 92.9084   1
   5   1   4 126.466 80.8549   7
   5   1   5 1514.00 137.938   1
   5   1   5 1346.42 114.870   7
  -5  -1  -5 1542.15 125.458   6
   5   1   6 757.229 117.668   1
   5   1   6 1015.79 113.930   7
  -5  -1  -6 947.898 109.656   6
   5   1   7-5.45440 88.9962   1
  -5  -1  -7-139.472 90.7487   6
   5   1   7 71.4690 75.5712   7
   5   1   8 1593.77 153.737   1
   5   1   8 1737.51 140.510   7
  -5  -1  -8 1573.45 142.278   6
  -5  -1  -9 795.802 123.047   6
   5   1   9 771.041 133.660   1
  -5  -1 -10 278.466 110.143   6
   5   1  10 205.089 116.707   1
  -5  -1 -11 1155.14 151.710   6
   5   2 -15 231.368 127.457   6
  -5  -2  15 336.176 163.285   4
  -5  -2  15 183.056 143.540   3
   5   2 -14 498.671 129.705   6
  -5  -2  14 382.246 153.035   4
  -5  -2  14 604.988 151.987   3
   5   2 -13 244.826 111.461   6
  -5  -2  13 470.700 143.476   4
  -5  -2  13 432.316 135.655   3
   5   2 -12 120.798 100.969   6
  -5  -2  12 272.974 123.489   4
  -5  -2  12 24.9209 110.672   3
   5   2 -11 283.714 111.409   6
  -5  -2  11 236.040 116.515   4
  -5  -2  11 140.684 109.054   3
   5   2 -10 204.927 103.871   6
  -5  -2  10 88.8213 105.830   4
  -5  -2  10 132.272 108.618   3
   5   2  -9 933.019 124.813   6
  -5  -2   9 652.648 121.763   3
   5   2  -8 1624.50 140.059   6
  -5  -2   8 1881.00 159.258   3
  -5  -2   7 1606.79 142.940   3
   5   2  -7 1448.63 169.301   1
  -5  -2   6 7585.10 258.669   3
   5   2  -6 6215.02 276.698   1
   5   2  -5 350.287 111.687   1
  -5  -2   5 447.533 105.396   3
   5   2  -4 121.632 99.6831   1
  -5  -2   4 129.847 91.1615   3
   5   2  -3 505.301 108.975   1
  -5  -2   3 290.326 92.6830   3
   5   2  -2 85.7509 89.4628   1
   5   2  -1 1.95092 86.7080   1
   5   2   0 3645.76 191.127   1
  -5  -2   0 2660.84 149.918   2
   5   2   1 19841.2 400.445   7
  -5  -2  -1 20336.0 365.128   2
  -5  -2  -2 23166.1 419.739   2
   5   2   2 22374.4 427.848   7
  -5  -2  -3 1164.35 151.121   2
   5   2   3 1576.81 138.170   1
   5   2   3 1307.36 131.275   7
  -5  -2  -3 1620.40 132.491   6
  -5  -2  -4 4471.77 234.200   2
   5   2   4 5607.97 234.732   1
   5   2   4 4720.48 198.954   7
  -5  -2  -4 5291.74 206.734   6
  -5  -2  -5 1324.61 170.352   2
   5   2   5 1581.99 148.219   1
   5   2   5 1154.74 127.939   7
  -5  -2  -5 1202.09 125.144   6
   5   2   6 56.3376 92.1750   1
  -5  -2  -6 239.723 101.651   6
  -5  -2  -6 248.204 147.720   2
   5   2   6 28.7724 85.0109   7
   5   2   7 316.795 106.554   1
  -5  -2  -7 394.682 101.219   6
  -5  -2  -7 11.0936 146.281   2
   5   2   7 330.417 103.874   7
  -5  -2  -8 325.555 110.027   6
   5   2   8 601.202 123.275   1
  -5  -2  -8 337.503 163.185   2
   5   2   8 256.616 98.8116   7
   5   2   9 880.613 140.877   1
  -5  -2  -9 793.124 194.425   2
  -5  -2  -9 1021.71 140.836   6
   5   3 -14 724.548 154.335   6
  -5  -3  14 579.182 163.284   4
  -5  -3  14 690.249 161.631   3
   5   3 -13 1366.45 181.380   6
  -5  -3  13 1098.00 176.701   4
   5   3 -12 170.334 120.751   6
  -5  -3  12 98.3077 124.222   4
  -5  -3  12 10.5048 126.200   3
   5   3 -11 143.141 111.345   6
  -5  -3  11 228.538 127.287   3
   5   3 -10 135.412 108.479   1
   5   3 -10 396.470 113.107   6
  -5  -3  10 159.461 118.221   3
  -5  -3   9 4041.56 230.682   3
   5   3  -9 3231.42 222.399   1
   5   3  -8 230.860 113.814   1
  -5  -3   8 253.940 107.496   3
   5   3  -7 145.757 108.591   1
  -5  -3   7 461.069 120.373   3
   5   3  -6 5021.32 249.449   1
  -5  -3   6 5105.33 236.543   3
   5   3  -5 4828.41 236.790   1
  -5  -3   5 5150.02 242.478   3
   5   3  -4 517.821 125.132   1
  -5  -3   4 406.804 129.380   3
   5   3  -3 1311.99 136.454   1
   5   3  -2 372.118 103.434   1
   5   3  -1 112.609 92.9324   1
   5   3  -1 60.6405 90.2585   7
   5   3   0 652.052 110.611   1
  -5  -3   0 528.564 107.974   2
   5   3   0 355.552 109.009   7
   5   3   1 603.000 104.874   1
  -5  -3  -1 294.717 115.184   2
   5   3   1 250.104 94.9433   7
  -5  -3  -2 65.3054 90.2772   6
  -5  -3  -2 110.978 118.225   2
   5   3   2-11.6209 85.8935   1
   5   3   2 138.563 97.3875   7
  -5  -3  -3 31.7289 97.3178   6
  -5  -3  -3 258.910 129.402   2
   5   3   3 174.655 90.5678   1
   5   3   3 89.1350 88.5360   7
  -5  -3  -4 61.1423 97.4593   6
  -5  -3  -4 52.6663 128.819   2
   5   3   4 101.601 91.1704   7
   5   3   4 33.9071 88.5011   1
   5   3   5 85.3335 89.1016   1
  -5  -3  -5-65.5169 134.452   2
  -5  -3  -5 117.203 101.854   6
   5   3   5 62.3464 98.2890   7
   5   3   6 74.8464 98.0062   1
  -5  -3  -6 176.459 111.719   6
  -5  -3  -6 274.203 148.285   2
   5   3   6 212.109 105.208   7
  -5  -3  -7 1087.30 195.033   2
   5   3   7 1241.63 154.973   1
   5   3   7 918.278 136.459   7
  -5  -3  -7 1404.02 152.616   6
  -5  -3  -8 237.862 116.734   6
   5   3   8 375.715 125.912   1
  -5  -3  -8 505.744 189.792   2
   5   3   8 285.158 111.746   7
   5   4 -12 216.834 134.730   1
   5   4 -12 307.403 137.333   6
  -5  -4  12 526.349 159.225   3
   5   4 -11 196.640 134.482   1
  -5  -4  11 485.339 152.572   3
  -5  -4  10 850.214 155.416   3
   5   4 -10 449.838 149.190   1
   5   4  -9 186.987 122.481   1
  -5  -4   9 89.5112 118.666   3
   5   4  -8 163.723 117.754   1
  -5  -4   8 279.827 123.565   3
   5   4  -7 513.883 128.792   1
  -5  -4   7 434.015 125.778   3
   5   4  -6 233.423 111.212   1
  -5  -4   6 86.7150 123.256   3
   5   4  -5 2268.40 183.323   1
  -5  -4   5 2199.47 205.036   3
   5   4  -4 6226.39 260.037   1
  -5  -4   4 6552.41 278.493   3
   5   4  -3 994.277 141.610   1
   5   4  -3 598.039 134.006   7
   5   4  -2 70.3088 110.306   1
   5   4  -2-1.95234 92.8097   7
   5   4  -1 126.909 94.8213   1
   5   4  -1-36.7050 92.7568   7
   5   4   0 127.641 88.7218   1
   5   4   0 143.968 101.971   7
   5   4   1 103.503 88.6961   1
   5   4   1-2.72028 85.5629   7
   5   4   2 1249.24 139.405   1
   5   4   2 1048.35 135.467   7
  -5  -4  -2 1264.85 143.348   6
   5   4   3 10386.7 322.970   1
  -5  -4  -3 10343.9 325.813   6
   5   4   4 17473.6 411.855   1
  -5  -4  -4 17691.9 419.331   6
   5   4   5 2269.01 174.702   1
   5   4   5 1882.19 178.612   7
  -5  -4  -5 2131.85 181.383   6
  -5  -4  -6 1350.55 210.005   2
   5   4   6 1793.33 173.332   1
   5   4   6 1115.51 156.260   7
  -5  -4  -6 1601.44 172.400   6
   5   5  -9 161.772 131.361   1
  -5  -5   9 293.588 143.268   3
   5   5  -8 237.256 127.600   1
  -5  -5   8 221.111 141.033   3
   5   5  -8-82.7834 128.167   7
   5   5  -7 2279.71 191.463   1
   5   5  -7 1739.18 187.277   7
   5   5  -6 3.66551 106.383   1
  -5  -5   6 191.865 139.662   3
   5   5  -6-18.9479 121.491   7
   5   5  -5 648.207 136.736   1
  -5  -5   5 385.675 155.713   3
   5   5  -4 3480.66 207.205   1
   5   5  -4 2380.47 197.204   7
   5   5  -3 3937.75 214.705   1
   5   5  -3 2750.82 212.904   7
   5   5  -2 481.495 120.820   1
   5   5  -2 230.383 119.122   7
   5   5  -1 617.483 116.730   1
   5   5  -1 321.323 113.785   7
   5   5   0 196.626 103.624   1
   5   5   0 104.551 103.519   7
   5   5   1 82.7609 110.335   7
   5   5   1 182.452 105.024   1
   5   5   2 322.196 112.677   1
  -5  -5  -2 174.840 119.091   6
   5   5   2 210.291 126.285   7
   6 -10  -3 1347.71 195.371   2
   6 -10  -2 797.523 185.950   2
   6 -10  -1 385.995 180.337   2
   6 -10   0 830.125 191.948   2
   6 -10   1 433.406 191.636   2
   6  -9  -8 248.403 154.178   2
   6  -9  -7 806.611 174.492   2
   6  -9  -6 617.142 165.992   2
   6  -9  -5 880.282 159.809   2
   6  -9  -4 282.396 134.735   2
   6  -9  -3 827.028 163.485   2
   6  -9  -2 977.600 176.530   2
   6  -9  -1 1678.67 202.598   2
   6  -9   0 640.411 175.326   2
   6  -9   1 357.509 159.638   2
   6  -9   2 519.899 177.183   2
   6  -9   3 360.539 165.633   2
   6  -9   4 494.920 191.933   2
   6  -9   5 338.985 187.517   2
   6  -8 -10 874.532 169.738   2
  -6   8  10 1099.96 195.087   4
   6  -8  -9 13082.4 409.703   2
  -6   8   9 11139.5 387.429   4
   6  -8  -8 10873.8 376.273   2
  -6   8   8 8748.29 337.227   4
   6  -8  -7 7179.48 312.703   2
   6  -8  -6 1093.78 159.851   2
   6  -8  -6 523.520 118.450   1
   6  -8  -5 266.273 102.188   1
   6  -8  -5 386.114 125.802   2
   6  -8  -4 1049.67 153.766   2
   6  -8  -3 234.454 137.845   2
   6  -8  -2 339.793 149.295   2
   6  -8  -1 3190.75 240.488   2
   6  -8   0 3696.96 249.841   2
   6  -8   1 410.797 152.957   2
   6  -8   2 1257.03 194.624   2
   6  -8   3 495.976 164.796   2
   6  -8   4 495.294 160.630   2
   6  -8   5 582.509 178.065   2
   6  -8   6 647.878 183.652   2
   6  -8   7 366.408 175.983   2
   6  -8   8 752.489 206.632   2
  -6   7  12 183.047 178.968   4
   6  -7 -12 238.465 151.357   2
  -6   7  11 343.560 172.752   4
   6  -7 -11 263.526 139.177   2
  -6   7  10 346.707 157.798   4
   6  -7 -10 287.172 131.798   2
   6  -7  -9 890.973 147.820   2
  -6   7   9 710.110 157.321   4
  -6   7   8 458.078 153.020   4
   6  -7  -8 467.198 126.838   2
   6  -7  -7 496.187 126.888   2
   6  -7  -6 606.806 129.249   2
   6  -7  -6 351.406 100.137   1
   6  -7  -5 2509.00 180.585   2
   6  -7  -5 2293.73 162.617   1
   6  -7  -4 2479.94 192.119   2
   6  -7  -4 2301.53 154.256   1
   6  -7  -3 2420.12 187.651   2
   6  -7  -3 2320.53 151.665   1
   6  -7  -2 346.116 86.9936   1
   6  -7  -2 358.559 122.108   2
   6  -7  -1 376.646 84.3971   1
   6  -7  -1 506.336 137.150   2
   6  -7   0 2452.72 143.453   1
   6  -7   0 2404.95 197.427   2
   6  -7   1 3837.44 171.677   1
   6  -7   1 3966.51 252.458   2
   6  -7   2 478.592 79.3032   1
   6  -7   2 768.023 157.686   2
   6  -7   3 245.392 72.4201   1
   6  -7   3 341.135 143.256   2
   6  -7   4 226.458 153.702   2
   6  -7   4 214.239 73.4544   1
   6  -7   5 522.166 151.070   2
   6  -7   5 286.526 79.9647   1
   6  -7   6 408.445 86.9963   1
   6  -7   7 204.518 85.9576   1
   6  -7   8 2030.46 145.352   1
  -6   6  13 447.710 188.900   4
  -6   6  12 693.954 184.853   4
   6  -6 -11 983.245 149.453   2
  -6   6  11 881.330 183.277   4
   6  -6 -10 1694.84 171.005   2
  -6   6  10 1418.54 193.844   4
  -6   6   9 362.767 139.559   4
   6  -6  -9 354.638 117.065   2
  -6   6   8 443.402 142.228   4
   6  -6  -8 391.862 116.757   2
   6  -6  -7 22796.0 452.564   2
  -6   6   7 22171.4 492.217   4
   6  -6  -6 23206.3 448.743   2
   6  -6  -5 17016.2 385.504   2
   6  -6  -5 16828.4 399.071   1
   6  -6  -4 2358.70 174.531   2
   6  -6  -4 2069.11 154.314   1
   6  -6  -3 263.256 88.9357   1
   6  -6  -3 294.283 112.047   2
   6  -6  -2 3767.81 179.288   1
   6  -6  -2 3631.22 205.517   2
   6  -6  -1 112.682 110.600   2
   6  -6  -1 189.047 77.9633   1
   6  -6   0 302.551 80.5657   1
   6  -6   0 541.447 130.766   2
   6  -6   1 3950.08 172.076   1
   6  -6   1 4010.08 224.560   2
   6  -6   2 5168.05 194.142   1
   6  -6   2 4914.75 248.362   2
   6  -6   3 866.350 93.3805   1
   6  -6   3 674.052 139.728   2
   6  -6   4 837.822 95.2078   1
   6  -6   5 351.398 80.9202   1
   6  -6   6 176.281 76.0509   1
   6  -6   7 283.201 81.9790   1
   6  -6   8 583.350 105.131   1
   6  -6   9 164.966 92.8024   1
   6  -6  10 363.510 105.500   1
  -6   5  12 2423.71 246.247   4
  -6   5  11 860.993 173.369   4
  -6   5  10 167.961 146.150   4
   6  -5 -10 312.715 112.209   2
  -6   5   9 79.5673 128.887   4
   6  -5  -9 176.606 102.605   2
  -6   5   8 75.5320 120.944   4
   6  -5  -8 199.767 90.8269   2
   6  -5  -7 953.732 118.969   2
  -6   5   7 968.690 150.364   4
   6  -5  -6 510.243 104.716   2
   6  -5  -5 573.396 107.532   2
   6  -5  -5 440.049 100.688   1
   6  -5  -4 3391.47 179.593   2
   6  -5  -4 3245.44 186.489   1
   6  -5  -3 3985.94 201.796   2
   6  -5  -3 3072.83 184.234   1
   6  -5  -2 7202.91 252.191   1
   6  -5  -2 7221.87 263.652   2
   6  -5  -1 3944.32 186.836   1
   6  -5  -1 4878.13 230.903   2
   6  -5   0 569.917 91.3377   1
   6  -5   0 782.428 123.406   2
   6  -5   1 252.466 111.168   2
   6  -5   1 137.437 76.5703   1
   6  -5   2 3709.11 178.460   1
   6  -5   3 5408.12 200.905   1
   6  -5   4 887.537 100.318   1
   6  -5   5 721.176 98.2369   1
   6  -5   6 113.469 77.1996   1
   6  -5   7 825.509 104.884   1
   6  -5   8 794.486 108.186   1
   6  -5   9 442.534 102.030   1
   6  -5  10 860.220 126.909   1
   6  -5  11 1447.17 151.882   1
  -6   4  13 275.024 161.498   4
  -6   4  12 654.879 172.202   4
  -6   4  11 377.563 156.914   4
  -6   4  10 1639.93 194.520   4
   6  -4  -9 1925.24 139.180   2
  -6   4   9 1913.60 193.443   4
  -6   4   9 1463.46 106.824   3
   6  -4  -8 1229.91 120.535   2
  -6   4   8 1073.01 86.8136   3
   6  -4  -7 717.607 96.1854   2
  -6   4   7 845.126 144.314   4
  -6   4   7 474.798 57.7207   3
   6  -4  -6 208.130 88.8056   2
  -6   4   6 45.8886 27.9231   3
   6  -4  -5 22990.7 366.851   2
   6  -4  -5 23079.5 473.307   1
   6  -4  -4 34614.7 463.467   2
   6  -4  -4 34303.5 572.589   1
   6  -4  -3 28204.0 499.381   1
   6  -4  -3 28779.1 434.141   2
   6  -4  -2 2496.91 165.136   1
   6  -4  -2 2373.57 154.265   2
   6  -4  -1 118.696 100.152   2
   6  -4  -1 58.0224 86.0126   1
   6  -4   0 6667.54 232.692   1
   6  -4   0 6779.04 240.820   2
   6  -4   1 288.551 86.0155   1
  -6   4  -2 229.898 32.0804   6
   6  -4   2 491.285 102.404   1
  -6   4  -3 3052.41 88.9197   6
   6  -4   3 3676.15 173.956   1
  -6   4  -4 4114.51 119.838   6
   6  -4   4 4787.00 196.751   1
  -6   4  -5 2011.76 102.345   6
   6  -4   5 2325.76 150.149   1
  -6   4  -6 161.135 73.5170   6
   6  -4   6 234.194 81.3745   1
   6  -4   7 714.759 103.773   1
   6  -4   8 209.210 84.5743   1
   6  -4   9 153.276 90.5156   1
   6  -4  10 408.393 107.379   1
   6  -4  11 139.275 98.5501   1
  -6   3  14 582.713 187.981   4
  -6   3  14 334.094 124.278   3
  -6   3  13 145.528 156.812   4
  -6   3  13 165.889 104.712   3
   6  -3 -12 619.520 103.032   6
  -6   3  12 921.393 183.822   4
  -6   3  12 767.566 121.765   3
   6  -3 -11 2637.95 141.472   6
  -6   3  11 2772.31 235.296   4
  -6   3  11 2298.67 148.769   3
   6  -3 -10 4585.30 167.990   6
  -6   3  10 5011.13 282.724   4
   6  -3  -9 398.658 76.9083   6
  -6   3   9 570.224 143.442   4
  -6   3   9 489.911 84.6740   3
   6  -3  -8-3.25374 59.0265   6
  -6   3   8 206.646 124.700   4
  -6   3   8 52.6038 66.4562   3
   6  -3  -7 197.217 68.7022   2
  -6   3   7 203.732 68.0444   3
   6  -3  -6 491.113 76.8915   2
  -6   3   6 384.280 60.8416   3
   6  -3  -6 441.346 96.2768   1
   6  -3  -5 219.920 93.9969   1
   6  -3  -5-10.1252 66.7003   2
  -6   3   4 661.724 48.3000   6
   6  -3  -4 762.606 117.922   1
   6  -3  -4 933.804 97.4104   2
  -6   3   3 217.422 48.4173   6
   6  -3  -3 258.897 87.6841   2
   6  -3  -2 6451.52 249.103   1
   6  -3  -2 6235.66 200.540   2
  -6   3   2 6611.47 106.615   6
   6  -3  -1 2643.49 175.889   1
  -6   3   1 2268.29 75.3075   6
   6  -3  -1 2416.67 147.465   2
   6  -3   0 11497.7 307.737   1
  -6   3   0 11809.2 148.152   6
   6  -3   1 4656.61 204.498   1
  -6   3  -1 4330.90 102.519   6
  -6   3  -2 763.487 62.2274   6
   6  -3   2 1042.89 121.977   1
  -6   3  -3-24.8135 51.3317   6
   6  -3   3 21.0779 69.7277   1
  -6   3  -4 2186.49 103.133   6
   6  -3   4 2816.42 160.163   1
  -6   3  -5 3934.27 139.317   6
   6  -3   5 4161.50 192.974   1
  -6   3  -6 918.557 93.1977   6
   6  -3   6 1210.34 122.702   1
  -6   3  -7 600.922 91.5941   6
   6  -3   7 842.954 110.910   1
   6  -3   8 191.514 86.5775   1
  -6   3  -8 302.174 90.2667   6
  -6   3  -9 554.381 107.535   6
   6  -3   9 811.689 121.021   1
  -6   3 -10 783.132 125.045   6
   6  -3  10 834.806 127.991   1
   6  -3  11 389.985 113.789   1
   6  -2 -15 340.063 122.386   6
  -6   2  15 454.182 166.430   4
  -6   2  15 499.974 148.001   3
   6  -2 -14 244.622 104.965   6
  -6   2  14 206.382 151.356   4
  -6   2  14 412.691 129.545   3
   6  -2 -13 374.482 106.565   6
  -6   2  13 282.864 149.840   4
  -6   2  13 364.801 118.706   3
   6  -2 -12 455.449 101.792   6
  -6   2  12 472.367 159.783   4
  -6   2  12 359.742 116.468   3
   6  -2 -11 178.456 84.1852   6
  -6   2  11 41.2451 87.8618   3
   6  -2 -10 718.600 94.5206   6
  -6   2  10 726.355 152.888   4
  -6   2  10 707.732 108.228   3
   6  -2  -9 393.015 82.7610   6
  -6   2   9 322.232 134.598   4
  -6   2   9 341.855 88.6373   3
   6  -2  -8 2259.99 128.851   6
  -6   2   8 2195.78 193.111   4
  -6   2   8 2282.11 136.375   3
  -6   2   7 2605.47 135.869   3
  -6   2   6 1094.84 96.9307   3
   6  -2  -6 961.005 128.980   1
  -6   2   5 954.870 93.6284   3
   6  -2  -5 1070.99 133.820   1
  -6   2   4 972.932 91.5992   6
   6  -2  -4 1142.47 140.966   1
   6  -2  -3 16165.3 409.894   1
  -6   2   3 16850.9 250.430   6
   6  -2  -2 29856.5 519.959   1
  -6   2   2 31138.3 323.460   6
   6  -2  -1 29590.8 508.077   1
  -6   2   1 30373.2 331.625   6
   6  -2   0 719.310 112.319   1
  -6   2   0 503.845 72.7091   6
   6  -2   1 640.006 103.001   1
  -6   2  -1 427.409 64.5180   6
   6  -2   2 7880.12 271.087   1
  -6   2  -2 6635.54 165.135   6
  -6   2  -3 90.4868 60.9410   6
   6  -2   3 148.893 83.7506   1
  -6   2  -4 357.449 76.8462   6
   6  -2   4 252.368 83.8959   1
  -6   2  -5 2710.34 131.376   6
   6  -2   5 2951.71 172.740   1
   6  -2   5 2519.67 137.340   7
  -6   2  -6 2196.79 126.538   6
   6  -2   6 2244.04 129.421   7
  -6   2  -7 2534.08 142.464   6
   6  -2   7 2670.69 169.847   1
   6  -2   8 42.1085 77.4303   1
  -6   2  -8 122.324 89.1124   6
  -6   2  -9 676.893 114.506   6
   6  -2   9 918.136 128.224   1
  -6   2 -10 80.7061 109.322   6
   6  -2  10 261.575 107.942   1
   6  -1 -15 278.939 121.992   6
  -6   1  15 303.108 164.613   4
  -6   1  15 131.742 133.150   3
   6  -1 -14 435.750 118.639   6
  -6   1  14 574.637 162.687   4
  -6   1  14 563.850 139.916   3
  -6   1  13 2353.58 226.205   4
  -6   1  13 2168.71 174.519   3
   6  -1 -12 359.216 99.2948   6
  -6   1  12 494.872 151.590   4
  -6   1  12 431.683 114.142   3
   6  -1 -11 195.099 93.8877   6
  -6   1  11 221.148 125.820   4
  -6   1  11 167.304 101.757   3
   6  -1 -10 121.050 81.9395   6
  -6   1  10 164.292 96.3309   3
   6  -1  -9 2625.59 152.978   6
  -6   1   9 3097.13 215.069   4
  -6   1   9 2688.40 162.317   3
   6  -1  -8 4508.43 178.068   6
  -6   1   8 4300.87 190.134   3
   6  -1  -7 210.266 99.2159   1
  -6   1   7 168.296 82.7648   3
   6  -1  -6 80.9632 101.380   1
  -6   1   6 33.4229 75.3111   3
  -6   1   5 1150.94 107.169   3
   6  -1  -5 941.560 144.257   1
   6  -1  -4 621.947 125.260   1
   6  -1  -3 382.994 111.609   1
   6  -1  -2 1858.44 153.665   1
   6  -1  -1-95.6775 84.0343   1
   6  -1   0 5522.55 230.105   1
  -6   1   0 5748.76 182.066   6
   6  -1   1 1367.35 132.980   1
  -6   1  -1 1220.61 102.034   6
   6  -1   2 12722.2 339.213   1
  -6   1  -2 12311.0 252.726   6
   6  -1   3 2850.73 173.018   1
  -6   1  -3 2482.16 126.271   6
   6  -1   4 1028.11 117.075   1
   6  -1   4 654.284 95.7278   7
  -6   1  -4 856.740 96.3545   6
  -6   1  -5 56.7702 76.6181   6
   6  -1   5 187.963 87.6752   1
   6  -1   5 212.064 83.1329   7
  -6   1  -6 868.879 108.021   6
   6  -1   6 939.331 118.225   1
   6  -1   6 768.466 98.3611   7
  -6   1  -7 2150.02 142.502   6
   6  -1   7 2055.92 157.416   1
   6  -1   7 1822.14 129.557   7
  -6   1  -8 707.220 112.731   6
   6  -1   8 775.799 115.983   1
   6  -1   9 272.371 107.036   1
  -6   1  -9 227.069 104.664   6
  -6   1 -10 524.128 123.938   6
   6   0 -15 258.315 123.786   6
  -6   0  15 182.556 139.471   3
   6   0 -14 222.918 118.318   6
  -6   0  14 411.724 161.034   4
  -6   0  14 295.437 130.055   3
   6   0 -13 755.942 128.595   6
  -6   0  13 741.345 160.974   4
  -6   0  13 936.594 152.125   3
   6   0 -12 427.677 112.660   6
  -6   0  12 734.156 154.203   4
  -6   0  12 549.784 127.877   3
   6   0 -11 331.655 107.675   6
  -6   0  11 174.756 124.753   4
  -6   0  11 202.205 108.127   3
   6   0 -10 1351.18 134.628   6
  -6   0  10 1572.30 175.913   4
  -6   0  10 1545.64 151.214   3
   6   0  -9 579.948 103.296   6
  -6   0   9 559.724 111.420   3
   6   0  -8 536.448 126.140   1
  -6   0   8 474.394 106.527   3
   6   0  -7 76.1920 108.039   1
  -6   0   7 187.410 89.5738   3
  -6   0   6 1744.95 135.138   3
   6   0  -6 1106.48 160.825   1
  -6   0   5 2175.03 149.897   3
   6   0  -5 1890.72 172.667   1
   6   0  -4 1023.89 147.043   1
   6   0  -3 994.855 136.599   1
   6   0  -2 694.683 127.379   1
   6   0  -1 4718.03 227.599   1
   6   0   0 13416.2 365.725   1
   6   0   1 23269.5 499.665   1
  -6   0  -1 19669.4 347.843   6
  -6   0  -2-5.82178 80.5857   6
   6   0   2-105.480 93.6760   1
   6   0   3 835.578 118.737   1
   6   0   3 726.549 105.227   7
  -6   0  -3 1015.07 108.756   6
   6   0   4 5181.83 230.994   1
  -6   0  -4 4816.30 186.509   6
  -6   0  -5 153.202 92.0702   6
   6   0   5 8.91841 79.3838   7
   6   0   5 303.245 105.334   1
  -6   0  -6 120.361 90.5829   6
   6   0   6 96.7693 80.0499   7
   6   0   6 200.454 104.157   1
   6   0   7 1881.81 161.499   1
   6   0   7 1925.63 158.170   7
  -6   0  -7 1668.65 142.744   6
  -6   0  -8 998.668 132.071   6
   6   0   8 1389.37 155.442   1
  -6   0  -9 1479.88 149.795   6
   6   0   9 1868.04 181.479   1
   6   1 -14 948.237 155.750   6
  -6  -1  14 1063.14 188.261   4
  -6  -1  14 897.857 169.346   3
   6   1 -13 328.832 121.818   6
  -6  -1  13 166.790 137.763   4
  -6  -1  13 144.292 127.814   3
   6   1 -12 788.001 141.247   6
  -6  -1  12 1036.64 172.966   4
  -6  -1  12 1051.92 157.301   3
   6   1 -11 1345.25 146.521   6
  -6  -1  11 1407.07 164.105   3
   6   1 -10 477.877 109.535   6
  -6  -1  10 357.617 121.692   3
   6   1  -9 262.823 125.139   1
  -6  -1   9 352.774 116.073   3
   6   1  -8 155.465 122.521   1
  -6  -1   8 157.890 100.833   3
  -6  -1   7 1454.44 145.981   3
   6   1  -7 1095.92 166.256   1
  -6  -1   6 2827.30 181.941   3
   6   1  -6 1977.94 191.112   1
   6   1  -5 123.296 106.907   1
  -6  -1   5 90.6183 101.764   3
   6   1  -4 112.008 105.647   1
   6   1  -3 1188.07 147.582   1
   6   1  -2 349.466 111.094   1
   6   1  -1 632.327 122.987   1
   6   1   0 2085.02 171.205   1
  -6  -1  -1 57.6492 84.2068   6
   6   1   1 27.2112 91.1477   1
   6   1   2 2836.24 183.468   1
   6   1   2 2526.40 172.178   7
   6   1   3 985.804 131.165   1
   6   1   3 874.921 121.461   7
  -6  -1  -3 1073.59 125.234   6
   6   1   4 7314.52 263.745   7
  -6  -1  -4 8444.88 262.072   6
   6   1   5 909.185 138.218   1
   6   1   5 883.097 122.907   7
  -6  -1  -5 945.139 119.538   6
   6   1   6 487.651 120.648   1
   6   1   6 616.006 121.931   7
  -6  -1  -6 629.979 124.649   6
   6   1   7 181.208 104.828   1
  -6  -1  -7 201.298 110.758   6
   6   1   7 32.0468 99.3596   7
   6   1   8 352.607 128.970   1
  -6  -1  -8 360.743 118.390   6
   6   2 -13 351.617 136.955   6
  -6  -2  13 274.852 151.720   3
   6   2 -12 230.041 124.417   6
  -6  -2  12 301.939 137.335   3
   6   2 -11 786.244 145.439   6
  -6  -2  11 601.850 149.410   3
   6   2 -11 547.714 148.867   1
   6   2 -10 412.696 141.383   1
  -6  -2  10 621.877 146.201   3
   6   2  -9 183.343 127.365   1
  -6  -2   9 88.0477 109.680   3
  -6  -2   8 1325.01 152.832   3
   6   2  -8 935.682 163.086   1
   6   2  -7 936.062 154.514   1
  -6  -2   7 948.945 138.204   3
   6   2  -6 396.589 129.594   1
  -6  -2   6 186.341 111.779   3
   6   2  -5 53.7119 109.588   1
  -6  -2   5 363.663 119.126   3
   6   2  -4 800.735 144.198   1
   6   2  -3 1421.02 158.218   1
   6   2  -2 1210.58 150.290   1
   6   2  -1 824.139 131.087   1
   6   2   0 36.6514 95.2423   1
   6   2   0 168.300 94.1470   7
   6   2   1 1484.13 146.810   1
  -6  -2  -1 1204.29 130.589   6
   6   2   2 2571.10 182.615   7
  -6  -2  -2 2987.64 181.846   6
   6   2   3 8418.00 301.228   1
  -6  -2  -3 7551.34 260.461   6
  -6  -2  -4 604.435 123.394   6
   6   2   4 489.934 124.922   1
   6   2   4 341.016 104.513   7
   6   2   5 797.556 135.536   1
   6   2   5 606.380 126.288   7
  -6  -2  -5 700.449 127.260   6
   6   2   6 2590.30 195.123   1
   6   2   6 2154.65 184.391   7
  -6  -2  -6 2487.09 177.130   6
   6   3 -11 237.037 155.215   1
  -6  -3  11 850.271 163.279   3
  -6  -3  10 962.383 161.434   3
   6   3 -10 702.796 170.455   1
   6   3  -9 342.728 145.342   1
  -6  -3   9 449.854 140.467   3
   6   3  -8 346.471 142.787   1
  -6  -3   8 445.009 136.322   3
   6   3  -7 414.141 139.069   1
  -6  -3   7 441.527 135.744   3
   6   3  -6 61.8003 118.346   1
  -6  -3   6 68.4032 124.229   3
   6   3  -5 495.716 135.228   1
   6   3  -4 848.191 146.617   1
   6   3  -3 12.2330 111.644   1
   6   3  -2 128.683 108.225   1
   6   3  -2 58.9849 98.6788   7
   6   3  -1 951.378 144.947   1
   6   3  -1 714.741 138.393   7
   6   3   0 152.633 107.004   1
   6   3   0 10.4176 97.4897   7
  -6  -3  -1 452.396 122.004   6
   6   3   1 586.574 118.576   1
   6   3   1 502.227 128.187   7
   6   3   2 1751.62 165.427   1
  -6  -3  -2 1629.00 163.603   6
  -6  -3  -3 26.6375 113.057   6
   6   3   3 117.339 108.494   7
   6   3   3 146.844 112.740   1
   6   3   4 1152.25 153.408   1
   6   3   4 838.364 148.721   7
  -6  -3  -4 1165.94 152.790   6
   6   4  -7 183.416 133.413   1
  -6  -4   7 35.5151 137.175   3
   6   4  -6 331.407 132.867   1
  -6  -4   6 662.658 154.806   3
   6   4  -5 616.604 143.030   1
   6   4  -5 588.115 148.351   7
   6   4  -4 194.253 129.733   1
   6   4  -4-1.32245 113.987   7
   6   4  -3 424.493 146.588   1
   6   4  -3 77.9495 114.360   7
   6   4  -2 405.752 128.100   1
   6   4  -2 313.448 126.887   7
   6   4  -1 1014.65 149.227   1
   6   4  -1 859.424 151.660   7
   6   4   0 678.199 135.981   1
   7  -9  -5 274.075 150.490   2
   7  -9  -4 285.304 158.122   2
   7  -9  -3 369.614 161.811   2
   7  -9  -2 297.731 173.242   2
   7  -9  -1 3381.54 277.871   2
   7  -9   0 256.387 185.327   2
   7  -9   1 417.715 181.378   2
   7  -9   2 710.831 211.082   2
   7  -8  -8 1351.75 184.168   2
   7  -8  -7 3523.53 235.285   2
   7  -8  -6 331.647 143.054   2
   7  -8  -5 242.392 131.189   2
   7  -8  -4 238.049 143.748   2
   7  -8  -3 2390.79 212.710   2
   7  -8  -2 286.326 150.411   2
   7  -8  -1 455.716 166.797   2
   7  -8   0 569.080 163.225   2
   7  -8   1 574.940 171.038   2
   7  -8   2 1449.91 214.560   2
   7  -8   3 334.834 176.587   2
   7  -8   4 325.284 185.168   2
   7  -8   5 256.307 189.350   2
  -7   7  10 394.341 179.027   4
   7  -7  -8 83.7580 106.366   1
   7  -7  -8 211.025 126.506   2
   7  -7  -7 129.009 109.345   1
   7  -7  -7 345.363 132.014   2
   7  -7  -6 173.366 112.108   1
   7  -7  -6 348.798 126.059   2
   7  -7  -5 244.582 103.461   1
   7  -7  -5 184.953 114.746   2
   7  -7  -4 1280.32 140.771   1
   7  -7  -4 1573.90 171.067   2
   7  -7  -3 432.309 105.418   1
   7  -7  -3 537.458 132.638   2
   7  -7  -2 120.410 124.262   2
   7  -7  -2 130.204 89.9923   1
   7  -7  -1 447.212 139.915   2
   7  -7  -1 341.045 89.6350   1
   7  -7   0 436.986 146.273   2
   7  -7   0 136.464 87.4394   1
   7  -7   1 2458.67 154.722   1
   7  -7   1 2889.63 240.743   2
   7  -7   2 294.131 157.546   2
   7  -7   2 87.7406 78.0625   1
   7  -7   3 610.694 172.987   2
   7  -7   3 253.075 85.1644   1
   7  -7   4 810.853 109.050   1
   7  -7   4 959.400 181.615   2
   7  -7   5 564.546 180.500   2
   7  -7   5 242.887 92.1944   1
   7  -7   6 186.638 88.8715   1
  -7   6  11 278.990 178.066   4
  -7   6  10 72.6903 151.517   4
   7  -6  -8 154.919 103.487   1
   7  -6  -7 157.662 107.322   1
   7  -6  -6 970.653 133.371   2
   7  -6  -6 986.615 143.581   1
   7  -6  -5 2776.46 177.415   2
   7  -6  -5 3137.31 197.083   1
   7  -6  -4 208.587 101.425   1
   7  -6  -4 298.087 118.692   2
   7  -6  -3 534.324 107.116   1
   7  -6  -3 567.267 139.960   2
   7  -6  -2 149.218 108.897   1
   7  -6  -2 321.768 126.876   2
   7  -6  -1 2790.94 168.569   1
   7  -6  -1 2792.23 199.423   2
   7  -6   0 406.154 144.675   2
   7  -6   0 103.912 87.5617   1
   7  -6   1 806.418 121.665   1
   7  -6   1 535.368 141.765   2
   7  -6   2 299.941 137.405   2
   7  -6   2 189.144 82.1778   1
   7  -6   3 236.817 132.152   2
   7  -6   3 192.071 80.3889   1
   7  -6   4 1015.06 114.575   1
   7  -6   5 325.351 95.8057   1
   7  -6   6 123.006 89.7111   1
   7  -6   7 182.551 95.2641   1
  -7   5  12 87.0843 165.649   4
  -7   5  11 265.903 162.839   4
  -7   5  10 134.503 156.812   4
   7  -5  -8 370.586 111.957   1
   7  -5  -7 209.337 109.474   1
   7  -5  -6 411.168 112.661   1
   7  -5  -5 398.967 102.233   2
   7  -5  -5 41.8911 85.9496   1
   7  -5  -4 204.493 101.498   1
   7  -5  -4 210.224 102.422   2
   7  -5  -3 271.368 116.256   2
   7  -5  -3 189.371 100.674   1
   7  -5  -2 1986.59 160.946   1
   7  -5  -2 2155.35 170.928   2
   7  -5  -1 579.663 104.896   1
   7  -5  -1 801.805 139.713   2
   7  -5   0 361.313 124.913   2
   7  -5   0 57.0201 83.9020   1
   7  -5   1 565.781 103.123   1
   7  -5   1 487.515 134.531   2
   7  -5   2 108.778 119.646   2
   7  -5   2 161.745 85.1199   1
   7  -5   3 1177.07 120.877   1
   7  -5   4 152.744 80.6491   1
   7  -5   5 126.527 84.2861   1
   7  -5   6 430.293 102.891   1
   7  -5   7 577.489 108.231   1
   7  -5   8 134.716 96.5715   1
  -7   4  13 592.792 195.249   4
  -7   4  12 229.803 172.983   4
  -7   4  11 221.532 160.827   4
  -7   4  10 107.280 145.565   4
   7  -4  -8 247.010 100.740   1
   7  -4  -7 685.842 129.165   1
   7  -4  -6 227.438 107.116   1
   7  -4  -5 214.134 97.3624   1
   7  -4  -4 216.229 101.678   1
   7  -4  -3 389.295 107.677   1
   7  -4  -3 583.528 114.757   2
   7  -4  -2 187.558 99.8229   1
   7  -4  -2 320.278 111.839   2
   7  -4  -1 804.186 115.117   1
   7  -4  -1 1020.92 137.215   2
   7  -4   0 305.943 115.329   2
   7  -4   0 166.280 98.6946   1
   7  -4   1 1838.43 149.116   1
   7  -4   2 183.594 88.5255   1
   7  -4   3 631.264 111.203   1
   7  -4   4 234.760 92.5178   1
   7  -4   5 305.913 93.6854   1
   7  -4   6 246.302 99.9185   1
   7  -4   7 277.694 104.540   1
   7  -4   8 153.043 98.6895   1
  -7   3  13 164.819 165.960   4
  -7   3  12 156.992 158.827   4
  -7   3  11 211.719 155.600   4
  -7   3  10 312.690 147.847   4
   7  -3  -8 434.820 116.568   1
   7  -3  -7 927.529 148.556   1
   7  -3  -6 340.776 113.276   1
   7  -3  -5 336.071 109.903   1
   7  -3  -4 1167.43 144.080   1
   7  -3  -3 90.0575 94.0482   1
   7  -3  -2 161.293 98.7856   1
   7  -3  -1 903.238 123.716   1
   7  -3  -1 750.849 111.977   2
   7  -3   0 864.378 121.514   1
   7  -3   1 832.165 115.836   1
   7  -3   2 143.336 88.9284   1
   7  -3   3 105.181 83.6546   1
   7  -3   4 368.496 102.167   1
   7  -3   5 273.032 94.6010   1
   7  -3   6 124.246 96.2553   1
   7  -3   7 177.459 97.5397   1
   7  -3   8 90.8438 95.3810   1
  -7   2  13 325.188 160.139   4
  -7   2  12 84.5830 137.738   4
  -7   2  11 715.933 165.125   4
   7  -2  -9 391.479 118.977   1
   7  -2  -8 244.238 112.373   1
   7  -2  -7 993.810 145.947   1
   7  -2  -6 242.770 110.752   1
   7  -2  -5 967.265 140.838   1
   7  -2  -4 188.405 105.254   1
   7  -2  -3 145.037 93.8644   1
   7  -2  -2 222.818 95.1516   1
   7  -2  -1 314.683 98.1532   1
   7  -2   0 128.142 94.5231   1
   7  -2   1 1002.65 130.679   1
   7  -2   2 431.567 108.070   1
   7  -2   3 698.781 111.834   1
   7  -2   4 254.721 96.4831   1
   7  -2   5 336.012 102.237   1
   7  -2   6 75.8379 96.4135   1
   7  -2   7 511.795 117.270   1
  -7   1  12 166.909 148.762   4
   7  -1 -10 185.097 122.477   1
  -7   1  10 7.71853 102.153   3
   7  -1  -9 95.5992 122.854   1
  -7   1   9 137.789 100.811   3
   7  -1  -8 385.410 148.284   1
  -7   1   8 495.076 106.387   3
   7  -1  -7 196.501 127.749   1
  -7   1   7 77.9792 97.7942   3
   7  -1  -6 597.585 143.906   1
   7  -1  -5 1083.89 159.038   1
   7  -1  -4 330.118 124.266   1
   7  -1  -3 61.8854 110.538   1
   7  -1  -2 688.303 128.020   1
  -7   1   1 35.7567 79.1873   6
   7  -1  -1 293.665 116.118   1
  -7   1   0 41.2579 74.7254   6
   7  -1   0 315.040 116.841   1
   7  -1   1 2362.99 193.756   1
  -7   1  -1 1741.08 125.615   6
  -7   1  -2 143.331 82.5660   6
   7  -1   2 183.872 103.601   1
   7  -1   3 213.906 102.234   1
  -7   1  -3 375.693 95.1268   6
  -7   1  -4 189.666 88.8008   6
   7  -1   4 25.9350 86.2505   1
   7  -1   4 103.308 98.2233   7
   7  -1   5 28.6908 87.3146   7
   7  -1   5 37.7579 90.3084   1
   7  -1   6 115.530 97.9990   1
  -7   0  12 153.581 133.034   3
   7   0 -11 141.229 142.095   1
  -7   0  11 74.4916 128.370   3
   7   0 -10 352.502 148.195   1
  -7   0  10 309.889 119.609   3
  -7   0   9 417.798 123.516   3
   7   0  -9 559.648 165.410   1
  -7   0   8 673.911 127.465   3
   7   0  -8 951.099 170.291   1
   7   0  -7 359.921 137.620   1
  -7   0   7 294.230 116.161   3
   7   0  -6 46.1374 129.293   1
  -7   0   6 229.986 111.070   3
   7   0  -5 922.315 154.141   1
   7   0  -4 387.681 144.598   1
   7   0  -3 1665.82 173.356   1
   7   0  -2 472.330 133.197   1
  -7   0   1 92.5089 88.8358   6
   7   0  -1 340.009 128.479   1
  -7   0   0-133.044 98.0937   6
   7   0   0-10.8139 104.427   1
   7   0   1 2489.46 188.909   1
  -7   0  -1 2364.64 153.835   6
  -7   0  -2 69.7251 96.5195   6
   7   0   2-10.3861 103.953   1
   7   0   2 47.7677 96.8520   7
   7   0   3 763.759 136.908   1
   7   0   3 583.079 117.859   7
  -7   0  -3 582.566 108.537   6
  -7   0  -4 33.5933 94.6063   6
   7   0   4 39.6622 101.820   1
   7   0   4 142.751 106.666   7
  -7   0  -5 181.577 106.881   6
   7   0   5 172.345 104.797   7
   7   0   5 188.642 117.954   1
   7   1 -11 232.107 153.252   1
  -7  -1  11 4.13217 126.685   3
   7   1 -10 240.741 158.839   1
  -7  -1  10 148.646 130.048   3
   7   1  -9 289.572 143.874   1
  -7  -1   9 77.5301 117.216   3
   7   1  -8 122.828 133.891   1
  -7  -1   8 329.363 134.628   3
   7   1  -7 43.2491 125.661   1
  -7  -1   7 375.185 135.696   3
   7   1  -6 1123.70 174.099   1
   7   1  -5 365.091 141.988   1
   7   1  -4 388.796 135.352   1
   7   1  -3 265.288 125.504   1
   7   1  -2 67.8587 112.152   1
   7   1  -1 126.998 111.296   1
  -7  -1   0 125.385 104.786   6
   7   1   0 9.57455 106.440   1
  -7  -1  -1 114.433 109.957   6
   7   1   1 157.136 109.835   1
   7   1   1 104.765 112.147   7
  -7  -1  -2 68.9017 109.161   6
   7   1   2 131.437 108.185   1
   7   1   2 73.8332 105.767   7
   7   1   3 1424.34 165.864   1
   7   1   3 1038.10 142.926   7
  -7  -1  -3 1260.02 144.377   6
  -7  -1  -4 690.877 128.877   6
   7   1   4 409.761 118.038   7
   7   1   4 585.503 136.489   1
   7   2  -8 117.770 140.430   1
  -7  -2   8 285.974 143.551   3
   7   2  -7 63.8626 130.645   1
  -7  -2   7 242.938 141.632   3
   7   2  -6 1096.35 173.922   1
   7   2  -5 352.675 142.479   1
   7   2  -4 329.075 137.742   1
   7   2  -3 632.720 148.352   1
   7   2  -2 564.779 148.712   1
   7   2  -1 1069.52 165.220   1
   7   2  -1 592.184 137.006   7
  -7  -2   0 48.1369 116.032   6
   7   2   0 247.821 125.652   1
   7   2   0 138.771 119.305   7
  -7  -2  -1-17.8894 113.771   6
   7   2   1 253.292 125.736   1
   7   2   1 111.003 120.727   7
   8  -7  -7 106.963 126.154   1
   8  -7  -6 170.829 134.018   1
   8  -7  -5 5758.52 278.562   1
   8  -7  -4 609.298 150.674   1
   8  -7  -3 881.270 139.008   1
   8  -7  -2 171.578 105.712   1
   8  -7  -1 270.249 157.390   2
   8  -7  -1 250.222 107.711   1
   8  -7   0 150.553 159.077   2
   8  -7   0 111.541 117.791   1
   8  -7   1 194.048 179.536   2
   8  -7   1 124.725 101.103   1
   8  -7   2 173.480 175.275   2
   8  -7   2 90.2414 97.2492   1
   8  -6  -8 118.191 132.800   1
   8  -6  -7 1050.46 167.143   1
   8  -6  -6 217.410 122.872   1
   8  -6  -5 300.703 123.592   1
   8  -6  -4 672.535 139.885   1
   8  -6  -3 677.260 129.437   1
   8  -6  -2 169.555 100.828   1
   8  -6  -1 269.737 115.162   1
   8  -6   0 885.122 126.628   1
   8  -6   1 301.403 167.467   2
   8  -6   1 144.675 106.325   1
   8  -6   2 2031.12 163.631   1
   8  -6   2 1805.06 215.284   2
   8  -6   3 1910.60 157.802   1
   8  -6   3 1495.44 211.938   2
   8  -5 -10 136.039 133.988   1
   8  -5  -9 246.973 138.499   1
   8  -5  -8 199.520 131.965   1
   8  -5  -7 148.691 124.336   1
   8  -5  -6 206.042 126.337   1
   8  -5  -5 366.993 122.198   1
   8  -5  -4 1218.77 184.976   1
   8  -5  -3 8448.07 326.291   1
   8  -5  -2 3436.78 225.100   1
   8  -5  -1 4003.47 223.815   1
   8  -5   0 594.782 121.489   1
   8  -5   1 351.640 113.872   1
   8  -5   2 131.718 98.1362   1
   8  -5   3 256.942 104.601   1
   8  -5   4 170.726 105.923   1
   8  -4 -10 450.896 151.771   1
   8  -4  -9 826.447 175.448   1
   8  -4  -8 205.696 133.125   1
   8  -4  -7 232.874 120.652   1
   8  -4  -6 359.719 130.644   1
   8  -4  -5 1637.39 177.488   1
   8  -4  -4 188.260 119.777   1
   8  -4  -3 625.589 130.696   1
   8  -4  -2 698.036 128.439   1
   8  -4  -1 1004.01 139.862   1
   8  -4   0 192.153 101.514   1
   8  -4   1 593.565 132.531   1
   8  -4   2 771.834 128.136   1
   8  -4   3 85.8774 97.5440   1
   8  -4   4 1785.68 162.880   1
   8  -3 -10 162.668 137.436   1
   8  -3  -9 638.979 167.289   1
   8  -3  -8 666.254 158.383   1
   8  -3  -7 450.387 135.910   1
   8  -3  -6 314.102 130.089   1
   8  -3  -5 269.001 122.405   1
   8  -3  -4 525.204 140.913   1
   8  -3  -3 1124.72 153.229   1
   8  -3  -2 1395.64 177.061   1
   8  -3  -1 5512.21 272.788   1
   8  -3   0 3945.66 231.122   1
   8  -3   1 6352.76 295.007   1
   8  -3   2 548.427 120.746   1
   8  -3   3 143.770 99.5274   1
   8  -3   4 199.814 111.523   1
   8  -2  -9 211.238 143.113   1
   8  -2  -8 665.320 151.842   1
   8  -2  -7 1205.65 175.860   1
   8  -2  -6 153.776 121.403   1
   8  -2  -5 221.484 118.305   1
   8  -2  -4 477.959 131.009   1
   8  -2  -3 1034.51 155.304   1
   8  -2  -2 265.923 112.722   1
   8  -2  -1 494.298 126.375   1
   8  -2   0 216.372 114.613   1
   8  -2   1 1148.51 150.377   1
   8  -2   2 235.247 111.610   1
   8  -1  -8 335.218 160.612   1
   8  -1  -7 1141.50 194.453   1
   8  -1  -6 1785.82 208.625   1
   8  -1  -5 1360.39 188.257   1
   8  -1  -4 462.194 147.666   1
   8  -1  -3 698.211 153.560   1
   8  -1  -2 208.170 138.340   1
   8  -1  -1 1718.82 186.694   1
   8  -1   0 882.281 168.663   1
   8  -1   1 2136.51 194.106   1
   8   0  -5 803.014 168.072   1
   8   0  -4 375.657 146.661   1
   8   0  -3 238.878 137.278   1
   0   0   0    0.00    0.00   0
TITL kat1 in P-1
REM P-1 (#2 in standard setting)
CELL 0.71073   6.772228   8.309798  14.420165  91.8738 100.0095 113.0418
ZERR    2.00   0.000463   0.000661   0.001273   0.0068   0.0065   0.0070
LATT  1
SFAC C H N O
UNIT 38.00 36.00 2.00 10.00
TREF
HKLF 4
END
;
_shelx_hkl_checksum              35542
_shelx_res_file
;
    amf65.res created by SHELXL-2014/7
TITL amf65_a.res in P-1
REM Old TITL kat1 in P-1
REM SHELXT solution in P-1
REM R1 0.152,  Rweak 0.012,  Alpha 0.046,  Orientation as input
REM Formula found by SHELXT:  C18 N O5
CELL  0.71073   6.7722   8.3098  14.4202   91.874  100.009  113.042
ZERR    2.000   0.0005   0.0007   0.0013    0.007    0.007    0.007
LATT  1
SFAC  C   H   N   O
UNIT 36 30 2 10
Temp -173
size 0.17 0.11 0.02
L.S. 10
BOND $H
HTAB
HTAB N32 O2
EQIV $1 x-1, y, z
HTAB C5 O1_$1
EQIV $2 x+1, y, z
HTAB C8 O6_$2
HTAB C312 O31
conf
LIST 4
acta 50
FMAP 2
PLAN 20
WGHT    0.060600    0.353900
FVAR       4.60591
O1    4    0.775818    0.247646    0.525639    11.00000    0.01695    0.02161 =
         0.02805    0.00859    0.00640    0.01117
O2    4    0.949063    0.363074    0.413172    11.00000    0.01894    0.02290 =
         0.03018    0.00747    0.00785    0.01091
O6    4    0.049986    0.013240    0.688264    11.00000    0.01926    0.02712 =
         0.03126    0.01162    0.01012    0.01145
O31   4    0.404812    0.455226    0.276445    11.00000    0.01692    0.02808 =
         0.03154    0.01058    0.00583    0.01013
O313  4    0.533874    0.765585    0.011690    11.00000    0.02622    0.03055 =
         0.03182    0.01303    0.00907    0.01684
N32   3    0.759355    0.498548    0.274884    11.00000    0.01760    0.02381 =
         0.02667    0.00813    0.00679    0.01157
H32   2    0.871810    0.475539    0.307962    11.00000    0.03165
C2    1    0.782311    0.327034    0.444074    11.00000    0.01864    0.01306 =
         0.02544    0.00137    0.00437    0.00510
C3    1    0.589030    0.356681    0.401905    11.00000    0.01719    0.01327 =
         0.02520    0.00253    0.00469    0.00688
C4    1    0.412129    0.303784    0.442885    11.00000    0.01820    0.01326 =
         0.02678    0.00265    0.00221    0.00758
AFIX  43
H4    2    0.287159    0.323627    0.414726    11.00000   -1.20000
AFIX   0
C4A   1    0.408532    0.218353    0.527921    11.00000    0.01993    0.01265 =
         0.02502    0.00096    0.00483    0.00783
C5    1    0.227721    0.157251    0.571419    11.00000    0.01525    0.01720 =
         0.02883    0.00164    0.00226    0.00877
AFIX  43
H5    2    0.098678    0.173301    0.545446    11.00000   -1.20000
AFIX   0
C6    1    0.236798    0.073244    0.652454    11.00000    0.01846    0.01621 =
         0.02675    0.00207    0.00627    0.00680
C7    1    0.428939    0.054833    0.692508    11.00000    0.02297    0.01866 =
         0.02426    0.00522    0.00677    0.00910
AFIX  43
H7    2    0.436155    0.001183    0.749453    11.00000   -1.20000
AFIX   0
C8    1    0.609771    0.114389    0.649715    11.00000    0.01845    0.01751 =
         0.02935    0.00405    0.00257    0.00949
AFIX  43
H8    2    0.739878    0.100392    0.676289    11.00000   -1.20000
AFIX   0
C8A   1    0.596270    0.194072    0.568019    11.00000    0.01570    0.01435 =
         0.02738    0.00198    0.00691    0.00543
C31   1    0.575938    0.443066    0.311909    11.00000    0.01810    0.01597 =
         0.02670    0.00224    0.00353    0.00717
C61   1    0.046506   -0.085169    0.768132    11.00000    0.02577    0.02256 =
         0.02899    0.00832    0.01057    0.00919
AFIX 137
H61A  2   -0.097741   -0.123847    0.785141    11.00000   -1.50000
H61B  2    0.159343   -0.010801    0.821920    11.00000   -1.50000
H61C  2    0.075536   -0.188190    0.751980    11.00000   -1.50000
AFIX   0
C311  1    0.791123    0.576644    0.190193    11.00000    0.02063    0.01349 =
         0.02539    0.00144    0.00548    0.00514
C312  1    0.643556    0.633716    0.138213    11.00000    0.01899    0.01666 =
         0.02926    0.00488    0.00845    0.00766
AFIX  43
H312  2    0.512982    0.621233    0.158816    11.00000   -1.20000
AFIX   0
C313  1    0.688395    0.709315    0.055733    11.00000    0.01895    0.01705 =
         0.02832    0.00183    0.00359    0.00725
C314  1    0.876071    0.726345    0.023252    11.00000    0.02564    0.02103 =
         0.02617    0.00695    0.00880    0.00879
AFIX  43
H314  2    0.904009    0.776207   -0.033926    11.00000   -1.20000
AFIX   0
C315  1    1.022871    0.668238    0.076842    11.00000    0.01818    0.02525 =
         0.03465    0.00602    0.01096    0.00763
AFIX  43
H315  2    1.152950    0.680171    0.055945    11.00000   -1.20000
AFIX   0
C316  1    0.983137    0.594205    0.159118    11.00000    0.02014    0.02159 =
         0.03076    0.00444    0.00364    0.00991
AFIX  43
H316  2    1.084647    0.555256    0.194655    11.00000   -1.20000
AFIX   0
C317  1    0.567164    0.843008   -0.074311    11.00000    0.03082    0.02960 =
         0.03009    0.01294    0.00693    0.01292
AFIX 137
H31A  2    0.442555    0.871544   -0.100164    11.00000   -1.50000
H31B  2    0.579791    0.759834   -0.120278    11.00000   -1.50000
H31C  2    0.701994    0.950790   -0.061521    11.00000   -1.50000
REM #####
AFIX   0
HKLF 4
REM  amf65_a.res in P-1
REM R1 =  0.0710 for    2666 Fo > 4sig(Fo)  and  0.0935 for all    3302 data
REM    223 parameters refined using      0 restraints
END
WGHT      0.0606      0.3539
REM Instructions for potential hydrogen bonds
HTAB N32 O2
HTAB C5 O1_$1
HTAB C8 O6_$2
HTAB C312 O31
REM Highest difference peak  0.245,  deepest hole -0.261,  1-sigma level  0.056
Q1    1   0.6905  0.3710  0.4321  11.00000  0.05    0.25
Q2    1   0.6104  0.4025  0.3802  11.00000  0.05    0.24
Q3    1   0.4275  0.2777  0.5028  11.00000  0.05    0.23
Q4    1   0.2147  0.0617  0.5910  11.00000  0.05    0.22
Q5    1  -0.1174  0.1311  0.5656  11.00000  0.05    0.21
Q6    1   0.5144  0.2437  0.5582  11.00000  0.05    0.20
Q7    1   0.3765  0.5227  0.2017  11.00000  0.05    0.20
Q8    1   0.5176  0.0844  0.6592  11.00000  0.05    0.19
Q9    1   0.9361  0.2849  0.4788  11.00000  0.05    0.19
Q10   1   0.5624  0.1045  0.5878  11.00000  0.05    0.19
Q11   1   0.4526 -0.0167  0.7947  11.00000  0.05    0.19
Q12   1   0.1879  0.3003  0.3921  11.00000  0.05    0.18
Q13   1   0.5434  0.3660  0.4305  11.00000  0.05    0.18
Q14   1   1.1491  0.5477  0.2776  11.00000  0.05    0.18
Q15   1   0.9332  0.3767  0.3519  11.00000  0.05    0.18
Q16   1   1.1534  0.7865 -0.0732  11.00000  0.05    0.17
Q17   1   0.6814  0.5453  0.1486  11.00000  0.05    0.17
Q18   1   0.8473  0.3775  0.5596  11.00000  0.05    0.17
Q19   1   0.6353  0.1926  0.6243  11.00000  0.05    0.17
Q20   1   0.8511  0.7040 -0.0447  11.00000  0.05    0.17
;
_shelx_res_checksum              99725
loop_
_space_group_symop_operation_xyz
'x, y, z'
'-x, -y, -z'
loop_
_atom_site_type_symbol
_atom_site_label
_atom_site_fract_x
_atom_site_fract_y
_atom_site_fract_z
_atom_site_U_iso_or_equiv
_atom_site_adp_type
_atom_site_calc_flag
_atom_site_occupancy
O O1 0.7758(2) 0.24765(19) 0.52564(10) 0.0207(3) Uani d 1
O O2 0.9491(2) 0.3631(2) 0.41317(11) 0.0227(4) Uani d 1
O O6 0.0500(2) 0.0132(2) 0.68826(11) 0.0244(4) Uani d 1
O O31 0.4048(2) 0.4552(2) 0.27644(11) 0.0249(4) Uani d 1
O O313 0.5339(3) 0.7656(2) 0.01169(11) 0.0272(4) Uani d 1
N N32 0.7594(3) 0.4985(2) 0.27488(13) 0.0212(4) Uani d 1
H H32 0.872(4) 0.476(3) 0.3080(18) 0.032(7) Uiso d 1
C C2 0.7823(3) 0.3270(3) 0.44407(15) 0.0195(5) Uani d 1
C C3 0.5890(3) 0.3567(3) 0.40191(15) 0.0183(4) Uani d 1
C C4 0.4121(3) 0.3038(3) 0.44288(15) 0.0193(5) Uani d 1
H H4 0.2872 0.3236 0.4147 0.023 Uiso calc 1
C C4A 0.4085(3) 0.2184(3) 0.52792(15) 0.0188(5) Uani d 1
C C5 0.2277(3) 0.1573(3) 0.57142(16) 0.0200(5) Uani d 1
H H5 0.0987 0.1733 0.5454 0.024 Uiso calc 1
C C6 0.2368(3) 0.0732(3) 0.65245(15) 0.0203(5) Uani d 1
C C7 0.4289(4) 0.0548(3) 0.69251(16) 0.0214(5) Uani d 1
H H7 0.4362 0.0012 0.7495 0.026 Uiso calc 1
C C8 0.6098(4) 0.1144(3) 0.64972(15) 0.0213(5) Uani d 1
H H8 0.7399 0.1004 0.6763 0.026 Uiso calc 1
C C8A 0.5963(3) 0.1941(3) 0.56802(15) 0.0190(5) Uani d 1
C C31 0.5759(3) 0.4431(3) 0.31191(15) 0.0203(5) Uani d 1
C C61 0.0465(4) -0.0852(3) 0.76813(16) 0.0252(5) Uani d 1
H H61A -0.0977 -0.1238 0.7851 0.038 Uiso calc 1
H H61B 0.1593 -0.0108 0.8219 0.038 Uiso calc 1
H H61C 0.0755 -0.1882 0.7520 0.038 Uiso calc 1
C C311 0.7911(3) 0.5766(3) 0.19019(15) 0.0203(5) Uani d 1
C C312 0.6436(3) 0.6337(3) 0.13821(15) 0.0210(5) Uani d 1
H H312 0.5130 0.6212 0.1588 0.025 Uiso calc 1
C C313 0.6884(3) 0.7093(3) 0.05573(16) 0.0216(5) Uani d 1
C C314 0.8761(4) 0.7263(3) 0.02325(16) 0.0239(5) Uani d 1
H H314 0.9040 0.7762 -0.0339 0.029 Uiso calc 1
C C315 1.0229(4) 0.6682(3) 0.07684(17) 0.0256(5) Uani d 1
H H315 1.1530 0.6802 0.0559 0.031 Uiso calc 1
C C316 0.9831(4) 0.5942(3) 0.15912(16) 0.0239(5) Uani d 1
H H316 1.0846 0.5553 0.1947 0.029 Uiso calc 1
C C317 0.5672(4) 0.8430(3) -0.07431(17) 0.0296(5) Uani d 1
H H31A 0.4426 0.8715 -0.1002 0.044 Uiso calc 1
H H31B 0.5798 0.7598 -0.1203 0.044 Uiso calc 1
H H31C 0.7020 0.9508 -0.0615 0.044 Uiso calc 1
loop_
_atom_site_aniso_label
_atom_site_aniso_U_11
_atom_site_aniso_U_22
_atom_site_aniso_U_33
_atom_site_aniso_U_12
_atom_site_aniso_U_13
_atom_site_aniso_U_23
O1 0.0169(8) 0.0216(8) 0.0281(8) 0.0112(6) 0.0064(6) 0.0086(6)
O2 0.0189(8) 0.0229(8) 0.0302(9) 0.0109(7) 0.0078(6) 0.0075(6)
O6 0.0193(8) 0.0271(9) 0.0313(9) 0.0115(7) 0.0101(6) 0.0116(7)
O31 0.0169(8) 0.0281(9) 0.0315(9) 0.0101(7) 0.0058(6) 0.0106(7)
O313 0.0262(9) 0.0306(9) 0.0318(9) 0.0168(7) 0.0091(7) 0.0130(7)
N32 0.0176(10) 0.0238(10) 0.0267(10) 0.0116(8) 0.0068(8) 0.0081(8)
C2 0.0186(11) 0.0131(10) 0.0254(11) 0.0051(8) 0.0044(8) 0.0014(8)
C3 0.0172(10) 0.0133(10) 0.0252(11) 0.0069(8) 0.0047(8) 0.0025(8)
C4 0.0182(11) 0.0133(10) 0.0268(12) 0.0076(8) 0.0022(8) 0.0027(8)
C4A 0.0199(11) 0.0126(10) 0.0250(11) 0.0078(8) 0.0048(8) 0.0010(8)
C5 0.0153(10) 0.0172(11) 0.0288(12) 0.0088(8) 0.0023(8) 0.0016(9)
C6 0.0185(11) 0.0162(11) 0.0267(12) 0.0068(9) 0.0063(9) 0.0021(8)
C7 0.0230(12) 0.0187(11) 0.0243(11) 0.0091(9) 0.0068(9) 0.0052(9)
C8 0.0185(11) 0.0175(11) 0.0294(12) 0.0095(9) 0.0026(9) 0.0041(9)
C8A 0.0157(10) 0.0143(10) 0.0274(12) 0.0054(8) 0.0069(8) 0.0020(8)
C31 0.0181(11) 0.0160(11) 0.0267(12) 0.0072(9) 0.0035(9) 0.0022(9)
C61 0.0258(12) 0.0226(12) 0.0290(12) 0.0092(10) 0.0106(9) 0.0083(9)
C311 0.0206(11) 0.0135(10) 0.0254(11) 0.0051(9) 0.0055(8) 0.0014(8)
C312 0.0190(11) 0.0167(11) 0.0293(12) 0.0077(9) 0.0084(9) 0.0049(9)
C313 0.0190(11) 0.0171(11) 0.0283(12) 0.0073(9) 0.0036(9) 0.0018(9)
C314 0.0256(12) 0.0210(12) 0.0262(12) 0.0088(9) 0.0088(9) 0.0070(9)
C315 0.0182(11) 0.0252(12) 0.0346(13) 0.0076(9) 0.0110(9) 0.0060(10)
C316 0.0201(11) 0.0216(12) 0.0308(13) 0.0099(9) 0.0036(9) 0.0044(9)
C317 0.0308(13) 0.0296(13) 0.0301(13) 0.0129(11) 0.0069(10) 0.0129(10)
loop_
_atom_type_symbol
_atom_type_description
_atom_type_scat_dispersion_real
_atom_type_scat_dispersion_imag
_atom_type_scat_source
C C 0.0033 0.0016 'International Tables Vol C Tables 4.2.6.8 and 6.1.1.4'
H H 0.0000 0.0000 'International Tables Vol C Tables 4.2.6.8 and 6.1.1.4'
N N 0.0061 0.0033 'International Tables Vol C Tables 4.2.6.8 and 6.1.1.4'
O O 0.0106 0.0060 'International Tables Vol C Tables 4.2.6.8 and 6.1.1.4'
loop_
_geom_angle_atom_site_label_1
_geom_angle_atom_site_label_2
_geom_angle_atom_site_label_3
_geom_angle
C2 O1 C8A 123.06(16)
C6 O6 C61 117.74(17)
C313 O313 C317 117.52(18)
C31 N32 C311 127.96(19)
C31 N32 H32 114.6(16)
C311 N32 H32 117.4(16)
O2 C2 O1 116.03(18)
O2 C2 C3 126.7(2)
O1 C2 C3 117.27(18)
C4 C3 C2 119.95(19)
C4 C3 C31 117.69(18)
C2 C3 C31 122.35(18)
C3 C4 C4A 121.62(19)
C3 C4 H4 119.2
C4A C4 H4 119.2
C8A C4A C5 118.77(19)
C8A C4A C4 117.53(19)
C5 C4A C4 123.69(19)
C6 C5 C4A 119.93(19)
C6 C5 H5 120.0
C4A C5 H5 120.0
O6 C6 C5 115.76(19)
O6 C6 C7 124.16(19)
C5 C6 C7 120.1(2)
C8 C7 C6 120.5(2)
C8 C7 H7 119.7
C6 C7 H7 119.7
C8A C8 C7 118.6(2)
C8A C8 H8 120.7
C7 C8 H8 120.7
C8 C8A O1 117.40(18)
C8 C8A C4A 122.04(19)
O1 C8A C4A 120.55(19)
O31 C31 N32 124.7(2)
O31 C31 C3 119.63(19)
N32 C31 C3 115.61(18)
O6 C61 H61A 109.5
O6 C61 H61B 109.5
H61A C61 H61B 109.5
O6 C61 H61C 109.5
H61A C61 H61C 109.5
H61B C61 H61C 109.5
C312 C311 C316 120.1(2)
C312 C311 N32 123.3(2)
C316 C311 N32 116.59(19)
C311 C312 C313 119.3(2)
C311 C312 H312 120.3
C313 C312 H312 120.3
O313 C313 C314 124.3(2)
O313 C313 C312 114.19(19)
C314 C313 C312 121.5(2)
C313 C314 C315 118.3(2)
C313 C314 H314 120.9
C315 C314 H314 120.9
C316 C315 C314 121.4(2)
C316 C315 H315 119.3
C314 C315 H315 119.3
C315 C316 C311 119.4(2)
C315 C316 H316 120.3
C311 C316 H316 120.3
O313 C317 H31A 109.5
O313 C317 H31B 109.5
H31A C317 H31B 109.5
O313 C317 H31C 109.5
H31A C317 H31C 109.5
H31B C317 H31C 109.5
loop_
_geom_bond_atom_site_label_1
_geom_bond_atom_site_label_2
_geom_bond_distance
O1 C2 1.366(2)
O1 C8A 1.379(2)
O2 C2 1.218(2)
O6 C6 1.366(3)
O6 C61 1.432(3)
O31 C31 1.226(3)
O313 C313 1.374(3)
O313 C317 1.428(3)
N32 C31 1.356(3)
N32 C311 1.412(3)
N32 H32 0.92(3)
C2 C3 1.459(3)
C3 C4 1.352(3)
C3 C31 1.509(3)
C4 C4A 1.436(3)
C4 H4 0.9500
C4A C8A 1.394(3)
C4A C5 1.397(3)
C5 C6 1.385(3)
C5 H5 0.9500
C6 C7 1.397(3)
C7 C8 1.391(3)
C7 H7 0.9500
C8 C8A 1.377(3)
C8 H8 0.9500
C61 H61A 0.9800
C61 H61B 0.9800
C61 H61C 0.9800
C311 C312 1.385(3)
C311 C316 1.404(3)
C312 C313 1.388(3)
C312 H312 0.9500
C313 C314 1.388(3)
C314 C315 1.397(3)
C314 H314 0.9500
C315 C316 1.374(3)
C315 H315 0.9500
C316 H316 0.9500
C317 H31A 0.9800
C317 H31B 0.9800
C317 H31C 0.9800
loop_
_geom_hbond_atom_site_label_D
_geom_hbond_atom_site_label_H
_geom_hbond_atom_site_label_A
_geom_hbond_site_symmetry_A
_geom_hbond_distance_DH
_geom_hbond_distance_HA
_geom_hbond_distance_DA
_geom_hbond_angle_DHA
N32 H32 O2 . 0.92(3) 1.91(3) 2.699(2) 143(2)
C4 H4 O2 1_455 0.95 2.43 3.319(3) 155
C5 H5 O1 1_455 0.95 2.47 3.391(3) 164
C8 H8 O6 1_655 0.95 2.46 3.364(3) 160
C312 H312 O31 . 0.95 2.26 2.868(3) 121
C315 H315 O313 1_655 0.95 2.59 3.536(4) 171
loop_
_geom_torsion_atom_site_label_1
_geom_torsion_atom_site_label_2
_geom_torsion_atom_site_label_3
_geom_torsion_atom_site_label_4
_geom_torsion
_geom_torsion_publ_flag
C8A O1 C2 O2 -178.07(17) ?
C8A O1 C2 C3 0.7(3) ?
O2 C2 C3 C4 177.7(2) ?
O1 C2 C3 C4 -1.0(3) ?
O2 C2 C3 C31 -1.4(3) ?
O1 C2 C3 C31 -179.99(18) ?
C2 C3 C4 C4A 0.1(3) ?
C31 C3 C4 C4A 179.18(18) ?
C3 C4 C4A C8A 1.0(3) ?
C3 C4 C4A C5 -178.2(2) ?
C8A C4A C5 C6 -0.5(3) ?
C4 C4A C5 C6 178.8(2) ?
C61 O6 C6 C5 175.76(18) ?
C61 O6 C6 C7 -4.4(3) ?
C4A C5 C6 O6 -178.04(18) ?
C4A C5 C6 C7 2.2(3) ?
O6 C6 C7 C8 177.8(2) ?
C5 C6 C7 C8 -2.4(3) ?
C6 C7 C8 C8A 1.0(3) ?
C7 C8 C8A O1 -178.30(18) ?
C7 C8 C8A C4A 0.8(3) ?
C2 O1 C8A C8 179.51(19) ?
C2 O1 C8A C4A 0.4(3) ?
C5 C4A C8A C8 -1.0(3) ?
C4 C4A C8A C8 179.69(19) ?
C5 C4A C8A O1 178.01(18) ?
C4 C4A C8A O1 -1.3(3) ?
C311 N32 C31 O31 -1.1(4) ?
C311 N32 C31 C3 177.28(19) ?
C4 C3 C31 O31 -3.4(3) ?
C2 C3 C31 O31 175.63(19) ?
C4 C3 C31 N32 178.15(18) y
C2 C3 C31 N32 -2.8(3) y
C31 N32 C311 C312 10.4(3) y
C31 N32 C311 C316 -169.2(2) y
C316 C311 C312 C313 -0.5(3) ?
N32 C311 C312 C313 179.91(19) ?
C317 O313 C313 C314 1.5(3) ?
C317 O313 C313 C312 -179.27(19) ?
C311 C312 C313 O313 -178.17(19) ?
C311 C312 C313 C314 1.1(3) ?
O313 C313 C314 C315 178.0(2) ?
C312 C313 C314 C315 -1.2(3) ?
C313 C314 C315 C316 0.7(3) ?
C314 C315 C316 C311 -0.1(3) ?
C312 C311 C316 C315 0.0(3) ?
N32 C311 C316 C315 179.6(2) ?

_cod_database_fobs_code 2241714
