#------------------------------------------------------------------------------
#$Date: 2016-06-26 04:39:49 +0300 (Sun, 26 Jun 2016) $
#$Revision: 183940 $
#$URL: file:///home/coder/svn-repositories/cod/cif/2/24/17/2241743.cif $
#------------------------------------------------------------------------------
#
# This file is available in the Crystallography Open Database (COD),
# http://www.crystallography.net/. The original data for this entry
# were provided by IUCr Journals, http://journals.iucr.org/.
#
# The file may be used within the scientific community so long as
# proper attribution is given to the journal article from which the
# data were obtained.
#
data_2241743
loop_
_publ_author_name
'Zick, Patricia L.'
'Geiger, David K.'
_publ_section_title
;
 Structural characterization of two benzene-1,2-diamine complexes of zinc
 chloride: a molecular compound and a co-crystal salt
;
_journal_coeditor_code           LH5817
_journal_issue                   7
_journal_name_full               'Acta Crystallographica Section E'
_journal_page_first              1037
_journal_page_last               1042
_journal_paper_doi               10.1107/S2056989016010033
_journal_volume                  72
_journal_year                    2016
_chemical_formula_iupac          '[Zn Cl2 (C6 H8 N2)]'
_chemical_formula_moiety         'C6 H8 Cl2 N2 Zn'
_chemical_formula_sum            'C6 H8 Cl2 N2 Zn'
_chemical_formula_weight         244.41
_chemical_name_common            PLZ09092015LT
_chemical_name_systematic
;
(Benzene-1,2-diamine-\k^2^<i>N</i>,<i>N</i>')dichloroidozinc
;
_space_group_crystal_system      orthorhombic
_space_group_IT_number           62
_space_group_name_Hall           '-P 2ac 2n'
_space_group_name_H-M_alt        'P n m a'
_symmetry_space_group_name_Hall  '-P 2ac 2n'
_symmetry_space_group_name_H-M   'P n m a'
_atom_sites_solution_hydrogens   mixed
_atom_sites_solution_primary     direct
_atom_sites_solution_secondary   difmap
_cell_angle_alpha                90
_cell_angle_beta                 90
_cell_angle_gamma                90
_cell_formula_units_Z            4
_cell_length_a                   8.4152(12)
_cell_length_b                   7.5141(9)
_cell_length_c                   14.199(2)
_cell_measurement_reflns_used    2561
_cell_measurement_temperature    200.(2)
_cell_measurement_theta_max      29.2309
_cell_measurement_theta_min      2.8137
_cell_volume                     897.8(2)
_computing_cell_refinement
;
SAINT (Bruker, 2013)
;
_computing_data_collection
;
APEX2 (Bruker, 2013)
;
_computing_data_reduction
;
SAINT (Bruker, 2013)
;
_computing_molecular_graphics
;
PLATON (Spek, 2009) and Mercury (Macrae <i>et al.</i>, 2006)
;
_computing_publication_material
;
publCIF (Westrip, 2010)
;
_computing_structure_refinement
;
SHELXL2014 (Sheldrick, 2015)
;
_computing_structure_solution
;
SHELXS97 (Sheldrick, 2008)
;
_diffrn_ambient_temperature      200.(2)
_diffrn_detector_area_resol_mean 8.3330
_diffrn_measured_fraction_theta_full 0.979
_diffrn_measured_fraction_theta_max 0.979
_diffrn_measurement_device_type  'Bruker SMART X2S benchtop'
_diffrn_measurement_method       '\w scans'
_diffrn_radiation_monochromator  'doubly curved silicon crystal'
_diffrn_radiation_type           MoK\a
_diffrn_radiation_wavelength     0.71073
_diffrn_reflns_av_R_equivalents  0.0397
_diffrn_reflns_limit_h_max       5
_diffrn_reflns_limit_h_min       -10
_diffrn_reflns_limit_k_max       9
_diffrn_reflns_limit_k_min       -8
_diffrn_reflns_limit_l_max       18
_diffrn_reflns_limit_l_min       -15
_diffrn_reflns_number            4392
_diffrn_reflns_theta_full        27.48
_diffrn_reflns_theta_max         27.48
_diffrn_reflns_theta_min         2.81
_exptl_absorpt_coefficient_mu    3.265
_exptl_absorpt_correction_T_max  0.56
_exptl_absorpt_correction_T_min  0.40
_exptl_absorpt_correction_type   multi-scan
_exptl_absorpt_process_details
;
(SADABS; Bruker, 2013)
;
_exptl_crystal_colour            'clear colourless'
_exptl_crystal_density_diffrn    1.808
_exptl_crystal_density_method    'not measured'
_exptl_crystal_description       prism
_exptl_crystal_F_000             488
_exptl_crystal_size_max          0.600
_exptl_crystal_size_mid          0.300
_exptl_crystal_size_min          0.200
_refine_diff_density_max         0.407
_refine_diff_density_min         -0.581
_refine_ls_extinction_method     none
_refine_ls_goodness_of_fit_ref   1.156
_refine_ls_hydrogen_treatment    mixed
_refine_ls_matrix_type           full
_refine_ls_number_parameters     72
_refine_ls_number_reflns         1090
_refine_ls_number_restraints     0
_refine_ls_restrained_S_all      1.156
_refine_ls_R_factor_all          0.0291
_refine_ls_R_factor_gt           0.0267
_refine_ls_shift/su_max          0.000
_refine_ls_shift/su_mean         0.000
_refine_ls_structure_factor_coef Fsqd
_refine_ls_weighting_details
'w=1/[\s^2^(Fo^2^)+(0.0377P)^2^] where P=(Fo^2^+2Fc^2^)/3'
_refine_ls_weighting_scheme      calc
_refine_ls_wR_factor_gt          0.0724
_refine_ls_wR_factor_ref         0.0736
_reflns_number_gt                992
_reflns_number_total             1090
_reflns_threshold_expression     'I > 2\s(I)'
_cod_data_source_file            lh5817sup1.cif
_cod_data_source_block           Ib
_cod_database_code               2241743
_shelx_hkl_file
;
   0   1   0   -0.65    0.02
   0  -1   0   -0.60    0.03
   0   2   0  467.05   23.53
   0   2   0  455.10   23.50
   0   3   0   -0.01    0.05
   0   3   0   -0.06    0.02
   0   3   0    0.02    0.03
   0   4   0  879.16   46.94
   0   4   0 1000.00   46.96
   0   4   0  891.05   46.92
   0   5   0   -0.01    0.04
   0   5   0    0.02    0.06
   0   5   0    0.00    0.04
   0   6   0   37.57    1.85
   0   6   0   34.07    1.84
   0   6   0   33.23    1.83
   0   7   0    0.02    0.06
   1   0   0   -0.28    0.02
  -1   0   0   -0.26    0.02
  -1   0   0   -0.28    0.01
   1   0   0   -0.30    0.01
   1  -1   0   -0.24    0.03
  -1   1   0   -0.27    0.02
  -1  -1   0   -0.16    0.04
  -1   1   0   -0.31    0.02
   1   1   0   -0.33    0.02
   1   2   0    0.11    0.04
   1  -2   0   -0.01    0.03
   1  -2   0   -0.01    0.03
  -1  -2   0    0.07    0.05
  -1   3   0   -0.04    0.03
   1   3   0    0.00    0.04
   1  -3   0   -0.01    0.03
  -1  -3   0    0.11    0.08
  -1   3   0   -0.04    0.03
  -1  -4   0   -0.01    0.08
  -1   4   0   -0.01    0.05
   1   4   0   -0.07    0.03
   1   4   0    0.05    0.05
  -1   4   0   -0.15    0.07
  -1  -5   0   -0.02    0.07
  -1   5   0    0.00    0.08
   1   5   0    0.03    0.05
  -1   5   0    0.03    0.04
  -1   5   0   -0.02    0.05
   1   5   0    0.07    0.04
   1   6   0    0.12    0.07
  -1   6   0    0.03    0.05
   1   6   0    0.00    0.05
   1   6   0    0.01    0.06
  -1   6   0    0.01    0.06
  -1   6   0    0.02    0.10
   1   7   0    0.01    0.05
   1   7   0    0.05    0.08
  -1   7   0   -0.08    0.07
  -1   8   0    0.04    0.09
  -2   0   0  195.70   10.50
   2   0   0  200.11   10.49
  -2   0   0  215.33   10.50
   2   0   0  213.13   10.50
  -2   1   0  213.85   11.01
  -2   1   0  214.66   11.00
   2   1   0  224.82   11.01
  -2  -1   0  219.00   11.01
   2   1   0  225.52   11.00
   2  -1   0  221.65   11.01
   2  -1   0  207.20   11.00
  -2  -1   0  195.08   11.00
   2  -2   0  241.15   12.27
  -2   2   0  235.24   12.26
   2  -2   0  245.32   12.27
  -2  -2   0  240.81   12.28
  -2   2   0  234.82   12.27
   2   2   0  247.57   12.27
  -2   3   0  130.44    7.24
  -2   3   0  140.59    7.23
   2   3   0  148.68    7.24
  -2  -3   0  146.11    7.27
   2  -3   0  141.46    7.24
   2  -4   0   66.50    3.49
   2   4   0   72.78    3.49
  -2   4   0   66.68    3.47
  -2  -4   0   67.28    3.55
  -2   4   0   64.41    3.49
  -2   5   0   47.66    2.48
  -2  -5   0   42.40    2.56
  -2   5   0   49.00    2.46
   2   5   0   50.14    2.44
  -2   6   0   34.09    1.77
  -2   6   0   33.67    1.80
   2   6   0   33.78    1.75
  -2   7   0   16.61    0.94
  -2   8   0   10.57    0.65
   3   0   0   -0.09    0.03
   3   0   0   -0.08    0.04
  -3   0   0   -0.16    0.03
  -3   0   0   -0.09    0.03
  -3   1   0    0.01    0.04
   3  -1   0    0.07    0.04
   3  -1   0    0.00    0.03
  -3  -1   0    0.01    0.04
   3   1   0   -0.05    0.04
  -3   1   0    0.03    0.04
   3   1   0    0.20    0.04
  -3  -1   0   -0.03    0.04
  -3  -2   0    0.00    0.06
   3   2   0   -0.01    0.03
  -3   2   0   -0.02    0.04
  -3   2   0   -0.04    0.04
   3   2   0    0.08    0.06
   3  -2   0   -0.05    0.04
  -3   3   0    0.00    0.05
  -3   3   0    0.01    0.04
   3  -3   0   -0.01    0.05
   3   3   0    0.05    0.04
  -3  -3   0   -0.02    0.06
  -3   4   0    0.00    0.04
  -3   4   0    0.00    0.06
  -3  -4   0    0.07    0.08
   3  -4   0    0.01    0.05
  -3   5   0    0.01    0.07
  -3   5   0    0.02    0.05
  -3  -5   0    0.01    0.09
  -3  -6   0    0.18    0.14
  -3   6   0    0.17    0.07
  -3   6   0   -0.03    0.08
  -3  -7   0   -0.02    0.13
  -3   7   0    0.01    0.08
  -3   8   0    0.06    0.11
  -4   0   0   45.23    2.38
  -4   0   0   45.75    2.38
  -4  -1   0   58.28    3.07
   4   1   0   61.08    3.05
  -4   1   0   57.71    3.06
  -4  -1   0   58.91    3.07
  -4   1   0   59.52    3.07
   4   2   0  593.92   28.13
  -4   2   0  512.42   28.15
  -4  -2   0  563.18   28.17
  -4   2   0  542.34   28.15
  -4   3   0   21.16    1.18
   4   3   0   23.65    1.14
  -4  -3   0   19.90    1.19
  -4   3   0   21.68    1.16
  -4   4   0   11.49    0.65
  -4  -4   0   11.35    0.70
   4   4   0   12.08    0.63
  -4   4   0   10.81    0.67
  -4   5   0   11.30    0.64
  -4   5   0   11.40    0.67
  -4  -5   0   10.78    0.72
  -4   6   0  105.93    5.51
  -4   6   0  110.46    5.47
  -4  -6   0  102.28    5.61
  -4  -7   0    1.20    0.28
  -4   7   0    1.87    0.22
  -4   8   0    0.25    0.14
  -4   9   0    1.49    0.24
  -5   0   0   -0.06    0.06
  -5   0   0   -0.02    0.06
  -5  -1   0   -0.01    0.06
  -5   1   0   -0.04    0.06
  -5   1   0   -0.05    0.06
  -5  -1   0    0.00    0.07
  -5  -2   0    0.05    0.07
  -5   2   0    0.07    0.07
  -5   2   0   -0.02    0.06
  -5   3   0    0.00    0.08
  -5   3   0    0.04    0.07
   5   3   0   -0.01    0.05
  -5  -3   0    0.06    0.08
  -5  -4   0   -0.02    0.09
   5   4   0    0.01    0.05
  -5   4   0    0.01    0.06
  -5   4   0    0.10    0.09
  -5   5   0   -0.03    0.09
  -5   5   0    0.03    0.08
  -5  -5   0   -0.02    0.12
  -5  -6   0    0.03    0.15
  -5   6   0    0.03    0.08
  -5   6   0    0.01    0.11
  -5  -7   0    0.23    0.19
  -5   7   0    0.09    0.11
  -5   8   0   -0.19    0.11
  -6   0   0   70.56    3.69
  -6   0   0   70.49    3.69
  -6  -1   0   58.57    3.05
  -6  -1   0   53.93    3.04
  -6   1   0   59.76    3.04
  -6   1   0   58.73    3.04
  -6  -2   0   15.34    0.94
  -6   2   0   16.55    0.95
  -6   2   0   17.19    0.94
  -6   3   0   36.52    1.95
  -6   3   0   35.86    1.93
  -6  -3   0   35.83    1.97
  -6   4   0   32.58    1.81
  -6   4   0   32.69    1.79
  -6  -4   0   34.62    1.85
  -6   5   0   24.02    1.31
  -6  -5   0   21.86    1.38
  -6   5   0   25.30    1.35
  -6   6   0    5.82    0.41
  -6   6   0    6.02    0.46
  -6  -6   0    5.79    0.54
  -6   7   0    5.24    0.43
  -6  -7   0    4.79    0.54
  -6   8   0    6.42    0.52
  -7   0   0   -0.05    0.09
  -7   0   0   -0.10    0.09
  -7  -1   0   -0.03    0.09
  -7   1   0   -0.01    0.08
  -7  -1   0   -0.03    0.09
  -7   1   0    0.10    0.10
  -7  -2   0   -0.12    0.08
  -7   2   0   -0.02    0.09
  -7   2   0   -0.04    0.08
  -7  -3   0   -0.16    0.08
  -7   3   0   -0.10    0.09
  -7   3   0   -0.04    0.08
  -7   4   0    0.00    0.10
  -7   4   0    0.00    0.09
  -7  -4   0   -0.07    0.11
  -7   5   0    0.06    0.12
  -7   5   0    0.04    0.10
  -7  -5   0    0.06    0.15
  -7  -6   0    0.01    0.16
  -7   6   0    0.01    0.12
  -7   6   0    0.02    0.10
  -7  -7   0    0.27    0.21
  -7   7   0    0.05    0.13
  -8   0   0   85.82    4.74
  -8   0   0   94.04    4.73
  -8  -1   0    0.48    0.16
  -8   1   0    0.36    0.13
  -8   1   0    0.42    0.16
  -8  -1   0    0.37    0.14
  -8   2   0    3.71    0.35
  -8   2   0    3.37    0.32
  -8  -2   0    3.81    0.36
  -8   3   0    0.36    0.15
  -8  -3   0    0.20    0.15
  -8   3   0    0.24    0.13
  -8  -4   0   51.20    2.75
  -8   4   0   48.45    2.70
  -8   4   0   49.71    2.67
  -8  -5   0    0.73    0.23
  -8   5   0    0.83    0.20
  -8   5   0    0.93    0.19
  -8  -6   0    0.69    0.25
  -8   6   0    0.94    0.22
  -9   0   0   -0.06    0.12
  -9   0   0    0.11    0.15
  -9   1   0    0.15    0.15
  -9   1   0    0.05    0.12
  -9  -1   0   -0.05    0.14
  -9  -2   0    0.03    0.13
  -9   2   0    0.05    0.14
  -9   2   0    0.04    0.13
  -9  -3   0   -0.05    0.14
  -9   3   0   -0.09    0.13
  -9   3   0    0.05    0.13
  -9   4   0   -0.07    0.15
  -9   4   0    0.02    0.13
  -9  -4   0    0.07    0.17
  -9   5   0   -0.01    0.17
  -9  -5   0    0.04    0.20
  -9   5   0    0.05    0.13
 -10   0   0    1.35    0.27
 -10   0   0    1.22    0.25
 -10   1   0    7.91    0.59
 -10  -1   0    7.69    0.61
 -10   1   0    7.71    0.64
 -10   2   0    7.76    0.59
 -10  -2   0    7.05    0.61
 -10   2   0    7.86    0.64
 -10   3   0    6.77    0.54
 -10   3   0    6.72    0.60
 -10  -3   0    6.73    0.60
   0   0  -1   -0.05    0.00
   0   0   1   -0.06    0.00
   0  -1   1  153.37    7.81
   0   1  -1  152.70    7.81
   0   2  -1    0.00    0.02
   0  -2   1    0.06    0.02
   0   2   1    0.08    0.06
   0   2   1    0.01    0.03
   0   2  -1    0.04    0.02
   0   3  -1   52.79    2.63
   0   3   1   48.22    2.69
   0   3   1   49.07    2.66
   0   3  -1   49.65    2.63
   0   3  -1   56.65    2.64
   0   4  -1    0.09    0.04
   0   4  -1    0.01    0.03
   0   4   1    0.00    0.05
   0   4   1   -0.14    0.05
   0   4   1   -0.06    0.08
   0   5   1   44.72    2.44
   0   5  -1   49.88    2.43
   0   5   1   45.48    2.46
   0   5  -1   45.95    2.43
   0   5   1   50.89    2.50
   0   5  -1   45.65    2.43
   0   6   1   -0.01    0.05
   0   6  -1    0.04    0.04
   0   6  -1    0.07    0.05
   0   6  -1    0.00    0.06
   0   6   1    0.03    0.06
   0   7  -1    4.50    0.30
   0   7   1    4.80    0.32
   0   7   1    4.70    0.33
  -1   0   1   26.60    1.45
   1   0   1   28.95    1.45
   1   0   1   27.15    1.46
  -1   0  -1   29.02    1.46
   1   0  -1   28.49    1.45
  -1  -1   1  117.47    5.88
  -1   1  -1  116.71    5.88
  -1   1  -1  109.05    5.89
  -1  -1   1  117.24    5.89
   1  -1  -1  122.49    5.90
   1  -1   1  113.63    5.89
   1   1  -1  116.27    5.87
   1   1  -1  116.37    5.89
  -1   1   1  112.73    5.90
  -1   1   1  110.41    5.89
   1  -1   1  118.74    5.88
  -1   2  -1  105.72    5.44
  -1  -2   1  109.86    5.45
  -1   2  -1  105.65    5.45
   1   2   1  114.14    5.48
   1  -2  -1  101.97    5.46
  -1  -2  -1  108.50    5.50
  -1   2   1  104.27    5.45
  -1   2   1  102.86    5.46
   1  -2   1  104.91    5.44
   1   2  -1  105.06    5.44
   1  -2   1  111.70    5.45
   1  -3  -1   56.83    3.17
  -1   3  -1   62.15    3.16
  -1   3  -1   62.21    3.14
  -1  -3   1   67.29    3.18
   1   3   1   66.73    3.19
   1   3  -1   64.10    3.15
   1  -3   1   66.36    3.16
  -1  -3  -1   53.66    3.22
  -1   3   1   59.34    3.16
   1  -3   1   57.25    3.15
  -1   3   1   61.81    3.16
   1   3  -1   59.34    3.13
  -1   4  -1   21.55    1.13
  -1   4  -1   20.80    1.11
   1   4   1   23.24    1.16
  -1   4   1   20.66    1.13
   1   4  -1   22.34    1.12
   1   4  -1   20.32    1.10
  -1   4   1   20.32    1.13
  -1   5  -1   23.73    1.25
  -1   5  -1   22.91    1.27
  -1   5  -1   23.70    1.29
   1   5   1   27.17    1.35
  -1   5   1   23.45    1.28
   1   5  -1   25.60    1.26
   1   5  -1   23.30    1.25
  -1   5   1   22.78    1.28
   1   6   1    6.43    0.43
  -1   6  -1    6.31    0.36
   1   6   1    7.07    0.39
  -1   6  -1    6.11    0.39
  -1   6   1    6.00    0.40
   1   6  -1    6.54    0.40
  -1   6   1    6.51    0.40
   1   6  -1    6.64    0.37
   1   7   1    9.06    0.52
   1   7   1    9.50    0.58
  -1   7  -1    9.32    0.54
  -1   7   1    8.57    0.54
  -1   7   1    8.79    0.53
  -1   8   1    3.59    0.30
  -2   0   1   55.66    2.88
  -2   0  -1   55.89    2.90
   2   0   1   57.61    2.89
   2   0  -1   55.99    2.89
  -2   0   1   56.11    2.89
  -2   0  -1   52.93    2.89
   2   0  -1   59.29    2.88
  -2  -1   1    0.03    0.02
  -2  -1   1    0.01    0.03
   2   1   1    0.04    0.04
   2   1   1    0.03    0.04
  -2   1  -1    0.00    0.03
  -2   1  -1    0.24    0.05
   2  -1  -1    0.08    0.03
   2   1  -1    0.00    0.02
   2  -1   1    0.00    0.03
  -2   1   1   -0.01    0.03
   2  -1   1    0.03    0.03
  -2   1   1    0.00    0.03
   2  -2  -1   44.99    2.29
  -2   2  -1   43.63    2.27
  -2   2  -1   40.67    2.28
   2  -2  -1   45.10    2.28
   2   2   1   48.08    2.29
  -2  -2   1   41.71    2.28
  -2  -2  -1   44.77    2.30
   2  -2   1   44.33    2.27
   2   2  -1   44.69    2.27
  -2   2   1   42.22    2.28
   2  -2   1   45.13    2.28
  -2   2   1   42.33    2.28
   2   2  -1   44.75    2.25
  -2   3  -1    2.88    0.21
  -2  -3   1    3.18    0.22
  -2   3  -1    3.08    0.19
   2  -3  -1    3.07    0.22
   2   3   1    3.42    0.23
   2  -3   1    3.30    0.23
  -2  -3  -1    3.04    0.26
  -2   3   1    3.10    0.21
   2   3  -1    3.18    0.20
  -2   3   1    3.26    0.21
   2  -3   1    2.92    0.20
   2  -4  -1   33.57    1.76
  -2  -4   1   33.52    1.78
  -2   4  -1   32.74    1.72
  -2   4  -1   32.89    1.74
   2  -4   1   33.40    1.73
  -2   4   1   31.54    1.74
  -2   4   1   33.46    1.75
  -2  -4  -1   32.19    1.83
   2   4  -1   32.93    1.70
   2   4  -1   35.23    1.73
  -2  -5   1    0.61    0.14
  -2   5  -1    0.59    0.07
  -2   5  -1    0.31    0.09
   2   5  -1    0.60    0.06
  -2  -5  -1    0.68    0.17
  -2   5   1    0.56    0.10
  -2   5   1    0.56    0.09
   2   5  -1    0.67    0.09
   2   6   1   11.28    0.59
  -2   6  -1   10.72    0.57
  -2   6  -1    9.79    0.61
  -2   6   1   10.21    0.61
  -2   6   1   10.23    0.60
   2   6  -1   10.51    0.56
  -2   7  -1    1.16    0.16
   2   7   1    1.09    0.19
  -2   7   1    1.29    0.16
  -2   7   1    0.99    0.15
  -2   8  -1    3.81    0.31
  -2   8   1    3.84    0.32
  -3   0   1    1.10    0.10
   3   0  -1    1.07    0.10
  -3   0  -1    0.68    0.10
   3   0  -1    1.03    0.09
   3   0   1    0.89    0.10
  -3   0   1    0.97    0.11
  -3   0  -1    0.92    0.10
   3   0   1    1.08    0.10
   3  -1  -1   81.72    4.17
   3   1   1   86.28    4.17
   3  -1  -1   86.83    4.18
  -3  -1   1   76.63    4.17
  -3   1  -1   79.48    4.17
  -3  -1   1   78.43    4.15
  -3   1  -1   77.60    4.16
   3   1   1   85.44    4.18
  -3  -1  -1   79.45    4.18
   3   1  -1   81.03    4.15
   3   1  -1   81.32    4.17
   3  -1   1   81.03    4.17
  -3   1   1   76.93    4.17
  -3   1   1   79.78    4.16
   3  -1   1   84.60    4.17
   3   2   1  128.75    6.19
  -3   2  -1  116.03    6.17
   3  -2  -1  122.85    6.19
  -3  -2   1  117.12    6.19
  -3   2  -1  121.14    6.19
  -3  -2  -1  120.21    6.21
   3   2  -1  120.03    6.15
  -3   2   1  119.54    6.19
  -3   2   1  116.91    6.18
   3   2  -1  123.30    6.19
   3  -2   1  122.47    6.18
  -3  -3   1   46.47    2.48
  -3   3  -1   46.05    2.46
  -3   3  -1   46.26    2.48
   3  -3  -1   51.28    2.52
  -3   3   1   47.03    2.48
  -3   3   1   46.08    2.47
   3   3  -1   48.62    2.43
  -3  -3  -1   46.39    2.51
   3  -3   1   49.59    2.47
  -3   4  -1    0.24    0.06
  -3   4  -1    0.12    0.07
  -3  -4   1    0.04    0.07
  -3   4   1    0.15    0.07
   3  -4   1    0.08    0.05
  -3  -4  -1   -0.01    0.09
  -3   4   1    0.14    0.06
  -3   5  -1   16.56    0.89
  -3   5  -1   16.50    0.93
  -3  -5   1   16.43    0.97
  -3   5   1   16.43    0.91
   3  -5   1   16.97    0.92
  -3  -5  -1   15.47    1.02
  -3   5   1   17.38    0.93
  -3  -6   1   21.73    1.36
  -3   6  -1   23.37    1.28
  -3   6  -1   23.86    1.23
  -3   6   1   23.84    1.25
  -3   6   1   23.16    1.28
  -3   7  -1    6.97    0.47
  -3   7   1    7.00    0.47
  -3   8  -1    0.07    0.10
  -3   8   1    0.10    0.10
  -4   0  -1    0.32    0.08
  -4   0   1    0.33    0.07
  -4   0   1    0.45    0.09
  -4   0  -1    0.36    0.09
  -4   1  -1   75.64    4.14
  -4   1  -1   82.39    4.15
  -4  -1   1   79.48    4.15
   4   1   1   86.13    4.14
  -4  -1   1   80.71    4.13
  -4  -1  -1   78.28    4.15
   4   1  -1   81.97    4.12
  -4   1   1   78.18    4.14
  -4   1   1   80.10    4.14
  -4   2  -1    0.19    0.08
  -4  -2   1    0.19    0.07
  -4   2  -1    0.01    0.08
   4   2   1    0.13    0.06
  -4   2   1    0.20    0.08
   4   2  -1    0.30    0.05
  -4   2   1    0.26    0.08
  -4  -2  -1    0.14    0.09
  -4  -3   1   62.64    3.31
  -4   3  -1   62.26    3.29
  -4   3  -1   61.89    3.31
   4   3   1   72.62    3.30
   4   3  -1   66.13    3.26
  -4   3   1   61.50    3.30
  -4   3   1   58.79    3.30
  -4  -3  -1   62.50    3.33
  -4   4  -1    0.09    0.06
  -4   4  -1    0.12    0.08
   4   4   1    0.11    0.06
  -4  -4   1    0.09    0.08
   4   4  -1    0.06    0.03
  -4  -4  -1    0.22    0.10
  -4   4   1    0.06    0.07
  -4   4   1    0.18    0.07
  -4  -5   1   14.33    0.85
  -4   5  -1   12.88    0.81
  -4   5  -1   14.08    0.77
  -4  -5  -1   14.00    0.89
  -4   5   1   14.22    0.81
  -4   5   1   14.27    0.79
  -4   6  -1    0.05    0.10
  -4  -6   1    0.14    0.14
  -4   6  -1    0.20    0.08
  -4   6   1    0.30    0.09
  -4  -6  -1    0.29    0.19
  -4   6   1    0.06    0.10
  -4   7  -1   12.26    0.69
  -4  -7   1    9.17    0.89
  -4  -7  -1    8.47    0.78
  -4   7   1   12.24    0.68
  -4   8  -1    0.05    0.12
  -4   8   1   -0.01    0.10
  -4   9   1    0.73    0.18
  -5   0   1    8.46    0.50
  -5   0  -1    8.03    0.51
  -5   0  -1    8.18    0.50
  -5   0   1    7.28    0.48
  -5  -1   1   18.11    1.07
  -5  -1   1   18.61    1.08
  -5   1  -1   20.28    1.09
  -5   1  -1   19.46    1.08
  -5  -1  -1   19.72    1.09
  -5   1   1   20.22    1.08
  -5   1   1   20.85    1.08
  -5   2  -1   27.88    1.45
  -5   2  -1   26.95    1.43
  -5  -2   1   26.58    1.44
  -5   2   1   25.56    1.43
   5   2  -1   28.37    1.40
  -5  -2  -1   25.31    1.45
  -5   2   1   25.41    1.43
  -5   3  -1   10.90    0.63
  -5  -3   1   10.44    0.65
  -5   3  -1   10.85    0.66
  -5  -3  -1   10.54    0.67
  -5   3   1   10.67    0.64
  -5   3   1   10.31    0.64
   5   3  -1   11.89    0.60
  -5  -4   1    2.09    0.23
   5   4   1    2.56    0.26
  -5   4  -1    2.40    0.23
  -5   4  -1    1.98    0.19
  -5   4   1    1.75    0.19
   5   4  -1    2.39    0.16
  -5  -4  -1    2.20    0.26
  -5   4   1    1.55    0.19
  -5   5  -1    6.73    0.46
  -5   5  -1    6.54    0.42
  -5  -5   1    6.44    0.49
  -5  -5  -1    7.14    0.54
  -5   5   1    6.71    0.44
  -5   5   1    6.87    0.46
  -5  -6   1    7.79    0.60
  -5   6  -1    7.73    0.48
  -5   6  -1    7.80    0.54
  -5   6   1    8.33    0.50
  -5   6   1    8.10    0.54
  -5  -6  -1    7.70    0.65
  -5   7  -1    1.17    0.21
  -5  -7   1    1.63    0.35
  -5  -7  -1    1.28    0.31
  -5   7   1    1.51    0.21
  -5   8  -1    0.42    0.16
  -5   8   1    0.52    0.17
  -6   0   1   19.28    1.09
  -6   0   1   19.90    1.08
  -6   0  -1   20.02    1.09
  -6   0  -1   17.90    1.10
  -6   1  -1    1.66    0.20
  -6  -1   1    1.95    0.20
  -6  -1   1    1.75    0.21
  -6   1  -1    1.79    0.22
  -6   1   1    1.55    0.19
  -6   1   1    1.70    0.20
  -6  -1  -1    1.82    0.22
  -6   2  -1   25.15    1.35
  -6   2  -1   23.36    1.31
  -6  -2   1   23.56    1.33
  -6  -2  -1   24.66    1.35
  -6   2   1   22.81    1.32
  -6   2   1   24.44    1.32
  -6  -3   1    0.21    0.10
  -6   3  -1    0.22    0.09
  -6   3  -1    0.27    0.12
  -6   3   1    0.17    0.10
  -6  -3  -1    0.30    0.13
  -6   3   1    0.27    0.11
  -6   4  -1    9.91    0.63
  -6   4  -1    9.34    0.59
  -6  -4   1   10.09    0.64
  -6  -4  -1    9.34    0.66
  -6   4   1    9.34    0.61
  -6   4   1    9.52    0.59
  -6   5  -1    1.70    0.20
  -6   5  -1    1.61    0.23
  -6  -5   1    1.38    0.24
  -6   5   1    1.98    0.22
  -6   5   1    1.89    0.24
  -6  -5  -1    1.39    0.27
  -6  -6   1    6.16    0.55
  -6   6  -1    7.07    0.51
  -6   6  -1    6.48    0.50
  -6   6   1    7.08    0.46
  -6   6   1    6.56    0.50
  -6  -6  -1    6.40    0.60
  -6   7  -1    0.02    0.12
  -6  -7   1    0.21    0.31
  -6   7   1   -0.01    0.12
  -6  -7  -1    0.04    0.20
  -6   8  -1    1.23    0.25
  -6   8   1    1.29    0.24
  -7   0  -1   26.30    1.58
  -7   0  -1   28.48    1.57
  -7   0   1   28.40    1.56
  -7   0   1   29.65    1.57
  -7   1  -1    2.42    0.25
  -7  -1   1    2.67    0.27
  -7   1  -1    2.14    0.27
  -7  -1   1    2.30    0.26
  -7   1   1    2.59    0.25
  -7  -1  -1    3.23    0.29
  -7   1   1    1.82    0.23
  -7   2  -1    0.17    0.12
  -7   2  -1    0.20    0.11
  -7  -2   1    0.14    0.10
  -7  -2  -1    0.36    0.13
  -7   2   1    0.28    0.12
  -7   2   1    0.20    0.11
  -7   3  -1    1.66    0.23
  -7  -3   1    1.10    0.21
  -7   3  -1    1.34    0.19
  -7  -3  -1    1.33    0.23
  -7   3   1    1.35    0.21
  -7   3   1    0.89    0.17
  -7  -4   1   13.78    0.89
  -7   4  -1   13.97    0.88
  -7   4  -1   14.73    0.84
  -7  -4  -1   13.22    0.90
  -7   4   1   14.93    0.88
  -7   4   1   14.57    0.85
  -7  -5   1    0.66    0.20
  -7   5  -1    1.39    0.22
  -7   5  -1    1.18    0.18
  -7   5   1    0.91    0.19
  -7  -5  -1    1.40    0.28
  -7   5   1    1.09    0.18
  -7  -6   1    0.05    0.15
  -7   6  -1    0.14    0.14
  -7   6   1    0.15    0.14
  -7   6   1    0.03    0.11
  -7  -6  -1    0.04    0.18
  -7   7  -1    0.10    0.15
  -7  -7  -1    0.35    0.25
  -7   7   1    0.21    0.15
  -8   0   1    1.30    0.22
  -8   0  -1    1.07    0.23
  -8   0  -1    1.48    0.23
  -8   0   1    1.16    0.20
  -8  -1   1   16.63    1.05
  -8   1  -1   18.21    1.05
  -8  -1   1   17.86    1.06
  -8   1  -1   17.42    1.08
  -8   1   1   17.97    1.05
  -8  -1  -1   18.53    1.07
  -8   1   1   16.51    1.04
  -8   2  -1    0.17    0.15
  -8   2  -1    0.19    0.12
  -8  -2   1    0.18    0.13
  -8   2   1    0.14    0.12
  -8  -2  -1    0.26    0.14
  -8   2   1    0.11    0.13
  -8   3  -1    9.60    0.64
  -8  -3   1    9.58    0.67
  -8   3  -1    9.21    0.68
  -8  -3  -1    9.61    0.70
  -8   3   1   10.24    0.65
  -8   3   1   10.47    0.67
  -8  -4   1    0.80    0.21
  -8   4  -1    0.57    0.16
  -8   4  -1    0.55    0.19
  -8  -4  -1    0.85    0.24
  -8   4   1    0.76    0.18
  -8   4   1    0.72    0.19
  -8   5  -1    7.95    0.52
  -8  -5   1    6.87    0.59
  -8   5  -1    7.78    0.59
  -8  -5  -1    6.22    0.61
  -8   5   1    7.56    0.53
  -8   5   1    7.54    0.57
  -8   6  -1   -0.03    0.14
  -8  -6   1    0.03    0.17
  -8  -6  -1   -0.03    0.19
  -8   6   1    0.02    0.12
  -8   6   1   -0.05    0.13
  -9   0   1    6.27    0.49
  -9   0  -1    4.77    0.49
  -9   0  -1    6.59    0.51
  -9   0   1    5.66    0.49
  -9  -1   1    8.31    0.65
  -9   1  -1   10.20    0.66
  -9  -1   1    9.75    0.66
  -9   1  -1    8.05    0.67
  -9  -1  -1    8.86    0.65
  -9   1   1    9.74    0.66
  -9   1   1    9.42    0.64
  -9   2  -1    0.03    0.13
  -9   2  -1    0.13    0.15
  -9  -2   1   -0.03    0.12
  -9  -2  -1   -0.02    0.15
  -9   2   1    0.13    0.14
  -9   2   1   -0.02    0.13
  -9   3  -1    8.06    0.62
  -9  -3   1    6.99    0.59
  -9   3  -1    8.51    0.58
  -9   3   1    8.19    0.57
  -9  -3  -1    7.42    0.61
  -9   3   1    7.50    0.59
  -9   4  -1    3.45    0.35
  -9  -4   1    3.44    0.41
  -9  -4  -1    3.56    0.46
  -9   4   1    3.58    0.36
  -9   4   1    4.09    0.41
  -9   5  -1    3.36    0.33
  -9   5  -1    2.94    0.40
  -9  -5   1    3.78    0.45
  -9  -5  -1    3.35    0.47
  -9   5   1    2.43    0.35
  -9   5   1    3.59    0.35
 -10   0  -1    4.68    0.46
 -10   0   1    4.75    0.45
 -10   0   1    4.87    0.48
 -10  -1   1    0.53    0.19
 -10   1  -1    0.73    0.22
 -10   1  -1    0.63    0.23
 -10  -1  -1    0.48    0.20
 -10   1   1    0.71    0.22
 -10   1   1    0.70    0.20
 -10   2  -1    2.14    0.31
 -10   2  -1    2.40    0.39
 -10  -2   1    2.27    0.34
 -10  -2  -1    2.23    0.34
 -10   2   1    2.71    0.37
 -10   2   1    2.60    0.33
 -10   3  -1    1.12    0.24
 -10  -3   1    1.15    0.27
 -10   3  -1    0.89    0.27
 -10  -3  -1    0.98    0.28
 -10   3   1    1.05    0.23
 -10   3   1    1.00    0.26
   0   0   2   37.46    1.93
   0   1   2   -0.03    0.04
   0  -1   2   -0.04    0.02
   0   1   2   -0.05    0.05
   0   1  -2   -0.01    0.02
   0   2   2  348.58   18.70
   0   2  -2  375.98   18.68
   0  -2   2  376.36   18.67
   0  -3   2   -0.02    0.03
   0   3   2   -0.03    0.07
   0   3   2   -0.01    0.05
   0   4  -2    3.07    0.17
   0   4  -2    3.05    0.19
   0   4  -2    3.05    0.17
   0   4   2    2.94    0.24
   0   4   2    2.86    0.28
   0   5   2    0.02    0.05
   0   5  -2    0.00    0.02
   0   5  -2    0.04    0.03
   0   5  -2   -0.03    0.04
   0   5   2    0.02    0.06
   0   6  -2   41.56    2.18
   0   6   2   41.99    2.23
   0   6   2   42.10    2.20
   0   7  -2    0.05    0.07
   0   7   2    0.09    0.09
   0   7   2   -0.09    0.07
   0   8   2   -0.04    0.12
  -1   0  -2  204.81   10.58
   1   0  -2  198.32   10.57
   1   0   2  224.88   10.58
  -1   0   2  201.71   10.57
   1   1   2  129.53    6.15
  -1   1  -2  113.81    6.13
   1  -1  -2  117.79    6.13
  -1  -1   2  117.21    6.11
  -1   1  -2  120.75    6.11
   1  -1   2  121.70    6.11
  -1   1   2  111.13    6.12
   1   1  -2  120.57    6.11
   1  -1   2  127.13    6.13
  -1   2  -2  139.51    7.11
  -1   2  -2  141.80    7.08
  -1  -2   2  140.47    7.09
   1   2   2  154.17    7.15
   1  -2  -2  132.91    7.12
  -1  -2  -2  127.20    7.17
   1   2  -2  141.13    7.09
   1  -2   2  147.45    7.11
  -1   2   2  127.16    7.11
   1  -2   2  140.32    7.08
  -1   3  -2   48.23    2.50
   1   3   2   52.99    2.55
   1  -3  -2   43.62    2.52
  -1  -3   2   50.17    2.49
  -1   3  -2   47.57    2.47
   1   3  -2   51.60    2.47
   1  -3   2   50.94    2.50
   1   3  -2   49.08    2.48
  -1   3   2   46.30    2.51
   1  -3   2   44.06    2.47
   1   4   2   75.94    3.55
  -1  -4   2   63.63    3.50
  -1   4  -2   66.86    3.47
  -1   4  -2   66.13    3.45
  -1   4  -2   66.15    3.48
   1   4  -2   69.18    3.46
   1   4  -2   68.42    3.46
  -1   4   2   66.79    3.50
   1  -4   2   71.01    3.49
  -1   4   2   63.23    3.49
  -1   5  -2   43.86    2.24
  -1   5  -2   42.12    2.28
  -1   5   2   43.46    2.29
  -1   5   2   43.91    2.30
   1   5  -2   45.08    2.25
   1   5  -2   44.21    2.25
   1   6   2   22.16    1.26
   1   6   2   22.92    1.20
  -1   6  -2   21.99    1.20
  -1   6   2   22.17    1.22
   1   6  -2   22.97    1.17
  -1   6   2   21.97    1.21
   1   6  -2   22.25    1.19
   1   7   2    3.88    0.33
   1   7   2    4.18    0.28
  -1   7  -2    3.68    0.28
  -1   7   2    3.82    0.29
  -1   7   2    4.05    0.30
  -1   8   2    6.44    0.44
  -2   0  -2  127.93    6.38
   2   0   2  130.50    6.38
  -2   0   2  122.68    6.37
  -2   0   2  119.77    6.38
   2   0  -2  122.79    6.38
  -2  -1   2   19.25    1.05
  -2   1  -2   20.66    1.09
  -2  -1   2   19.61    1.07
   2   1   2   22.36    1.10
   2  -1  -2   20.27    1.09
  -2   1  -2   18.91    1.07
   2  -1   2   20.49    1.08
   2  -1   2   20.51    1.07
  -2  -1  -2   20.20    1.10
  -2   1   2   19.56    1.07
   2   1  -2   19.48    1.07
  -2   2  -2   20.88    1.14
  -2  -2   2   20.35    1.13
   2  -2  -2   21.98    1.15
  -2   2  -2   20.57    1.12
   2   2   2   23.66    1.16
   2  -2   2   23.02    1.14
   2  -2   2   21.31    1.12
  -2   2   2   20.29    1.14
   2   2  -2   21.97    1.13
  -2  -2  -2   22.05    1.18
  -2   2   2   20.26    1.13
   2  -3  -2    4.36    0.29
  -2  -3   2    4.45    0.27
   2   3   2    4.74    0.33
  -2   3  -2    4.15    0.28
  -2   3  -2    4.23    0.25
  -2   3   2    3.92    0.28
   2  -3   2    4.17    0.25
  -2   3   2    3.85    0.27
  -2  -3  -2    4.42    0.35
   2   3  -2    4.08    0.26
   2  -3   2    5.57    0.31
  -2  -4   2   28.33    1.48
  -2   4  -2   28.96    1.48
  -2   4  -2   27.76    1.44
  -2   4   2   27.68    1.48
  -2  -4  -2   24.76    1.57
  -2   4   2   27.37    1.48
   2   4  -2   28.92    1.46
   2  -4   2   28.41    1.45
  -2   5  -2    1.02    0.09
  -2  -5   2    1.02    0.16
  -2   5  -2    0.97    0.13
  -2   5   2    1.19    0.14
  -2   5   2    1.20    0.13
   2   5  -2    1.11    0.11
  -2  -5  -2    0.82    0.20
  -2   6  -2    5.82    0.32
  -2   6  -2    6.05    0.38
  -2   6   2    5.64    0.38
  -2   6   2    5.65    0.37
  -2   7  -2    0.14    0.09
   2   7   2    0.04    0.07
   2   7   2    0.09    0.11
  -2   7   2    0.05    0.09
  -2   7   2    0.03    0.07
  -2   8  -2    2.80    0.28
  -2   8   2    3.13    0.28
  -3   0  -2   98.40    5.66
   3   0  -2  108.25    5.63
  -3   0   2  105.79    5.63
  -3   0  -2  109.27    5.65
   3   0  -2  113.47    5.65
   3   0   2  122.44    5.65
  -3   0   2  107.18    5.64
   3   0   2  115.55    5.65
  -3  -1   2   59.94    3.18
   3   1   2   63.70    3.20
   3  -1  -2   67.17    3.20
   3  -1  -2   64.25    3.18
  -3  -1   2   59.64    3.16
  -3   1  -2   59.81    3.18
   3   1   2   70.18    3.21
  -3   1   2   56.68    3.17
   3   1  -2   61.04    3.16
   3  -1   2   59.41    3.19
  -3   1   2   60.59    3.19
   3   1  -2   62.58    3.18
   3  -1   2   62.69    3.18
  -3  -1  -2   55.89    3.19
  -3  -2   2   68.06    3.57
  -3   2  -2   68.33    3.56
  -3  -2   2   69.37    3.55
  -3   2  -2   67.70    3.58
  -3  -2  -2   68.60    3.61
   3   2  -2   69.12    3.54
   3  -2   2   73.32    3.57
  -3   2   2   66.11    3.57
  -3   2   2   68.90    3.58
   3   2  -2   72.66    3.57
  -3   3  -2   59.99    3.34
  -3   3  -2   62.52    3.31
  -3  -3   2   64.69    3.34
  -3   3   2   64.31    3.34
   3   3  -2   67.06    3.33
  -3  -3  -2   64.92    3.40
  -3   3   2   64.57    3.34
   3  -3   2   67.32    3.32
  -3   4  -2   38.67    2.01
  -3  -4   2   39.52    2.05
  -3   4  -2   38.48    2.04
  -3  -4  -2   38.66    2.14
   3  -4   2   40.15    2.02
  -3   4   2   35.93    2.04
  -3   4   2   39.35    2.04
  -3   5  -2   14.28    0.77
  -3   5  -2   14.67    0.83
  -3  -5   2   14.40    0.85
   3  -5   2   15.15    0.80
  -3   5   2   14.08    0.82
  -3   5   2   15.08    0.81
  -3  -5  -2   12.98    0.93
  -3  -6   2   11.03    0.76
  -3   6  -2   11.94    0.71
  -3   6  -2   12.22    0.65
  -3   6   2   12.17    0.71
  -3   6   2   12.20    0.69
  -3   7  -2   14.45    0.84
  -3   7   2   14.22    0.84
  -3   7   2   14.26    0.82
  -3   8  -2    5.35    0.39
  -3   8   2    4.47    0.38
  -3   9   2    0.55    0.16
  -4   0  -2   41.05    2.22
  -4   0   2   41.34    2.18
  -4   0  -2   42.54    2.20
  -4   0   2   42.01    2.19
  -4  -1   2   17.71    0.98
  -4   1  -2   18.40    1.00
  -4   1  -2   16.92    0.97
  -4  -1   2   18.02    0.96
  -4   1   2   17.79    0.98
  -4  -1  -2   17.33    0.99
   4   1  -2   18.35    0.95
  -4   1   2   18.85    0.98
  -4   2  -2   11.21    0.64
  -4  -2   2   10.46    0.62
  -4  -2   2   11.20    0.65
  -4   2  -2   11.63    0.67
  -4  -2  -2   11.07    0.67
  -4   2   2   11.67    0.65
   4   2  -2   11.48    0.61
  -4   2   2   11.77    0.65
   4   3   2   10.71    0.59
  -4  -3   2    9.84    0.57
  -4   3  -2    9.31    0.54
  -4   3  -2    8.75    0.57
  -4   3   2    9.05    0.56
  -4   3   2    9.47    0.56
  -4  -3  -2    9.62    0.61
   4   3  -2    9.71    0.51
  -4   4  -2   16.96    0.99
  -4   4  -2   17.77    0.95
  -4  -4   2   16.73    0.98
  -4  -4  -2   17.94    1.06
  -4   4   2   18.03    0.98
  -4   4   2   17.88    0.97
  -4   5  -2    2.51    0.24
  -4  -5   2    2.12    0.24
  -4   5  -2    2.08    0.18
  -4  -5  -2    2.26    0.32
  -4   5   2    2.45    0.21
  -4   5   2    2.20    0.22
  -4   6  -2    3.25    0.28
  -4   6  -2    2.88    0.27
  -4  -6   2    2.44    0.29
  -4   6   2    2.87    0.24
  -4   6   2    2.68    0.26
  -4  -6  -2    2.41    0.38
  -4   7  -2    1.36    0.20
  -4   7   2    1.33    0.20
  -4  -7  -2    0.86    0.27
  -4   7   2    1.50    0.20
  -4   8  -2    2.82    0.31
  -4   8   2    2.73    0.30
  -4   9   2    0.04    0.13
  -5   0  -2   76.78    3.74
  -5   0   2   72.68    3.73
  -5   0   2   73.56    3.71
  -5   0  -2   63.41    3.75
  -5  -1   2   30.07    1.55
  -5   1  -2   28.25    1.57
  -5  -1   2   28.50    1.57
  -5   1  -2   30.47    1.60
  -5  -1  -2   27.11    1.58
  -5   1   2   30.35    1.57
  -5   1   2   30.20    1.58
  -5  -2   2   69.27    3.70
  -5  -2   2   69.34    3.72
  -5   2  -2   71.98    3.71
  -5   2  -2   74.48    3.74
   5   2  -2   73.19    3.67
  -5   2   2   71.92    3.72
  -5  -2  -2   70.82    3.75
  -5   2   2   70.67    3.71
  -5   3  -2   28.81    1.54
  -5  -3   2   28.23    1.56
  -5   3   2   28.91    1.56
  -5  -3  -2   29.11    1.60
   5   3  -2   29.53    1.50
  -5   3   2   28.12    1.55
  -5  -4   2   31.23    1.69
  -5   4  -2   30.54    1.65
  -5   4  -2   30.83    1.69
  -5   4   2   31.83    1.67
  -5  -4  -2   31.78    1.75
  -5   4   2   29.84    1.67
  -5   5  -2    5.71    0.38
  -5  -5   2    6.11    0.44
  -5   5  -2    6.34    0.44
  -5   5   2    5.97    0.43
  -5   5   2    6.01    0.40
  -5  -5  -2    5.62    0.51
  -5  -6   2   14.24    0.93
  -5   6  -2   15.60    0.90
  -5   6   2   14.98    0.89
  -5   6   2   15.20    0.86
  -5  -6  -2   13.68    1.01
  -5   7  -2    6.67    0.49
  -5  -7  -2    5.18    0.61
  -5   7   2    7.35    0.49
  -5   8  -2    2.86    0.33
  -5   8   2    2.80    0.32
  -6   0   2    5.62    0.39
  -6   0  -2    6.40    0.42
  -6   0   2    5.61    0.40
  -6   0  -2    5.43    0.43
  -6  -1   2    0.05    0.07
  -6  -1   2    0.11    0.10
  -6   1  -2    0.03    0.08
  -6   1  -2   -0.03    0.09
  -6  -1  -2    0.04    0.10
  -6   1   2    0.08    0.08
  -6   1   2    0.03    0.08
  -6  -2   2   10.72    0.67
  -6   2  -2   11.66    0.71
  -6  -2   2   10.08    0.65
  -6   2  -2   11.04    0.66
  -6  -2  -2   11.70    0.71
  -6   2   2   10.74    0.67
  -6   2   2   12.02    0.68
  -6   3  -2    0.00    0.08
  -6  -3   2   -0.10    0.08
  -6   3  -2    0.07    0.09
  -6   3   2    0.11    0.10
  -6  -3  -2    0.01    0.10
  -6   3   2    0.08    0.09
  -6   4  -2    4.55    0.32
  -6   4  -2    4.59    0.38
  -6  -4   2    3.99    0.36
  -6   4   2    4.18    0.35
  -6   4   2    4.19    0.33
  -6  -4  -2    4.03    0.40
  -6  -5   2    0.01    0.11
  -6   5  -2    0.12    0.09
  -6   5  -2    0.09    0.12
  -6   5   2    0.05    0.10
  -6  -5  -2    0.05    0.15
  -6   5   2    0.05    0.10
  -6   6  -2    3.28    0.33
  -6  -6   2    2.91    0.35
  -6  -6  -2    2.35    0.39
  -6   6   2    2.80    0.31
  -6   6   2    3.04    0.28
  -6   7  -2   -0.04    0.13
  -6   7   2   -0.07    0.12
  -6  -7  -2    0.28    0.23
  -6   8  -2    1.04    0.23
  -6   8   2    0.77    0.21
  -7   0  -2   12.53    0.89
  -7   0   2   15.29    0.86
  -7   0  -2   15.61    0.89
  -7   0   2   14.74    0.87
  -7   1  -2   24.61    1.39
  -7  -1   2   24.89    1.37
  -7  -1   2   24.91    1.39
  -7   1  -2   22.60    1.41
  -7  -1  -2   25.35    1.41
  -7   1   2   26.30    1.38
  -7   1   2   24.66    1.38
  -7  -2   2   17.77    0.97
  -7  -2   2   15.31    0.94
  -7   2  -2   15.56    0.99
  -7   2  -2   16.25    0.95
  -7  -2  -2   16.24    0.99
  -7   2   2   15.95    0.95
  -7   2   2   16.43    0.95
  -7   3  -2   13.22    0.80
  -7  -3   2   14.01    0.84
  -7   3  -2   13.56    0.85
  -7   3   2   13.52    0.81
  -7  -3  -2   13.42    0.87
  -7   3   2   12.96    0.82
  -7   4  -2    5.98    0.42
  -7  -4   2    5.77    0.47
  -7   4  -2    5.77    0.48
  -7   4   2    5.80    0.45
  -7   4   2    5.63    0.44
  -7  -4  -2    6.20    0.51
  -7  -5   2   11.82    0.79
  -7   5  -2   11.50    0.71
  -7   5  -2   12.38    0.79
  -7  -5  -2   10.91    0.84
  -7   5   2   12.43    0.76
  -7   5   2   11.66    0.73
  -7  -6   2    3.59    0.42
  -7   6  -2    4.07    0.40
  -7   6   2    4.58    0.36
  -7  -6  -2    3.01    0.47
  -7   6   2    3.93    0.38
  -7   7  -2    1.82    0.28
  -7  -7  -2    1.47    0.37
  -7   7   2    2.10    0.29
  -8   0  -2    3.21    0.34
  -8   0   2    3.68    0.34
  -8   0   2    3.56    0.33
  -8   1  -2    0.75    0.21
  -8   1  -2    0.96    0.20
  -8  -1   2    1.09    0.21
  -8  -1   2    0.90    0.18
  -8   1   2    0.95    0.18
  -8  -1  -2    0.83    0.19
  -8   1   2    0.91    0.18
  -8  -2   2    2.55    0.29
  -8  -2   2    2.45    0.29
  -8   2  -2    2.89    0.30
  -8   2   2    2.92    0.30
  -8   2   2    3.00    0.30
  -8  -2  -2    2.84    0.33
  -8  -3   2    1.21    0.23
  -8   3  -2    1.04    0.19
  -8   3  -2    0.90    0.22
  -8  -3  -2    1.33    0.26
  -8   3   2    1.19    0.20
  -8   3   2    1.48    0.23
  -8  -4   2    1.57    0.26
  -8   4  -2    1.54    0.27
  -8   4  -2    1.57    0.22
  -8   4   2    1.73    0.26
  -8  -4  -2    1.48    0.28
  -8   4   2    1.43    0.22
  -8  -5   2    0.28    0.17
  -8   5  -2    0.45    0.14
  -8   5  -2    0.43    0.19
  -8  -5  -2    0.11    0.21
  -8   5   2    0.23    0.15
  -8   5   2    0.32    0.14
  -8  -6   2    0.99    0.26
  -8   6  -2    1.15    0.26
  -8   6   2    1.25    0.24
  -8  -6  -2    0.86    0.30
  -8   6   2    1.27    0.21
  -9   0   2   18.52    1.10
  -9   0   2   16.31    1.08
  -9   0  -2   19.16    1.12
  -9   1  -2    3.26    0.42
  -9  -1   2    4.03    0.39
  -9  -1   2    4.73    0.42
  -9   1  -2    4.17    0.40
  -9   1   2    4.29    0.40
  -9  -1  -2    4.35    0.42
  -9   1   2    4.38    0.40
  -9   2  -2   12.05    0.85
  -9  -2   2   11.93    0.79
  -9   2  -2   11.35    0.77
  -9   2   2   11.75    0.77
  -9  -2  -2   12.21    0.82
  -9   2   2   12.05    0.78
  -9   3  -2    2.57    0.31
  -9  -3   2    2.11    0.30
  -9   3  -2    2.54    0.38
  -9   3   2    1.92    0.27
  -9  -3  -2    1.99    0.33
  -9   3   2    1.84    0.28
  -9  -4   2   10.11    0.72
  -9   4  -2    9.12    0.64
  -9   4  -2   10.29    0.75
  -9   4   2    8.95    0.65
  -9  -4  -2    8.79    0.74
  -9   4   2   10.13    0.69
  -9   5  -2    1.79    0.32
  -9  -5   2    2.47    0.36
  -9   5  -2    2.46    0.32
  -9  -5  -2    1.90    0.38
  -9   5   2    2.26    0.29
  -9   5   2    1.94    0.30
 -10   0   2    0.22    0.15
 -10   0  -2    0.29    0.19
 -10   0   2    0.27    0.17
 -10  -1   2    0.13    0.15
 -10  -1   2    0.13    0.16
 -10   1  -2    0.01    0.16
 -10   1   2    0.01    0.13
 -10  -1  -2   -0.01    0.16
 -10   1   2   -0.08    0.14
 -10   2  -2    1.76    0.33
 -10  -2   2    1.76    0.30
 -10   2  -2    1.38    0.25
 -10  -2  -2    2.35    0.36
 -10   2   2    1.29    0.27
 -10   2   2    1.58    0.27
 -10   3  -2    0.00    0.14
 -10   3  -2   -0.09    0.18
 -10  -3   2    0.21    0.19
 -10   3   2    0.02    0.14
 -10  -3  -2   -0.13    0.17
 -10   3   2   -0.11    0.15
   0   0   3   -0.12    0.04
   0   0   3   -0.25    0.05
   0   1   3   73.08    3.99
   0  -1   3   81.80    3.97
   0  -2   3   -0.07    0.03
   0   2   3    0.06    0.06
   0  -2   3   -0.03    0.03
   0   2   3   -0.06    0.07
   0  -2   3   -0.04    0.01
   0   3  -3   63.85    3.34
   0   3   3   61.52    3.37
   0  -3   3   68.97    3.32
   0  -4   3   -0.03    0.03
   0   4   3    0.04    0.07
   0   4  -3   -0.01    0.04
   0   5   3   33.38    1.82
   0   5  -3   34.07    1.76
   0   6   3    0.01    0.08
   0   6   3   -0.05    0.07
   0   6  -3   -0.06    0.06
   0   7   3   10.41    0.62
   0   7   3   10.41    0.66
   0   8   3   -0.05    0.09
   1   0   3  484.57   21.42
  -1   0   3  356.92   21.39
  -1   0  -3  420.32   21.43
  -1   1  -3   46.84    2.47
  -1  -1   3   47.06    2.45
   1   1   3   48.35    2.51
   1  -1  -3   48.05    2.47
   1   1  -3   50.16    2.46
  -1   1   3   43.78    2.47
  -1  -1  -3   41.06    2.51
   1  -1   3   47.73    2.48
   1  -1   3   53.46    2.46
   1   2   3   94.64    4.67
  -1   2  -3   83.57    4.61
  -1   2  -3   88.08    4.59
  -1  -2   3   89.23    4.59
   1  -2  -3   89.54    4.63
   1   2  -3   93.85    4.59
   1  -2   3   92.58    4.58
   1  -2   3   95.72    4.61
  -1   2   3   81.24    4.62
  -1  -3   3   29.30    1.52
   1  -3  -3   26.26    1.57
  -1  -3   3   30.18    1.50
   1   3   3   31.15    1.62
  -1   3  -3   30.08    1.55
  -1   3   3   27.61    1.56
   1  -3   3   30.07    1.54
   1   3  -3   30.33    1.52
  -1  -4   3  171.03    8.54
  -1   4  -3  162.44    8.55
   1   4  -3  168.30    8.51
   1  -4   3  174.48    8.54
  -1   4   3  159.64    8.57
  -1   5  -3   10.35    0.58
   1   5   3    9.76    0.64
   1   5  -3   10.53    0.54
  -1   5   3   10.53    0.60
  -1   5   3    9.69    0.61
   1   6   3   10.63    0.66
  -1   6  -3    9.52    0.58
  -1   6   3    9.55    0.59
  -1   6   3    9.65    0.61
   1   6  -3   10.16    0.53
   1   6  -3   10.20    0.55
   1   7   3    4.35    0.30
  -1   7  -3    3.42    0.29
   1   7   3    3.94    0.35
  -1   7   3    3.87    0.31
  -1   7   3    3.93    0.30
  -1   8   3   23.96    1.33
  -2   0   3  105.16    5.64
   2   0   3  118.54    5.65
   2   0  -3  109.76    5.65
  -2   0  -3  107.06    5.66
  -2  -1   3    1.19    0.11
  -2  -1   3    1.16    0.09
   2  -1  -3    1.16    0.12
  -2   1  -3    1.22    0.12
   2   1  -3    1.56    0.12
  -2  -1  -3    1.16    0.15
   2  -1   3    1.29    0.13
   2  -1   3    1.32    0.11
  -2   1   3    1.45    0.13
  -2  -2   3   92.81    4.78
  -2   2  -3   91.43    4.81
  -2   2  -3   88.47    4.84
  -2  -2   3   92.10    4.81
   2   2   3  104.34    4.86
   2  -2  -3   95.04    4.84
   2   2  -3   95.52    4.81
  -2  -2  -3   91.60    4.89
   2  -2   3  100.01    4.83
   2  -2   3   93.86    4.80
  -2   2   3   88.18    4.83
  -2  -3   3    0.15    0.05
  -2   3  -3    0.26    0.05
  -2   3  -3    0.18    0.07
  -2   3   3    0.33    0.08
  -2   3   3    0.16    0.06
  -2  -3  -3    0.17    0.10
   2   3  -3    0.31    0.05
   2  -3   3    0.24    0.04
  -2   4  -3   45.87    2.27
  -2   4  -3   44.69    2.32
  -2  -4   3   45.32    2.30
  -2  -4  -3   36.80    2.42
  -2   4   3   44.74    2.33
   2   4  -3   46.23    2.29
  -2   4   3   42.83    2.32
   2  -4   3   46.33    2.28
  -2  -5   3    0.22    0.09
  -2   5  -3    0.12    0.07
  -2   5   3    0.15    0.08
   2   5  -3    0.17    0.05
  -2   5   3    0.03    0.06
  -2  -5  -3    0.00    0.11
  -2   6  -3   17.24    0.98
  -2   6   3   17.73    0.99
  -2   6   3   17.99    0.99
  -2   7  -3   -0.07    0.08
   2   7   3    0.01    0.11
  -2   7   3   -0.10    0.08
  -2   7   3    0.01    0.08
  -2   8   3    4.87    0.38
   3   0   3   75.38    3.68
  -3   0   3   68.52    3.65
  -3   0  -3   72.05    3.68
  -3   0   3   68.37    3.67
  -3   1  -3   35.78    1.87
  -3  -1   3   35.17    1.87
  -3   1  -3   32.64    1.90
  -3  -1   3   35.98    1.85
   3  -1   3   38.62    1.87
  -3   1   3   34.09    1.86
   3   1  -3   37.92    1.88
  -3  -1  -3   35.34    1.90
  -3  -2   3  210.92   10.81
  -3  -2   3  208.51   10.78
  -3   2  -3  214.16   10.84
  -3   2  -3  205.59   10.80
   3  -2   3  222.35   10.81
  -3   2   3  196.53   10.81
   3   2  -3  221.07   10.81
  -3  -2  -3  219.40   10.88
  -3   2   3  207.85   10.82
  -3   3  -3   22.56    1.20
  -3  -3   3   22.37    1.18
  -3   3  -3   22.51    1.16
  -3   3   3   20.02    1.18
   3   3  -3   23.20    1.17
   3  -3   3   23.19    1.16
  -3   3   3   20.16    1.18
  -3  -3  -3   21.12    1.26
  -3   4  -3   14.71    0.79
  -3  -4   3   15.45    0.83
  -3   4  -3   14.47    0.84
  -3   4   3   14.70    0.83
   3  -4   3   14.91    0.80
  -3   4   3   15.03    0.84
  -3  -4  -3   14.23    0.94
  -3   5  -3    5.99    0.33
  -3  -5   3    5.66    0.39
  -3   5  -3    5.84    0.39
  -3   5   3    5.59    0.38
  -3   5   3    6.02    0.39
   3  -5   3    6.04    0.35
  -3  -5  -3    4.41    0.49
  -3  -6   3   49.00    2.73
  -3   6  -3   49.99    2.70
  -3   6   3   51.84    2.69
  -3   6   3   53.82    2.71
  -3   7  -3    3.17    0.29
  -3   7   3    3.46    0.28
  -3   7   3    3.12    0.29
  -3   8  -3    2.64    0.29
  -3   8   3    2.91    0.29
  -3   9   3    0.42    0.16
  -4   0   3    0.04    0.06
  -4   0   3    0.12    0.05
  -4   0  -3    0.00    0.06
  -4   1  -3   73.39    3.86
  -4  -1   3   75.65    3.80
  -4  -1   3   76.27    3.83
  -4   1  -3   73.15    3.83
  -4   1   3   74.64    3.82
  -4   1   3   71.16    3.83
  -4  -1  -3   73.17    3.85
  -4  -2   3    0.13    0.05
  -4   2  -3    0.12    0.08
  -4  -2   3    0.05    0.07
  -4   2  -3   -0.03    0.06
  -4   2   3    0.05    0.07
  -4  -2  -3    0.16    0.10
  -4   2   3    0.18    0.08
  -4   3  -3   50.91    2.71
  -4  -3   3   52.35    2.73
  -4   3  -3   53.13    2.76
  -4   3   3   52.80    2.74
  -4  -3  -3   53.46    2.81
  -4   3   3   51.37    2.74
  -4  -4   3    0.10    0.08
  -4   4  -3    0.17    0.06
  -4   4  -3    0.07    0.08
  -4  -4  -3    0.17    0.13
  -4   4   3    0.09    0.08
  -4   4   3    0.09    0.08
  -4   5  -3   20.96    1.13
  -4  -5   3   20.91    1.19
  -4   5  -3   22.47    1.21
  -4  -5  -3   21.22    1.33
  -4   5   3   21.47    1.18
  -4   5   3   21.10    1.19
  -4  -6   3    0.05    0.11
  -4   6  -3    0.00    0.10
  -4   6   3    0.22    0.10
  -4  -6  -3   -0.06    0.17
  -4   6   3   -0.06    0.09
  -4   7  -3    7.26    0.52
  -4   7   3    7.55    0.49
  -4   7   3    7.03    0.50
  -4   8  -3    0.07    0.12
  -4   8   3   -0.04    0.12
  -5   0  -3   13.98    0.79
  -5   0   3   13.58    0.78
  -5   0   3   13.31    0.76
  -5   1  -3   26.48    1.47
  -5  -1   3   26.71    1.47
  -5   1  -3   26.57    1.51
  -5  -1   3   27.75    1.44
  -5   1   3   27.72    1.46
  -5   1   3   27.28    1.47
  -5  -1  -3   27.89    1.50
  -5   2  -3  107.92    5.68
  -5  -2   3  111.24    5.66
  -5   2  -3  108.62    5.72
  -5  -2   3  109.79    5.69
  -5   2   3  113.79    5.69
  -5  -2  -3  112.07    5.73
  -5   2   3  107.89    5.68
  -5   3  -3   14.55    0.81
  -5   3  -3   14.15    0.86
  -5  -3   3   14.56    0.83
  -5   3   3   14.49    0.83
  -5   3   3   14.09    0.83
  -5  -3  -3   14.65    0.90
  -5  -4   3    6.80    0.47
  -5   4  -3    7.22    0.44
  -5   4  -3    7.84    0.50
  -5  -4  -3    7.18    0.55
  -5   4   3    6.92    0.47
  -5   4   3    6.90    0.46
  -5  -5   3   10.24    0.64
  -5   5  -3   10.06    0.58
  -5   5  -3   10.41    0.65
  -5   5   3    9.72    0.61
  -5  -5  -3    9.05    0.74
  -5   5   3   10.06    0.63
  -5  -6   3   28.15    1.61
  -5   6  -3   29.48    1.61
  -5   6   3   29.64    1.59
  -5  -6  -3   25.42    1.73
  -5   6   3   29.77    1.57
  -5   7  -3    1.71    0.26
  -5  -7  -3    1.21    0.32
  -5   7   3    1.67    0.24
  -5   7   3    1.71    0.21
  -5   8  -3    2.32    0.30
  -5   8   3    1.65    0.25
  -6   0   3   53.41    2.81
  -6   0   3   54.02    2.79
  -6   0  -3   52.19    2.82
  -6   1  -3    0.30    0.12
  -6  -1   3    0.42    0.12
  -6   1  -3    0.58    0.12
  -6  -1   3    0.74    0.12
  -6   1   3    0.48    0.10
  -6  -1  -3    0.65    0.16
  -6   1   3    0.46    0.13
  -6  -2   3   40.70    2.14
  -6   2  -3   39.28    2.12
  -6  -2   3   40.13    2.10
  -6   2  -3   40.93    2.18
  -6   2   3   40.09    2.13
  -6   2   3   39.44    2.12
  -6  -2  -3   38.12    2.17
  -6  -3   3    0.42    0.13
  -6   3  -3    0.34    0.10
  -6   3  -3    0.37    0.14
  -6   3   3    0.59    0.14
  -6   3   3    0.41    0.13
  -6  -3  -3    0.12    0.14
  -6  -4   3   24.93    1.39
  -6   4  -3   24.55    1.35
  -6   4  -3   24.22    1.41
  -6   4   3   25.37    1.38
  -6  -4  -3   26.42    1.49
  -6   4   3   23.26    1.37
  -6  -5   3    0.16    0.13
  -6   5  -3    0.24    0.10
  -6   5  -3    0.22    0.13
  -6  -5  -3    0.13    0.17
  -6   5   3    0.17    0.12
  -6   5   3    0.33    0.12
  -6   6  -3   10.64    0.69
  -6  -6   3    8.94    0.67
  -6   6   3   10.05    0.62
  -6  -6  -3    8.98    0.79
  -6   6   3    9.50    0.64
  -6   7  -3    0.07    0.13
  -6   7   3    0.11    0.13
  -6  -7  -3    0.25    0.23
  -6   8  -3    3.99    0.43
  -6   8   3    3.26    0.38
  -7   0   3   64.72    3.50
  -7   0   3   68.00    3.48
  -7   0  -3   66.52    3.52
  -7   1  -3    6.42    0.50
  -7  -1   3    6.41    0.46
  -7  -1   3    6.11    0.42
  -7   1  -3    6.24    0.46
  -7   1   3    6.03    0.44
  -7  -1  -3    6.48    0.48
  -7   1   3    6.46    0.46
  -7   2  -3    1.16    0.18
  -7  -2   3    1.57    0.20
  -7   2  -3    1.33    0.23
  -7  -2   3    1.23    0.18
  -7  -2  -3    1.57    0.25
  -7   2   3    1.14    0.19
  -7   2   3    1.67    0.21
  -7  -3   3    2.45    0.27
  -7   3  -3    3.04    0.35
  -7   3  -3    2.21    0.25
  -7  -3  -3    2.13    0.31
  -7   3   3    2.89    0.28
  -7   3   3    2.44    0.25
  -7  -4   3   36.22    1.99
  -7   4  -3   35.82    2.02
  -7   4  -3   35.57    1.94
  -7   4   3   38.22    1.98
  -7  -4  -3   33.31    2.05
  -7   4   3   36.79    1.96
  -7  -5   3    2.91    0.32
  -7   5  -3    2.76    0.34
  -7   5  -3    2.81    0.27
  -7   5   3    2.15    0.27
  -7   5   3    3.03    0.29
  -7  -5  -3    2.60    0.40
  -7   6  -3    0.57    0.19
  -7  -6   3    0.64    0.20
  -7  -6  -3    0.77    0.27
  -7   6   3    0.78    0.17
  -7   6   3    1.17    0.21
  -7   7  -3    0.00    0.15
  -7  -7  -3    0.48    0.27
  -7   7   3    0.02    0.14
  -8   0  -3    0.52    0.18
  -8   0   3    0.59    0.15
  -8   0   3    0.49    0.14
  -8   1  -3   13.94    1.08
  -8  -1   3   18.52    1.04
  -8  -1   3   17.97    1.06
  -8   1  -3   19.34    1.08
  -8   1   3   18.40    1.06
  -8  -1  -3   18.41    1.09
  -8   1   3   17.53    1.04
  -8   2  -3    0.83    0.21
  -8  -2   3    1.14    0.21
  -8  -2   3    0.82    0.18
  -8   2  -3    0.87    0.18
  -8   2   3    0.84    0.17
  -8  -2  -3    1.26    0.24
  -8   2   3    1.36    0.21
  -8   3  -3   11.71    0.84
  -8  -3   3   12.92    0.80
  -8   3  -3   12.54    0.77
  -8  -3  -3   11.83    0.84
  -8   3   3   12.08    0.77
  -8   3   3   12.12    0.77
  -8   4  -3    0.15    0.18
  -8   4  -3    0.18    0.13
  -8  -4   3    0.17    0.15
  -8  -4  -3    0.34    0.20
  -8   4   3    0.27    0.16
  -8   4   3    0.28    0.13
  -8  -5   3    6.05    0.52
  -8   5  -3    6.22    0.47
  -8   5  -3    7.04    0.57
  -8  -5  -3    5.58    0.60
  -8   5   3    6.35    0.48
  -8   5   3    6.28    0.50
  -8  -6   3    0.18    0.18
  -8   6  -3    0.43    0.20
  -8   6   3    0.15    0.16
  -8   6   3    0.17    0.14
  -8  -6  -3    0.31    0.26
  -9   0   3   17.55    1.06
  -9   0   3   16.85    1.04
  -9   0  -3   17.76    1.09
  -9  -1   3    5.46    0.45
  -9   1  -3    5.70    0.49
  -9  -1   3    5.44    0.47
  -9   1   3    5.73    0.46
  -9   1   3    6.07    0.48
  -9  -1  -3    5.92    0.50
  -9  -2   3    1.38    0.25
  -9   2  -3    1.12    0.27
  -9  -2   3    1.41    0.24
  -9   2  -3    1.18    0.22
  -9   2   3    1.29    0.24
  -9   2   3    1.38    0.23
  -9  -2  -3    1.43    0.28
  -9   3  -3    5.39    0.54
  -9   3  -3    5.28    0.45
  -9  -3   3    5.16    0.47
  -9   3   3    4.76    0.44
  -9  -3  -3    5.34    0.54
  -9   3   3    6.10    0.47
  -9  -4   3    9.66    0.71
  -9   4  -3    9.53    0.66
  -9   4  -3    9.37    0.75
  -9   4   3    8.92    0.67
  -9   4   3    9.58    0.66
  -9  -4  -3   10.07    0.79
  -9   5  -3    1.37    0.34
  -9  -5   3    1.35    0.28
  -9   5   3    1.38    0.30
  -9   5   3    1.20    0.23
  -9  -5  -3    1.46    0.36
 -10   0   3    6.02    0.50
 -10   0   3    4.99    0.48
 -10   0  -3    5.79    0.53
 -10  -1   3    0.89    0.23
 -10   1  -3    1.25    0.26
 -10  -1   3    0.92    0.21
 -10   1   3    0.86    0.21
 -10  -1  -3    1.23    0.28
 -10   1   3    1.16    0.24
 -10   2  -3    5.78    0.52
 -10  -2   3    6.89    0.54
 -10  -2  -3    5.79    0.57
 -10   2   3    5.87    0.51
 -10   2   3    5.80    0.51
 -10  -3   3    0.68    0.22
 -10   3  -3    0.76    0.28
 -10   3  -3    1.04    0.24
 -10  -3  -3    0.66    0.25
 -10   3   3    0.97    0.24
 -10   3   3    1.05    0.23
   0   1   4   -0.25    0.08
   0   1   4   -0.17    0.05
   0  -1   4   -0.24    0.06
   0  -1   4   -0.25    0.03
   0   2   4   44.33    2.52
   0  -2   4   50.24    2.47
   0  -2   4   49.84    2.50
   0  -3   4    0.02    0.04
   0   3   4   -0.04    0.06
   0  -4   4  193.73    9.65
   0   4   4  184.98    9.73
   0   5   4    0.00    0.07
   0  -5   4    0.03    0.04
   0   6  -4    9.27    0.57
   0   6   4   10.14    0.63
   0   7   4   -0.05    0.09
   0   7   4   -0.03    0.08
   0   8   4   23.27    1.30
  -1   0   4    7.47    0.43
   1   0  -4    6.95    0.43
   1   0   4    7.95    0.47
   1  -1  -4    0.12    0.05
   1   1   4    0.20    0.09
  -1  -1   4    0.23    0.05
  -1   1  -4    0.03    0.05
  -1  -1  -4    0.09    0.08
  -1   1   4    0.05    0.05
   1  -1   4    0.22    0.06
   1   1  -4    0.12    0.04
   1   2   4    1.61    0.21
   1  -2  -4    1.25    0.14
  -1   2  -4    1.04    0.12
  -1  -2   4    1.26    0.10
   1  -2   4    1.33    0.13
  -1   2   4    1.22    0.13
  -1  -2  -4    1.04    0.20
   1   2  -4    1.39    0.10
   1  -2   4    1.55    0.10
  -1  -3   4    2.81    0.17
  -1  -3   4    2.94    0.16
  -1   3   4    2.81    0.23
   1   3  -4    2.86    0.17
   1  -3   4    2.78    0.20
  -1   4  -4    0.11    0.07
  -1  -4   4    0.17    0.04
   1  -4   4    0.10    0.05
   1   4  -4    0.17    0.03
  -1  -4  -4    0.02    0.10
  -1   4   4    0.05    0.07
   1   5   4    0.44    0.13
  -1   5  -4    0.36    0.09
  -1   5   4    0.35    0.10
   1   6   4   -0.09    0.09
  -1   6  -4    0.07    0.08
  -1   6   4    0.05    0.09
  -1   6   4    0.47    0.11
   1   7   4    1.22    0.22
  -1   7  -4    1.40    0.18
  -1   7   4    1.23    0.18
  -1   7   4    1.52    0.20
   1   8   4   -0.05    0.18
  -1   8   4    0.01    0.11
  -2   0   4  120.28    6.52
   2   0   4  140.46    6.54
  -2   0  -4  125.89    6.56
   2   0  -4  122.10    6.52
  -2   1  -4  137.60    7.43
   2   1   4  163.22    7.46
  -2  -1   4  130.51    7.41
   2  -1  -4  147.38    7.44
   2  -1   4  151.46    7.42
   2  -1   4  157.62    7.45
   2   1  -4  143.42    7.42
  -2  -1  -4  139.93    7.48
  -2   1   4  134.99    7.42
  -2  -2   4    5.33    0.32
  -2   2  -4    5.41    0.34
  -2  -2  -4    4.76    0.42
  -2   2   4    5.08    0.35
   2   2  -4    5.67    0.33
   2  -2   4    5.75    0.35
   2  -2   4    5.53    0.32
  -2   3  -4   92.08    4.81
  -2   3  -4   97.98    4.76
  -2  -3   4   94.09    4.76
  -2   3   4   90.13    4.80
   2  -3   4   94.60    4.75
   2   3  -4   99.90    4.76
  -2  -3  -4   80.31    4.89
  -2   4  -4   32.11    1.73
  -2   4  -4   32.79    1.67
  -2  -4   4   31.30    1.68
  -2   4   4   31.32    1.71
   2  -4   4   32.76    1.65
   2   4  -4   33.52    1.68
  -2   4   4   31.29    1.72
  -2  -5   4   41.47    2.16
  -2   5  -4   39.98    2.19
  -2   5   4   39.60    2.18
  -2   5   4   39.97    2.19
   2   5  -4   44.58    2.13
  -2   6  -4    2.17    0.23
  -2   6   4    2.39    0.23
  -2   6   4    2.00    0.22
  -2   7  -4   16.36    0.95
   2   7   4   16.68    1.03
  -2   7   4   16.06    0.95
  -2   7   4   16.24    0.95
   2   8   4    3.70    0.40
  -2   8   4    3.98    0.34
  -2   9   4    4.55    0.40
  -3   0   4    0.85    0.11
  -3   0  -4    0.66    0.12
  -3   0   4    0.78    0.09
  -3   1  -4    7.18    0.44
  -3  -1   4    7.42    0.43
  -3  -1   4    7.46    0.41
  -3   1   4    6.47    0.43
  -3  -1  -4    7.09    0.48
   3  -1   4    8.14    0.43
  -3   1   4    6.96    0.42
  -3  -2   4    0.21    0.06
  -3   2  -4    0.09    0.06
  -3   2  -4   -0.02    0.07
  -3  -2   4    0.12    0.03
  -3   2   4    0.30    0.08
  -3  -2  -4    0.23    0.13
  -3   2   4    0.29    0.08
   3  -2   4    0.12    0.05
  -3  -3   4    1.45    0.14
  -3   3  -4    1.36    0.18
  -3   3  -4    1.52    0.14
  -3   3   4    1.46    0.16
  -3   3   4    1.34    0.15
  -3  -3  -4    1.18    0.22
   3  -3   4    1.38    0.12
  -3   4  -4    0.39    0.11
  -3  -4   4    0.00    0.05
  -3   4  -4   -0.01    0.05
  -3  -4  -4    0.11    0.14
  -3   4   4    0.00    0.06
  -3   4   4    0.04    0.07
   3  -4   4    0.06    0.04
  -3  -5   4    5.09    0.34
  -3   5  -4    5.08    0.30
  -3   5  -4    5.09    0.37
  -3  -5  -4    3.71    0.47
  -3   5   4    5.42    0.36
  -3   5   4    5.07    0.36
  -3  -6   4    0.34    0.12
  -3   6  -4    0.27    0.12
  -3  -6  -4    0.15    0.19
  -3   6   4    0.29    0.11
  -3   6   4    0.22    0.11
  -3   7  -4    0.00    0.10
  -3  -7  -4    0.25    0.20
  -3   7   4    0.02    0.10
  -3   7   4    0.05    0.09
   3   8   4    0.03    0.13
  -3   8  -4   -0.01    0.15
  -3   8   4   -0.06    0.11
  -3   9   4    1.55    0.24
  -4   0  -4   66.93    3.32
  -4   0   4   61.57    3.30
  -4   0   4   61.89    3.28
  -4  -1   4    0.15    0.05
  -4  -1   4    0.14    0.07
  -4   1  -4    0.16    0.08
  -4   1   4    0.17    0.07
  -4  -1  -4    0.11    0.09
  -4   1   4    0.10    0.07
  -4  -2   4  228.54   11.31
  -4   2  -4  203.19   11.38
  -4  -2   4  222.08   11.34
  -4   2  -4  225.18   11.34
  -4   2   4  228.60   11.35
  -4   2   4  208.98   11.35
  -4  -2  -4  236.56   11.42
  -4  -3   4    0.14    0.07
  -4   3  -4    0.27    0.10
  -4   3  -4    0.02    0.06
  -4  -3   4    0.10    0.04
  -4  -3  -4    0.18    0.14
  -4   3   4    0.17    0.08
  -4   3   4    0.13    0.08
  -4  -4   4   24.46    1.35
  -4   4  -4   25.47    1.40
  -4   4  -4   24.93    1.33
   4  -4   4   27.03    1.34
  -4   4   4   25.13    1.37
  -4   4   4   23.57    1.36
  -4  -4  -4   23.59    1.48
  -4   5  -4    0.00    0.06
  -4   5  -4    0.18    0.11
  -4  -5   4   -0.01    0.07
  -4   5   4    0.07    0.09
  -4  -5  -4    0.16    0.17
  -4   5   4    0.09    0.08
  -4   6  -4   47.20    2.45
  -4  -6   4   43.07    2.42
  -4   6   4   44.63    2.42
  -4   6   4   46.40    2.41
  -4   7  -4    0.12    0.12
  -4  -7  -4    0.20    0.19
  -4   7   4    0.06    0.11
  -4   7   4    0.04    0.10
  -4   8  -4    2.33    0.30
  -4   8   4    2.20    0.28
  -5   0  -4    0.62    0.13
  -5   0   4    0.60    0.09
  -5   0   4    0.62    0.11
  -5  -1   4    2.89    0.22
  -5   1  -4    3.10    0.26
  -5  -1   4    3.44    0.26
  -5   1   4    3.01    0.24
  -5  -1  -4    3.02    0.28
  -5   1   4    2.97    0.25
  -5  -2   4    2.40    0.22
  -5  -2   4    2.37    0.18
  -5   2  -4    1.96    0.25
  -5   2  -4    2.09    0.21
  -5   2   4    2.41    0.23
  -5  -2  -4    2.29    0.28
  -5   2   4    2.45    0.22
  -5  -3   4    0.25    0.09
  -5  -3   4    0.15    0.07
  -5   3  -4    0.27    0.09
  -5   3  -4    0.08    0.10
  -5   3   4    0.20    0.08
  -5  -3  -4    0.22    0.15
  -5   3   4    0.20    0.09
  -5   4  -4    0.15    0.12
  -5  -4   4    0.01    0.08
  -5   4  -4    0.05    0.07
  -5   4   4    0.03    0.09
  -5  -4  -4    0.12    0.15
  -5   4   4    0.07    0.08
  -5   5  -4    1.77    0.18
  -5   5  -4    1.56    0.24
  -5  -5   4    1.57    0.21
  -5   5   4    1.89    0.22
  -5   5   4    1.51    0.20
  -5  -5  -4    1.63    0.33
  -5   6  -4    0.71    0.18
  -5  -6   4    0.88    0.19
  -5  -6  -4    0.70    0.28
  -5   6   4    0.79    0.17
  -5   6   4    0.70    0.15
  -5   7  -4    0.13    0.14
  -5  -7  -4    0.32    0.24
  -5   7   4    0.09    0.11
  -5   7   4    0.04    0.10
  -5   8  -4   -0.03    0.14
  -5  -8  -4    0.09    0.22
  -5   8   4   -0.11    0.13
  -6   0   4   12.74    0.73
  -6   0   4   13.36    0.77
  -6   0  -4   12.17    0.78
  -6   1  -4   99.60    5.19
  -6  -1   4   96.52    5.18
  -6  -1   4  100.63    5.15
  -6  -1  -4  103.75    5.22
  -6   1   4  102.19    5.18
  -6   1   4   96.19    5.16
  -6  -2   4    3.53    0.27
  -6  -2   4    3.62    0.31
  -6   2  -4    3.60    0.31
  -6   2   4    3.88    0.31
  -6  -2  -4    3.93    0.36
  -6   2   4    4.06    0.31
  -6   3  -4   59.45    3.29
  -6   3  -4   62.98    3.23
  -6  -3   4   55.02    3.19
  -6  -3   4   61.27    3.24
  -6   3   4   62.41    3.24
  -6   3   4   61.86    3.24
  -6  -3  -4   67.74    3.34
  -6   4  -4    6.69    0.44
  -6  -4   4    6.90    0.47
  -6   4  -4    6.49    0.52
  -6   4   4    7.17    0.47
  -6   4   4    6.30    0.46
  -6  -4  -4    6.06    0.57
  -6   5  -4   35.78    1.96
  -6   5  -4   34.48    1.87
  -6  -5   4   34.36    1.92
  -6   5   4   35.89    1.91
  -6   5   4   34.99    1.91
  -6  -5  -4   34.49    2.07
  -6  -6   4    1.36    0.23
  -6   6  -4    1.27    0.24
  -6  -6  -4    1.33    0.33
  -6   6   4    1.50    0.21
  -6   6   4    1.20    0.22
  -6   7  -4   10.38    0.73
  -6   7   4   11.10    0.70
  -6  -7  -4    7.36    0.83
  -6   7   4   10.78    0.66
  -7   0  -4   -0.07    0.11
  -7   0   4    0.04    0.08
  -7   0   4    0.09    0.10
  -7   1  -4    1.44    0.21
  -7  -1   4    1.54    0.17
  -7  -1   4    1.24    0.19
  -7  -1  -4    0.83    0.19
  -7   1   4    1.29    0.18
  -7   1   4    1.26    0.20
  -7  -2   4    0.87    0.15
  -7  -2   4    0.91    0.17
  -7   2  -4    0.60    0.19
  -7   2  -4    1.05    0.18
  -7  -2  -4    1.16    0.23
  -7   2   4    0.86    0.18
  -7   2   4    0.93    0.16
  -7   3  -4    1.92    0.30
  -7   3  -4    1.82    0.23
  -7  -3   4    2.08    0.26
  -7  -3  -4    1.75    0.31
  -7   3   4    2.04    0.25
  -7   3   4    1.93    0.24
  -7  -4   4    0.03    0.12
  -7   4  -4   -0.12    0.12
  -7   4  -4   -0.12    0.10
  -7   4   4    0.01    0.11
  -7  -4  -4   -0.07    0.15
  -7   4   4    0.06    0.11
  -7  -5   4    0.30    0.15
  -7   5  -4    0.08    0.13
  -7   5  -4    0.14    0.12
  -7   5   4    0.13    0.13
  -7   5   4    0.08    0.11
  -7  -5  -4    0.23    0.20
  -7   6  -4    0.68    0.22
  -7  -6   4    0.15    0.16
  -7  -6  -4    0.40    0.25
  -7   6   4    0.47    0.15
  -7   6   4    0.40    0.16
  -7   7  -4    1.06    0.26
  -7   7   4    0.83    0.21
  -7  -7  -4    0.93    0.34
  -8   0  -4   54.03    2.99
  -8   0   4   55.99    2.94
  -8   0   4   56.17    2.97
  -8  -1   4    1.01    0.19
  -8   1  -4    1.00    0.20
  -8  -1   4    1.47    0.20
  -8   1   4    1.06    0.19
  -8  -1  -4    1.11    0.22
  -8   1   4    1.10    0.18
  -8   2  -4   13.84    0.83
  -8  -2   4   12.83    0.79
  -8  -2   4   13.14    0.82
  -8  -2  -4   12.61    0.86
  -8   2   4   12.85    0.81
  -8   2   4   12.17    0.80
  -8   3  -4    1.18    0.21
  -8  -3   4    1.67    0.25
  -8   3  -4    1.14    0.27
  -8  -3  -4    1.21    0.26
  -8   3   4    1.14    0.20
  -8   3   4    0.92    0.19
  -8   4  -4   27.93    1.56
  -8   4  -4   26.61    1.66
  -8  -4   4   28.21    1.60
  -8   4   4   28.55    1.59
  -8  -4  -4   27.41    1.70
  -8   4   4   28.44    1.58
  -8   5  -4    0.33    0.20
  -8  -5   4    0.43    0.18
  -8   5   4    0.29    0.14
  -8   5   4    0.27    0.14
  -8  -5  -4    0.41    0.25
  -8  -6   4    2.62    0.38
  -8   6  -4    2.63    0.40
  -8   6   4    2.98    0.33
  -8  -6  -4    2.77    0.52
  -8   6   4    3.28    0.37
  -9   0   4    0.23    0.13
  -9   0   4    0.08    0.13
  -9   0  -4    0.03    0.16
  -9   1  -4    0.50    0.18
  -9  -1   4    0.26    0.13
  -9  -1   4    0.36    0.15
  -9  -1  -4    0.43    0.20
  -9   1   4    0.24    0.14
  -9   1   4    0.23    0.15
  -9   2  -4    0.16    0.15
  -9  -2   4    0.16    0.15
  -9   2   4   -0.02    0.13
  -9  -2  -4   -0.06    0.16
  -9   2   4    0.08    0.14
  -9   3  -4    0.58    0.19
  -9  -3   4    0.49    0.19
  -9   3  -4    0.38    0.21
  -9   3   4    0.68    0.18
  -9   3   4    0.46    0.16
  -9  -3  -4    0.59    0.24
  -9   4  -4    0.08    0.20
  -9   4  -4    0.04    0.15
  -9  -4   4    0.10    0.16
  -9  -4  -4    0.04    0.18
  -9   4   4   -0.12    0.13
  -9   4   4    0.16    0.14
  -9  -5   4    0.11    0.17
  -9   5   4    0.02    0.14
  -9  -5  -4    0.14    0.23
 -10   0   4    0.81    0.20
 -10   0  -4    0.44    0.22
 -10   0   4    0.89    0.23
 -10   1  -4    9.88    0.71
 -10  -1   4    8.48    0.65
 -10  -1   4    7.16    0.65
 -10   1   4    9.10    0.66
 -10  -1  -4    9.85    0.73
 -10   1   4    9.06    0.65
 -10  -2   4    5.84    0.51
 -10   2  -4    5.99    0.53
 -10  -2  -4    6.28    0.58
 -10   2   4    6.00    0.50
 -10   2   4    5.70    0.51
 -10  -3   4    7.20    0.59
 -10   3  -4    6.92    0.56
 -10   3   4    6.96    0.56
 -10   3   4    6.98    0.57
   0   0   5    0.00    0.07
   0   0   5    0.01    0.04
   0  -1   5  112.88    5.79
   0   1   5  113.17    5.82
   0  -2   5    0.00    0.03
   0   2   5    0.00    0.05
   0  -2   5    0.03    0.05
   0   3   5   40.84    2.19
   0  -3   5   39.37    2.09
   0  -3   5   40.93    2.11
   0  -3   5   42.75    2.13
   0   4   5    0.05    0.08
   0  -4   5    0.01    0.04
   0   5   5   33.09    1.87
   0  -5   5   35.08    1.78
   0   6   5   -0.08    0.09
   0   7   5    2.69    0.30
   0   8   5    0.05    0.11
   0   8   5   -0.12    0.11
  -1   0   5    7.42    0.44
   1   0   5    7.81    0.49
   1   0  -5    7.55    0.45
   1  -1  -5   21.17    1.28
  -1  -1   5   23.78    1.26
   1   1   5   25.65    1.35
   1   1  -5   23.32    1.26
   1  -1   5   26.77    1.30
  -1   1   5   22.66    1.28
  -1  -2   5   93.62    5.11
   1  -2   5  109.47    5.12
   1   2  -5   97.53    5.12
   1  -2   5  105.74    5.15
  -1   2   5   93.30    5.15
  -1  -3   5   19.78    1.01
  -1  -3   5   18.82    1.01
   1   3  -5   19.33    1.01
   1  -3   5   18.56    1.00
   1  -3   5   19.46    0.99
   1  -3   5   20.69    1.04
  -1   3   5   18.28    1.07
  -1  -4   5    1.45    0.10
  -1  -4   5    1.45    0.10
   1   4  -5    1.45    0.10
  -1   4   5    1.07    0.16
   1  -4   5    1.73    0.16
   1   5   5   10.02    0.67
  -1   5   5   10.37    0.65
   1   6   5   24.81    1.41
  -1   6   5   23.50    1.36
   1   7   5    2.77    0.33
  -1   7   5    3.73    0.32
  -1   7   5    2.79    0.28
   1   8   5    0.47    0.15
   1   8   5    0.39    0.16
  -1   8   5    0.43    0.14
  -1   8   5    0.30    0.16
  -2   0  -5   22.06    1.32
  -2   0   5   21.31    1.26
   2   0   5   26.04    1.30
   2   0  -5   25.45    1.28
  -2   1  -5   19.05    1.13
  -2  -1   5   18.73    1.09
  -2   1   5   20.49    1.11
   2  -1   5   23.10    1.11
   2   1  -5   21.83    1.10
  -2  -1  -5   18.88    1.18
  -2  -2   5   16.89    0.94
  -2   2  -5   16.51    0.97
   2  -2   5   19.00    0.94
   2   2  -5   18.75    0.95
  -2   2   5   16.40    0.97
  -2   3  -5   15.66    0.98
  -2  -3   5   17.60    0.96
   2   3  -5   19.58    0.97
   2  -3   5   18.69    0.95
  -2   3   5   18.76    1.01
  -2  -4   5   11.60    0.65
   2   4  -5   12.67    0.66
  -2   4   5   11.71    0.71
  -2  -5   5    0.55    0.09
  -2   5  -5    0.61    0.13
  -2  -5  -5    0.37    0.19
   2   5  -5    0.77    0.09
  -2   5   5    0.47    0.12
  -2   5   5    0.54    0.12
  -2   6  -5    3.56    0.34
  -2   6   5    4.48    0.34
  -2   6   5    4.80    0.36
  -2   7  -5    3.54    0.34
   2   7   5    4.41    0.42
  -2   7   5    4.00    0.34
  -2   7   5    4.32    0.35
   2   8   5    2.24    0.33
  -2   8   5    1.78    0.25
  -2   9   5    0.19    0.13
  -3   0   5  160.04    8.55
  -3   0  -5  174.32    8.61
  -3  -1   5   27.44    1.45
  -3  -1   5   26.43    1.42
  -3   1  -5   27.99    1.48
  -3  -1  -5   27.39    1.52
  -3   1   5   26.70    1.46
  -3  -2   5    5.27    0.34
  -3   2  -5    5.34    0.36
  -3  -2   5    5.18    0.31
  -3   2   5    5.24    0.34
  -3  -2  -5    5.47    0.46
   3  -2   5    5.98    0.34
  -3   2   5    5.62    0.37
  -3  -3   5   20.40    1.00
  -3   3  -5   20.41    1.06
  -3  -3   5   19.27    1.05
  -3   3   5   19.62    1.07
  -3   3   5   18.07    1.08
  -3  -3  -5   17.60    1.19
   3  -3   5   20.20    1.04
  -3   4  -5   76.23    3.65
  -3   4  -5   65.41    3.70
  -3  -4   5   73.06    3.65
  -3  -4  -5   59.80    3.81
  -3   4   5   71.18    3.68
   3  -4   5   76.21    3.63
  -3   4   5   70.29    3.69
  -3   5  -5   10.45    0.59
  -3   5  -5   10.49    0.67
  -3  -5   5   10.53    0.61
  -3   5   5   10.26    0.64
  -3   5   5   11.02    0.65
  -3   6  -5    0.85    0.17
  -3  -6  -5    0.48    0.24
  -3   6   5    0.76    0.15
  -3   6   5    0.64    0.14
  -3   7  -5    2.95    0.33
  -3   7   5    3.23    0.30
  -3   7   5    3.41    0.31
   3   8   5   12.38    0.87
  -3   8   5   12.16    0.78
  -3   9   5    1.34    0.23
  -4   0   5    0.94    0.11
  -4   0   5    0.77    0.12
  -4   0  -5    0.84    0.15
  -4  -1   5   43.74    2.20
  -4   1  -5   42.54    2.25
  -4  -1   5   41.79    2.22
  -4  -1  -5   43.48    2.29
  -4   1   5   39.99    2.23
  -4   1   5   42.00    2.21
  -4  -2   5    0.84    0.09
  -4   2  -5    0.77    0.13
  -4  -2   5    0.90    0.12
  -4  -2  -5    0.75    0.18
  -4   2   5    0.95    0.13
  -4   2   5    0.76    0.13
  -4  -3   5   37.53    1.89
  -4  -3   5   36.72    1.94
  -4   3  -5   32.34    1.99
  -4   3  -5   37.08    1.94
  -4   3   5   36.97    1.96
  -4   3   5   37.61    1.95
  -4  -3  -5   37.52    2.08
  -4  -4   5    0.05    0.07
  -4   4  -5   -0.01    0.07
  -4   4  -5   -0.03    0.09
  -4   4   5    0.10    0.09
  -4   4   5    0.15    0.10
  -4  -4  -5    0.15    0.19
  -4   5  -5    8.28    0.47
  -4   5  -5    7.96    0.56
  -4  -5   5    7.83    0.49
  -4  -5  -5    6.26    0.66
  -4   5   5    7.98    0.51
  -4   5   5    7.76    0.52
  -4   6  -5    0.10    0.12
  -4  -6  -5    0.13    0.19
  -4   6   5    0.16    0.12
  -4   6   5    0.16    0.11
  -4   7  -5    8.67    0.64
  -4   7   5    9.65    0.62
  -4   7   5    9.52    0.61
  -4   8  -5    0.19    0.14
  -4   8   5   -0.04    0.12
  -5   0  -5   72.23    3.68
  -5   0   5   67.12    3.64
  -5   0   5   70.39    3.62
  -5  -1   5    8.02    0.52
  -5   1  -5    8.59    0.55
  -5  -1   5    8.25    0.49
  -5   1   5    8.87    0.52
  -5  -1  -5    8.37    0.57
  -5   1   5    8.60    0.53
  -5  -2   5    1.15    0.16
  -5   2  -5    1.27    0.17
  -5  -2   5    1.09    0.12
  -5  -2  -5    1.25    0.22
  -5   2   5    1.09    0.16
  -5   2   5    1.30    0.16
  -5  -3   5    6.98    0.46
  -5   3  -5    6.78    0.52
  -5  -3   5    6.93    0.40
  -5   3  -5    7.04    0.45
  -5   3   5    7.15    0.46
  -5   3   5    6.67    0.46
  -5  -3  -5    7.22    0.58
  -5  -4   5   31.75    1.72
  -5   4  -5   29.50    1.77
  -5   4  -5   32.07    1.70
  -5   4   5   30.84    1.72
  -5  -4  -5   35.31    1.91
  -5   4   5   31.43    1.73
  -5   5  -5    2.60    0.31
  -5   5  -5    2.49    0.22
  -5  -5   5    1.94    0.23
  -5  -5  -5    1.54    0.34
  -5   5   5    2.25    0.24
  -5   5   5    2.64    0.26
  -5   6  -5    0.11    0.13
  -5  -6   5    0.04    0.18
  -5   6   5    0.18    0.11
  -5  -6  -5   -0.02    0.18
  -5   6   5    0.16    0.13
  -5   7  -5    1.20    0.23
  -5   7   5    1.42    0.22
  -5   7   5    1.12    0.20
  -5  -7  -5    0.64    0.29
  -5   8  -5    5.04    0.50
  -5   8   5    5.99    0.48
  -6   0   5    0.21    0.10
  -6   0   5    0.08    0.07
  -6   0  -5    0.24    0.14
  -6  -1   5    3.96    0.34
  -6  -1   5    4.27    0.30
  -6   1  -5    4.41    0.35
  -6  -1  -5    4.41    0.38
  -6   1   5    4.36    0.34
  -6   1   5    4.17    0.32
  -6  -2   5    0.27    0.08
  -6   2  -5    0.11    0.10
  -6  -2   5    0.13    0.09
  -6  -2  -5    0.22    0.14
  -6   2   5    0.09    0.10
  -6   2   5    0.38    0.11
  -6  -3   5    0.95    0.17
  -6   3  -5    0.99    0.21
  -6   3  -5    0.66    0.15
  -6  -3   5    1.21    0.14
  -6   3   5    0.54    0.13
  -6  -3  -5    1.01    0.26
  -6   3   5    0.72    0.16
  -6  -4   5    0.15    0.10
  -6   4  -5    0.18    0.13
  -6   4  -5   -0.04    0.09
  -6  -4  -5    0.04    0.15
  -6   4   5   -0.01    0.10
  -6   4   5    0.09    0.11
  -6   5  -5    2.28    0.32
  -6  -5   5    2.15    0.26
  -6  -5  -5    1.81    0.36
  -6   5   5    2.52    0.28
  -6   5   5    2.26    0.26
  -6  -6   5    0.17    0.22
  -6   6  -5    0.01    0.14
  -6  -6  -5    0.20    0.23
  -6   6   5    0.32    0.14
  -6   6   5    0.07    0.11
  -6   7  -5    0.02    0.15
  -6   7   5   -0.04    0.13
  -6  -7  -5    0.24    0.26
  -6   7   5   -0.03    0.11
  -7   0  -5    4.89    0.43
  -7   0   5    5.10    0.36
  -7   0   5    5.13    0.40
  -7  -1   5    1.68    0.19
  -7   1  -5    1.62    0.24
  -7  -1   5    1.47    0.21
  -7   1   5    1.48    0.21
  -7  -1  -5    1.80    0.27
  -7   1   5    1.82    0.22
  -7   2  -5   36.85    2.04
  -7  -2   5   37.49    2.03
  -7  -2   5   37.00    1.98
  -7   2   5   38.78    2.02
  -7  -2  -5   34.20    2.09
  -7   2   5   39.14    2.04
  -7   3  -5    1.02    0.23
  -7  -3   5    1.45    0.21
  -7   3  -5    1.40    0.21
  -7   3   5    1.62    0.22
  -7   3   5    1.52    0.22
  -7  -3  -5    1.26    0.26
  -7  -4   5    2.18    0.27
  -7   4  -5    2.25    0.26
  -7   4  -5    1.63    0.30
  -7   4   5    2.02    0.26
  -7  -4  -5    2.38    0.39
  -7   4   5    2.35    0.27
  -7  -5   5    0.51    0.16
  -7   5  -5    0.40    0.17
  -7  -5  -5    0.31    0.24
  -7   5   5    0.41    0.15
  -7   5   5    0.52    0.16
  -7   6  -5   10.01    0.76
  -7  -6  -5   10.02    0.91
  -7   6   5   10.37    0.69
  -7   6   5   10.48    0.70
  -7   7  -5    0.18    0.18
  -7  -7  -5    0.10    0.27
  -7   7   5    0.27    0.17
  -8   0   5    0.84    0.18
  -8   0  -5    0.85    0.22
  -8   0   5    0.96    0.17
  -8  -1   5    8.30    0.56
  -8   1  -5    8.22    0.61
  -8  -1   5    8.85    0.61
  -8   1   5    9.54    0.62
  -8  -1  -5    8.30    0.64
  -8   1   5    9.30    0.58
  -8  -2   5    0.25    0.12
  -8  -2   5    0.26    0.14
  -8   2  -5    0.38    0.16
  -8  -2  -5    0.32    0.20
  -8   2   5    0.34    0.14
  -8   2   5    0.15    0.13
  -8   3  -5    4.43    0.39
  -8  -3   5    4.30    0.40
  -8  -3  -5    4.15    0.47
  -8   3   5    4.61    0.40
  -8   3   5    4.61    0.39
  -8   4  -5    0.41    0.16
  -8   4  -5    0.24    0.19
  -8  -4   5    0.48    0.17
  -8  -4  -5    0.59    0.26
  -8   4   5    0.16    0.14
  -8   4   5    0.32    0.15
  -8  -5   5    4.20    0.43
  -8   5  -5    3.28    0.45
  -8  -5  -5    4.46    0.60
  -8   5   5    5.02    0.43
  -8   5   5    4.74    0.41
  -8   6  -5    0.00    0.18
  -8   6   5    0.04    0.14
  -8  -6  -5    0.01    0.24
  -9   0   5    0.66    0.16
  -9   0  -5    0.60    0.21
  -9   0   5    0.42    0.18
  -9  -1   5    5.87    0.47
  -9  -1   5    6.11    0.49
  -9   1  -5    6.73    0.54
  -9   1   5    6.46    0.51
  -9   1   5    6.74    0.49
  -9  -1  -5    6.42    0.57
  -9   2  -5    8.82    0.65
  -9  -2   5    9.15    0.64
  -9   2   5    8.28    0.61
  -9  -2  -5    9.37    0.73
  -9   2   5    8.74    0.62
  -9   3  -5    4.07    0.40
  -9  -3   5    3.67    0.39
  -9  -3  -5    4.13    0.53
  -9   3   5    3.63    0.38
  -9   3   5    4.36    0.40
  -9   4  -5    0.18    0.15
  -9  -4   5    0.12    0.16
  -9   4   5    0.29    0.16
  -9   4   5    0.24    0.16
  -9  -4  -5    0.03    0.18
 -10   0   5    0.83    0.20
 -10   0  -5    1.16    0.28
 -10   0   5    0.60    0.20
 -10   1  -5    0.03    0.16
 -10  -1   5   -0.10    0.14
 -10   1   5   -0.02    0.15
 -10   1   5    0.09    0.14
 -10  -1  -5    0.17    0.20
 -10  -2   5    0.51    0.19
 -10   2  -5    0.49    0.22
 -10   2   5    0.28    0.17
 -10  -2  -5    0.40    0.26
 -10   2   5    0.44    0.19
   0   0   6  139.61    7.17
   0  -1   6   -0.17    0.05
   0  -1   6   -0.14    0.08
   0   1   6   -0.15    0.06
   0  -2   6  124.93    6.39
   0   2   6  124.87    6.45
   0  -3   6   -0.02    0.03
   0  -3   6   -0.07    0.05
   0   3   6   -0.13    0.06
   0  -3   6   -0.04    0.05
   0  -4   6   47.48    2.37
   0   4   6   43.94    2.46
   0  -5   6    0.06    0.05
   0   5   6   -0.05    0.09
   0   6   6   33.64    1.88
   0   7   6    0.05    0.12
   0   8   6    7.44    0.56
   0   8   6    6.59    0.50
  -1   0   6  129.13    7.17
   1   0  -6  139.36    7.18
   1   0   6  151.46    7.25
  -1  -1   6  126.61    6.63
   1   1  -6  125.71    6.64
   1  -1   6  145.44    6.69
  -1   1   6  120.37    6.65
  -1  -2   6  110.62    5.82
   1  -2   6  107.48    5.83
  -1   2   6  111.83    5.87
   1  -2   6  129.70    5.85
   1   2  -6  110.69    5.83
   1  -2   6  112.11    5.87
  -1  -3   6   67.60    3.51
  -1  -3   6   66.02    3.49
   1  -3   6   68.96    3.49
   1  -3   6   74.00    3.49
  -1   3   6   63.48    3.56
   1   3  -6   68.03    3.50
   1   4   6   51.08    2.83
  -1  -4   6   54.96    2.71
  -1  -4   6   52.17    2.70
   1   4  -6   51.59    2.71
  -1   4   6   54.00    2.81
   1   5   6   31.90    1.81
  -1   5   6   32.45    1.78
   1   6   6   22.51    1.33
  -1   6   6   22.15    1.29
   1   7   6    9.52    0.68
  -1   7   6    8.99    0.61
  -1   7   6    9.60    0.65
   1   8   6    6.25    0.53
  -1   8   6    5.90    0.47
  -1   8   6    6.13    0.49
  -1   9   6    3.29    0.45
  -2   0   6   40.94    2.01
  -2   0  -6   34.40    2.07
  -2   1  -6   21.87    1.33
  -2  -1   6   25.37    1.28
  -2  -1  -6   20.85    1.37
  -2   1   6   26.67    1.31
  -2  -2   6  168.71    9.29
   2   2  -6  189.76    9.31
  -2   2   6  176.03    9.34
   2  -2   6  193.43    9.30
  -2  -3   6   10.76    0.63
  -2   3   6   11.02    0.69
   2   3  -6   12.28    0.64
   2  -3   6   11.73    0.62
  -2  -4   6   20.51    1.14
   2  -4   6   21.18    1.12
   2   4  -6   22.96    1.15
  -2   4   6   21.66    1.22
  -2  -5   6    5.02    0.31
  -2   5   6    5.63    0.40
   2   6   6   37.81    2.09
  -2   6   6   36.45    2.02
  -2   6   6   36.64    2.00
   2   7   6    0.98    0.23
  -2   7   6    0.78    0.17
  -2   7   6    1.17    0.20
   2   8   6    5.03    0.49
  -2   8   6    4.68    0.41
  -2   8   6    4.67    0.41
  -2   9   6    0.56    0.18
  -3   0   6   57.67    3.00
  -3   0  -6   57.24    3.07
  -3  -1   6   41.80    2.22
  -3   1  -6   41.91    2.28
  -3   1   6   43.85    2.24
  -3  -1  -6   41.55    2.33
  -3  -2   6   54.58    2.92
  -3   2  -6   57.22    2.96
   3  -2   6   60.23    2.92
  -3   2   6   56.02    2.95
  -3  -2  -6   51.91    3.05
  -3   3  -6   28.04    1.51
  -3  -3   6   27.62    1.48
  -3  -3   6   28.42    1.44
   3  -3   6   30.00    1.47
  -3   3   6   27.55    1.52
  -3  -3  -6   24.21    1.63
  -3   4  -6   24.38    1.35
  -3  -4   6   24.53    1.33
   3  -4   6   26.67    1.31
  -3   4   6   24.19    1.36
  -3   4   6   24.59    1.38
  -3  -5   6   11.00    0.63
  -3   5   6   11.32    0.69
  -3   5   6   10.78    0.67
  -3   6   6   11.38    0.73
  -3   6   6   11.82    0.72
  -3   7   6    5.28    0.41
  -3   7   6    4.84    0.41
   3   8   6    3.40    0.45
  -3   8   6    2.92    0.33
  -4   0   6   69.72    3.82
  -4   0  -6   76.74    3.89
  -4   0   6   74.15    3.79
  -4  -1   6    0.17    0.08
  -4  -1   6    0.15    0.06
  -4   1  -6   -0.01    0.09
  -4   1   6    0.08    0.06
  -4  -1  -6    0.01    0.10
  -4   1   6    0.06    0.07
  -4  -2   6   35.79    1.95
  -4  -2   6   37.96    1.91
  -4   2  -6   38.63    1.99
  -4  -2  -6   37.45    2.09
  -4   2   6   36.34    1.95
  -4   2   6   35.04    1.97
  -4  -3   6   -0.01    0.06
  -4   3  -6    0.25    0.10
  -4  -3   6    0.15    0.04
  -4   3   6    0.15    0.09
  -4  -3  -6    0.10    0.15
  -4   3   6    0.09    0.09
  -4   4  -6   40.81    2.07
  -4  -4   6   39.17    2.06
  -4   4   6   39.29    2.09
  -4   4   6   38.54    2.08
  -4  -4  -6   35.18    2.24
  -4  -5   6   -0.03    0.07
  -4  -5  -6    0.11    0.20
  -4   5   6    0.33    0.11
  -4   5   6    0.03    0.09
  -4   6   6   10.81    0.69
  -4   6   6   10.78    0.69
  -4   7   6    0.24    0.13
  -4   7   6    0.20    0.12
  -4  -7  -6    0.24    0.24
  -4   8   6    6.09    0.49
  -5   0   6   94.80    4.91
  -5   0  -6   92.82    4.96
  -5   0   6   96.43    4.88
  -5  -1   6   21.45    1.23
  -5  -1   6   22.69    1.19
  -5   1  -6   22.55    1.27
  -5  -1  -6   21.87    1.31
  -5   1   6   21.86    1.23
  -5   1   6   22.68    1.21
  -5  -2   6   62.25    3.38
  -5   2  -6   64.70    3.40
  -5  -2   6   66.42    3.33
  -5   2   6   66.05    3.40
  -5   2   6   62.73    3.37
  -5  -2  -6   65.23    3.50
  -5   3  -6   15.44    0.89
  -5  -3   6   15.71    0.82
  -5  -3   6   15.44    0.88
  -5  -3  -6   15.12    1.03
  -5   3   6   14.75    0.89
  -5   3   6   15.41    0.89
  -5   4  -6   43.38    2.22
  -5  -4   6   42.62    2.22
  -5  -4  -6   41.07    2.42
  -5   4   6   37.36    2.22
  -5   4   6   43.09    2.24
  -5  -5   6    6.25    0.43
  -5   5   6    6.45    0.46
  -5   5   6    6.00    0.45
  -5  -5  -6    5.75    0.63
  -5   6  -6   13.01    0.90
  -5   6   6   14.78    0.86
  -5  -6  -6   11.61    1.05
  -5   6   6   15.16    0.86
  -5   7   6    2.93    0.32
  -5   7   6    2.51    0.28
  -5  -7  -6    1.41    0.40
  -5   8   6    6.13    0.51
  -6   0   6   32.50    1.80
  -6   0  -6   32.51    1.85
  -6   0   6   34.15    1.77
  -6  -1   6   28.59    1.57
  -6  -1   6   27.58    1.52
  -6   1  -6   29.05    1.60
  -6   1   6   28.83    1.55
  -6  -1  -6   29.87    1.65
  -6   1   6   27.64    1.57
  -6  -2   6   17.56    1.01
  -6   2  -6   16.62    1.03
  -6  -2   6   17.67    0.96
  -6   2   6   17.86    1.02
  -6  -2  -6   18.66    1.13
  -6   2   6   17.33    1.00
  -6  -3   6   22.03    1.26
  -6  -3   6   23.38    1.22
  -6   3  -6   22.63    1.27
  -6  -3  -6   23.16    1.41
  -6   3   6   21.72    1.26
  -6   3   6   21.64    1.27
  -6   4  -6   17.58    1.01
  -6  -4   6   17.51    1.01
  -6  -4  -6   18.57    1.20
  -6   4   6   17.16    1.01
  -6   4   6   16.42    1.02
  -6  -5   6    7.24    0.50
  -6  -5  -6    6.25    0.68
  -6   5   6    7.04    0.51
  -6   5   6    6.96    0.50
  -6   6  -6    5.08    0.49
  -6  -6  -6    4.07    0.62
  -6   6   6    5.79    0.44
  -6   6   6    6.00    0.46
  -6   7   6    5.55    0.45
  -6  -7  -6    3.13    0.58
  -6   7   6    5.18    0.43
  -7   0  -6   26.55    1.57
  -7   0   6   26.53    1.52
  -7   0   6   28.73    1.49
  -7  -1   6   15.67    0.86
  -7   1  -6   15.34    0.94
  -7  -1   6   14.53    0.90
  -7   1   6   13.71    0.90
  -7  -1  -6   15.74    0.99
  -7   1   6   15.95    0.89
  -7  -2   6   18.32    1.00
  -7  -2   6   17.60    1.05
  -7   2  -6   17.61    1.07
  -7  -2  -6   17.17    1.14
  -7   2   6   18.43    1.05
  -7   2   6   17.93    1.03
  -7   3  -6    9.36    0.64
  -7  -3   6    9.25    0.63
  -7   3   6   10.30    0.63
  -7  -3  -6    9.77    0.75
  -7   3   6    9.51    0.63
  -7  -4   6   13.98    0.87
  -7   4  -6   14.50    0.87
  -7   4   6   13.86    0.87
  -7   4   6   14.20    0.88
  -7  -4  -6   14.63    1.05
  -7  -5   6    5.17    0.44
  -7   5   6    5.38    0.44
  -7  -5  -6    5.49    0.64
  -7   5   6    5.10    0.42
  -7   6   6    4.69    0.40
  -7  -6  -6    3.67    0.60
  -8   0  -6    4.92    0.46
  -8   0   6    4.82    0.38
  -8   0   6    4.82    0.40
  -8  -1   6    0.06    0.10
  -8  -1   6    0.05    0.11
  -8   1  -6    0.07    0.12
  -8   1   6    0.09    0.10
  -8   1   6    0.01    0.12
  -8  -1  -6    0.16    0.18
  -8  -2   6   14.09    0.87
  -8   2  -6   13.93    0.89
  -8   2   6   14.30    0.88
  -8  -2  -6   13.02    0.95
  -8   2   6   14.02    0.85
  -8   3  -6   -0.10    0.12
  -8  -3   6    0.00    0.12
  -8   3   6    0.18    0.12
  -8   3   6    0.13    0.14
  -8  -3  -6    0.07    0.20
  -8  -4   6    3.53    0.35
  -8   4  -6    3.24    0.35
  -8   4   6    2.96    0.33
  -8   4   6    3.34    0.35
  -8  -4  -6    2.94    0.49
  -8  -5   6    0.13    0.15
  -8  -5  -6    0.26    0.25
  -8   5   6    0.00    0.13
  -8   5   6    0.09    0.14
  -9   0  -6   10.85    0.79
  -9   0   6   10.03    0.68
  -9   0   6   11.26    0.73
  -9   1  -6    2.41    0.35
  -9  -1   6    2.34    0.27
  -9  -1   6    1.69    0.27
  -9   1   6    2.00    0.28
  -9   1   6    2.39    0.29
  -9  -1  -6    2.08    0.36
  -9  -2   6   11.31    0.78
  -9   2  -6   11.29    0.80
  -9   2   6   12.31    0.79
  -9   2   6   11.26    0.76
  -9  -2  -6   12.27    0.90
  -9   3  -6    1.16    0.25
  -9  -3   6    1.48    0.27
  -9   3   6    1.35    0.23
  -9   3   6    1.50    0.25
  -9  -3  -6    1.43    0.36
  -9  -4   6    5.58    0.49
  -9  -4  -6    3.75    0.57
  -9   4   6    5.21    0.46
  -9   4   6    5.69    0.47
 -10   0   6    6.33    0.53
 -10   0  -6    6.60    0.61
 -10   0   6    5.89    0.49
 -10  -1   6    1.33    0.26
 -10   1  -6    1.29    0.30
 -10   1   6    1.73    0.26
 -10  -1  -6    1.94    0.37
 -10   1   6    1.76    0.28
 -10   2  -6    1.11    0.25
 -10  -2   6    0.54    0.20
 -10   2   6    1.02    0.22
   0   0   7   -0.01    0.06
   0   1   7   78.85    4.11
   0  -1   7   79.01    4.08
   0  -2   7    0.03    0.05
   0  -2   7    0.00    0.08
   0   2   7   -0.06    0.07
   0  -3   7   69.56    3.50
   0  -3   7   72.76    3.54
   0  -3   7   63.17    3.54
   0   3   7   67.05    3.59
   0   4   7    0.01    0.10
   0  -4   7    0.07    0.06
   0   5   7   19.92    1.18
   0   6   7    0.07    0.13
   0   7   7   15.20    0.98
   0   8   7   -0.08    0.11
   0   8   7   -0.24    0.12
  -1   0   7   94.03    4.86
  -1  -1   7   49.44    2.67
   1  -1   7   48.66    2.68
  -1   1   7   50.96    2.70
   1   1  -7   51.75    2.70
   1  -1   7   55.20    2.73
  -1  -2   7    0.05    0.05
  -1   2   7    0.09    0.07
   1  -2   7    0.16    0.08
   1   2  -7    0.17    0.06
   1  -2   7    0.12    0.06
   1   3   7   29.53    1.81
  -1  -3   7   32.85    1.72
   1  -3   7   36.60    1.72
   1   3  -7   31.74    1.73
   1  -3   7   34.38    1.72
  -1   3   7   31.51    1.79
  -1  -4   7   41.56    2.12
   1   4   7   39.54    2.24
  -1  -4   7   39.84    2.11
  -1   4   7   42.73    2.23
   1   5   7   14.42    0.90
  -1   5   7   13.37    0.86
   1   6   7    1.05    0.24
   1   7   7    4.86    0.48
  -1   7   7    5.47    0.46
   1   8   7    6.56    0.56
  -1   8   7    6.04    0.51
  -1   8   7    5.89    0.47
  -2  -1   7   20.34    1.04
  -2   1   7   21.05    1.06
  -2  -1  -7   14.22    1.12
  -2  -2   7   74.51    3.90
  -2   2   7   76.81    3.95
  -2  -3   7    5.37    0.34
  -2   3   7    4.91    0.39
   2  -3   7    5.83    0.33
   2   3  -7    5.99    0.36
  -2  -4   7   32.50    1.76
   2   4  -7   34.74    1.77
  -2   4   7   32.53    1.84
   2  -4   7   34.59    1.74
  -2  -5   7    6.05    0.36
  -2   5   7    6.62    0.47
   2   6   7   16.52    1.05
  -2   6   7   16.05    0.95
  -2   6   7   15.71    0.98
   2   7   7   -0.05    0.15
  -2   7   7    0.03    0.12
  -2   7   7    0.15    0.13
   2   8   7    3.62    0.44
  -2   8   7    3.89    0.38
  -2   8   7    3.56    0.36
  -3   0   7    2.28    0.21
  -3   0  -7    2.43    0.29
  -3   1  -7   17.51    1.02
  -3  -1   7   17.08    0.94
  -3   1   7   17.05    0.96
  -3  -1  -7   15.40    1.05
  -3   2  -7   33.62    1.88
  -3  -2   7   34.83    1.82
  -3  -2  -7   30.83    1.96
  -3   2   7   37.10    1.86
  -3  -3   7   12.49    0.71
  -3   3  -7   11.43    0.76
  -3   3   7   12.19    0.75
   3  -3   7   13.64    0.70
  -3   4  -7    0.56    0.13
  -3  -4   7    0.85    0.11
  -3   4   7    0.49    0.13
  -3  -4  -7    0.71    0.25
  -3  -5   7    4.20    0.29
  -3   5   7    4.67    0.37
  -3   5   7    4.63    0.36
  -3   6   7    9.06    0.62
  -3   6   7    9.80    0.64
   3   7   7    2.00    0.34
  -3   7   7    2.28    0.29
  -3   7   7    2.40    0.29
   3   8   7    0.31    0.20
  -3   8   7    0.31    0.16
  -3   8   7    0.03    0.13
  -4   0   7    3.64    0.26
  -4   0   7    3.56    0.28
  -4   0  -7    4.00    0.37
  -4   1  -7   48.14    2.50
  -4  -1   7   47.69    2.43
  -4  -1   7   45.84    2.39
  -4  -1  -7   45.35    2.54
  -4   1   7   44.64    2.41
  -4   1   7   44.09    2.44
  -4   2  -7    0.58    0.15
  -4  -2   7    0.64    0.09
  -4  -2   7    0.60    0.11
  -4  -2  -7    0.61    0.21
  -4   2   7    0.79    0.13
  -4   2   7    0.65    0.13
  -4  -3   7   26.34    1.35
  -4  -3   7   25.75    1.41
  -4   3  -7   26.19    1.45
  -4   3   7   27.23    1.43
  -4  -3  -7   23.43    1.58
  -4   3   7   26.38    1.45
  -4  -4   7    1.29    0.16
  -4   4  -7    1.27    0.19
  -4   4   7    1.47    0.20
  -4   4   7    1.53    0.20
  -4  -4  -7    0.93    0.30
  -4  -5   7   19.72    1.14
  -4   5   7   21.97    1.21
  -4   5   7   20.78    1.19
  -4   6   7   -0.05    0.11
  -4   6   7   -0.07    0.10
  -4  -6  -7    0.10    0.20
  -4   7   7    3.33    0.35
  -4   7   7    3.65    0.36
   4   8   7    0.20    0.19
  -4   8   7    0.30    0.17
  -4   8   7    0.39    0.26
  -5   0   7    2.33    0.23
  -5   0  -7    1.49    0.25
  -5   0   7    2.51    0.20
  -5   1  -7   34.27    1.85
  -5  -1   7   34.26    1.75
  -5  -1   7   33.47    1.79
  -5   1   7   32.16    1.76
  -5  -1  -7   32.06    1.88
  -5   1   7   31.67    1.79
  -5  -2   7   16.09    0.89
  -5  -2   7   14.89    0.84
  -5   2  -7   15.50    0.93
  -5   2   7   15.51    0.89
  -5  -2  -7   14.87    1.02
  -5   2   7   15.71    0.91
  -5  -3   7   21.05    1.17
  -5   3  -7   20.73    1.20
  -5  -3   7   21.57    1.11
  -5   3   7   20.67    1.18
  -5  -3  -7   20.84    1.36
  -5   3   7   20.82    1.20
  -5   4  -7    1.27    0.21
  -5  -4   7    1.41    0.18
  -5   4   7    1.48    0.21
  -5  -4  -7    1.02    0.31
  -5   4   7    1.25    0.20
  -5  -5   7   11.64    0.72
  -5  -5  -7    9.86    0.93
  -5   5   7   13.21    0.76
  -5   5   7   12.83    0.77
  -5   6   7    4.18    0.36
  -5  -6  -7    2.90    0.54
  -5   6   7    3.94    0.36
  -5   7   7    3.55    0.35
  -5   7   7    3.46    0.35
  -5  -7  -7    2.33    0.51
  -6   0   7    8.84    0.54
  -6   0   7    8.86    0.58
  -6   0  -7    8.72    0.64
  -6  -1   7    1.73    0.22
  -6   1  -7    1.40    0.23
  -6  -1   7    1.51    0.17
  -6   1   7    1.29    0.17
  -6  -1  -7    1.86    0.30
  -6   1   7    1.77    0.22
  -6  -2   7    3.43    0.25
  -6   2  -7    3.28    0.34
  -6  -2   7    3.37    0.30
  -6   2   7    2.90    0.28
  -6  -2  -7    3.22    0.40
  -6   2   7    3.50    0.31
  -6   3  -7    1.91    0.26
  -6  -3   7    1.86    0.23
  -6   3   7    1.98    0.25
  -6   3   7    1.83    0.22
  -6  -3  -7    1.63    0.33
  -6  -4   7    4.45    0.36
  -6   4  -7    4.31    0.37
  -6   4   7    4.48    0.37
  -6  -4  -7    3.70    0.54
  -6   4   7    3.95    0.36
  -6  -5   7    0.03    0.11
  -6   5   7    0.16    0.13
  -6  -5  -7    0.07    0.22
  -6   5   7    0.08    0.12
  -6   6   7    0.65    0.18
  -6   6   7    0.57    0.17
  -6  -6  -7    0.73    0.34
  -6   7   7    0.70    0.21
  -6   7   7    0.97    0.21
  -6  -7  -7    0.52    0.32
  -7   0   7   12.82    0.80
  -7   0   7   13.24    0.76
  -7   0  -7   12.50    0.86
  -7  -1   7    6.53    0.44
  -7   1  -7    6.91    0.54
  -7  -1   7    6.52    0.48
  -7   1   7    6.05    0.48
  -7  -1  -7    6.85    0.58
  -7   1   7    7.10    0.46
  -7   2  -7    0.03    0.13
  -7  -2   7    0.06    0.08
  -7  -2   7    0.06    0.11
  -7   2   7    0.03    0.11
  -7   2   7    0.06    0.10
  -7  -2  -7    0.09    0.18
  -7  -3   7    3.86    0.35
  -7   3  -7    3.52    0.38
  -7  -3  -7    4.25    0.53
  -7   3   7    4.45    0.36
  -7   3   7    4.19    0.37
  -7  -4   7    6.94    0.50
  -7   4  -7    6.38    0.50
  -7  -4  -7    5.34    0.62
  -7   4   7    6.22    0.48
  -7   4   7    7.25    0.51
  -7  -5   7    2.78    0.33
  -7  -5  -7    2.78    0.49
  -7   5   7    2.66    0.32
  -7   5   7    3.31    0.34
  -7   6   7    0.19    0.14
  -7  -6  -7    0.01    0.24
  -7   6   7    0.09    0.14
  -8   0   7    0.21    0.10
  -8   0  -7    0.18    0.17
  -8   0   7    0.26    0.14
  -8  -1   7    8.06    0.58
  -8   1  -7    7.55    0.63
  -8  -1   7    8.17    0.54
  -8   1   7    8.72    0.56
  -8  -1  -7    8.45    0.68
  -8   1   7    8.44    0.60
  -8   2  -7    1.05    0.24
  -8  -2   7    1.19    0.22
  -8  -2  -7    1.38    0.31
  -8   2   7    1.23    0.23
  -8   2   7    1.60    0.22
  -8   3  -7    8.03    0.60
  -8  -3   7    8.16    0.58
  -8  -3  -7    8.59    0.75
  -8   3   7    7.85    0.58
  -8   3   7    6.88    0.55
  -8  -4   7    0.07    0.12
  -8  -4  -7    0.05    0.24
  -8   4   7    0.18    0.13
  -8   4   7    0.04    0.13
  -8  -5   7    3.03    0.35
  -8   5   7    2.57    0.33
  -8   5   7    2.85    0.35
  -8  -5  -7    2.43    0.50
  -9   0  -7    1.97    0.34
  -9   0   7    2.41    0.32
  -9   0   7    1.91    0.25
  -9  -1   7    3.32    0.37
  -9   1  -7    3.93    0.45
  -9   1   7    4.28    0.36
  -9  -1  -7    3.67    0.45
  -9   1   7    3.80    0.39
  -9   2  -7    0.61    0.22
  -9  -2   7    0.51    0.19
  -9   2   7    0.60    0.19
  -9   2   7    0.41    0.17
  -9  -2  -7    0.35    0.22
  -9  -3   7    3.60    0.38
  -9   3  -7    3.43    0.39
  -9   3   7    3.68    0.36
  -9   3   7    2.88    0.34
  -9  -3  -7    2.95    0.49
  -9  -4   7    1.00    0.23
  -9   4   7    1.04    0.22
  -9   4   7    1.14    0.36
 -10   0  -7    3.31    0.48
 -10   0   7    2.62    0.33
 -10   1  -7    0.12    0.20
 -10   1   7    0.06    0.14
   0   0   8   42.96    2.28
   0  -1   8    0.06    0.06
   0   1   8   -0.01    0.07
   0   2   8  220.43   11.38
   0  -2   8  222.35   11.32
   0  -3   8    0.20    0.06
   0   3   8    0.00    0.09
   0  -3   8    0.10    0.09
   0  -4   8   20.58    1.13
   0   4   8   23.65    1.29
   0   5   8    0.07    0.11
   0   6   8   60.18    3.27
   0   7   8    0.22    0.15
   0   8   8    1.37    0.28
   1   0   8    5.24    0.35
  -1   0   8    4.29    0.33
   1   1   8   12.14    0.76
  -1  -1   8   12.67    0.73
   1  -1   8   12.74    0.74
  -1   1   8   12.84    0.75
  -1  -2   8    4.22    0.29
   1   2   8    4.08    0.36
  -1   2   8    4.28    0.35
   1  -2   8    4.41    0.30
   1  -2   8    4.88    0.35
  -1  -3   8   13.82    0.77
   1   3   8   14.31    0.88
  -1   3   8   13.46    0.84
   1  -3   8   15.43    0.79
   1  -3   8   14.10    0.77
   1   3  -8   12.75    0.77
  -1  -4   8    2.07    0.15
   1   4   8    2.51    0.28
  -1  -4   8    1.48    0.19
  -1  -4   8    2.22    0.18
   1  -4   8    2.31    0.14
  -1   4   8    2.48    0.27
   1   5   8    1.06    0.23
  -1   5   8    1.05    0.21
   1   6   8    0.79    0.21
  -1   6   8    0.89    0.21
   1   7   8    4.23    0.43
  -1   7   8    3.56    0.39
   1   8   8    0.43    0.20
  -1   8   8    0.47    0.19
  -1   8   8    0.29    0.16
  -2   0   8   44.42    2.36
  -2   1  -8   44.85    2.46
  -2  -1  -8   44.66    2.51
  -2   2  -8    2.45    0.26
  -2  -2  -8    2.13    0.33
  -2  -3   8   52.33    2.77
  -2   3   8   50.91    2.84
   2  -3   8   51.88    2.78
   2  -3   8   58.01    2.77
  -2  -4   8   19.82    1.10
  -2   4   8   19.64    1.19
   2  -4   8   21.77    1.10
   2   4  -8   21.18    1.16
   2   5   8   27.32    1.60
  -2   5   8   26.74    1.54
   2   6   8    1.55    0.28
  -2   6   8    1.65    0.25
   2   7   8    8.93    0.72
  -2   7   8    9.62    0.67
  -2   7   8    9.06    0.63
   2   8   8    3.71    0.45
  -2   8   8    3.79    0.40
  -2   8   8    3.83    0.39
  -3   0   8    2.17    0.21
  -3   0  -8    1.80    0.30
  -3  -1   8    6.37    0.39
  -3   1  -8    5.00    0.46
  -3   1   8    6.38    0.41
  -3  -1  -8    4.75    0.48
  -3   2  -8    1.69    0.25
  -3  -2   8    2.21    0.19
  -3  -2  -8    1.48    0.30
  -3   2   8    1.91    0.21
  -3   3  -8    0.70    0.16
  -3  -3   8    0.80    0.12
  -3   3   8    1.17    0.18
  -3  -3  -8    0.57    0.22
  -3  -4   8    1.02    0.13
  -3   4  -8    0.44    0.13
  -3  -4  -8    0.77    0.28
  -3   4   8    1.04    0.18
  -3  -5   8    3.17    0.26
  -3   5   8    3.17    0.30
  -3   5   8    3.55    0.33
  -3   6   8    0.67    0.17
  -3   6   8    0.55    0.16
   3   7   8    0.16    0.17
  -3   7   8   -0.02    0.12
  -3   7   8   -0.02    0.11
   3   8   8    0.23    0.20
  -3   8   8    0.13    0.16
  -3   8   8    0.35    0.17
  -4   0   8  127.02    6.39
  -4   0  -8  120.13    6.50
  -4  -1   8    0.93    0.14
  -4   1  -8    1.22    0.23
  -4  -1  -8    1.00    0.23
  -4   1   8    1.15    0.17
  -4  -2   8   16.74    0.89
  -4  -2   8   17.04    0.93
  -4   2  -8   17.02    1.02
  -4  -2  -8   14.74    1.08
  -4   2   8   15.93    0.96
  -4  -3   8    1.28    0.11
  -4   3  -8    0.76    0.18
  -4  -3   8    1.07    0.15
  -4  -3  -8    0.54    0.23
  -4   3   8    0.87    0.16
  -4   3   8    1.03    0.17
  -4   4  -8   56.00    3.33
  -4  -4   8   65.87    3.29
  -4   4   8   69.27    3.35
  -4   4   8   60.16    3.31
  -4  -5   8    0.32    0.10
  -4  -5  -8   -0.04    0.18
  -4   5   8    0.32    0.13
  -4   5   8    0.52    0.15
  -4   6   8    4.16    0.36
  -4   6   8    3.97    0.36
  -4  -6  -8    2.10    0.48
  -4   7   8    0.14    0.13
  -4   7   8    0.10    0.13
  -4  -7  -8    0.23    0.23
   4   8   8   10.26    0.87
  -4   8   8   11.77    0.78
  -4   8   8   11.89    0.78
  -5   0  -8    4.00    0.42
  -5   0   8    4.54    0.34
  -5   0   8    4.08    0.30
  -5   1  -8    2.50    0.32
  -5  -1   8    2.35    0.24
  -5  -1   8    2.21    0.20
  -5  -1  -8    2.57    0.37
  -5   1   8    2.47    0.23
  -5   1   8    2.80    0.26
  -5  -2   8    3.37    0.28
  -5  -2   8    3.47    0.23
  -5   2  -8    2.73    0.33
  -5  -2  -8    3.63    0.46
  -5   2   8    2.98    0.29
  -5   2   8    3.10    0.27
  -5  -3   8    0.34    0.12
  -5  -3   8    0.46    0.08
  -5   3  -8    0.27    0.14
  -5   3   8    0.35    0.13
  -5  -3  -8    0.47    0.22
  -5   3   8    0.22    0.12
  -5  -4   8    2.08    0.23
  -5   4  -8    2.07    0.27
  -5   4   8    1.92    0.24
  -5   4   8    2.02    0.26
  -5  -4  -8    1.96    0.39
  -5  -5   8    1.80    0.21
  -5   5   8    1.54    0.22
  -5  -5  -8    0.88    0.31
  -5   5   8    1.82    0.25
  -5  -6  -8    0.29    0.28
  -5   6   8    0.78    0.19
  -5   6   8    0.87    0.19
  -5  -7  -8    0.34    0.27
  -5   7   8    0.01    0.14
  -5   7   8    0.08    0.15
  -6   0   8    1.11    0.16
  -6   0  -8    1.55    0.28
  -6   0   8    1.33    0.19
  -6   1  -8   14.71    0.95
  -6  -1   8   14.37    0.87
  -6  -1   8   14.45    0.82
  -6   1   8   14.73    0.88
  -6  -1  -8   14.99    1.00
  -6   1   8   14.08    0.84
  -6  -2   8    9.75    0.55
  -6  -2   8    9.38    0.60
  -6   2  -8    9.22    0.66
  -6   2   8    9.27    0.62
  -6   2   8    9.43    0.59
  -6  -2  -8    8.45    0.73
  -6   3  -8    9.93    0.70
  -6  -3   8   10.41    0.66
  -6   3   8   10.47    0.67
  -6  -3  -8    9.05    0.81
  -6   3   8   11.02    0.66
  -6   4  -8    1.24    0.23
  -6  -4   8    0.97    0.18
  -6   4   8    0.93    0.20
  -6   4   8    1.14    0.19
  -6  -4  -8    0.84    0.32
  -6  -5   8    4.19    0.36
  -6   5   8    4.48    0.37
  -6   5   8    4.19    0.38
  -6  -5  -8    3.42    0.57
  -6   6   8    2.76    0.32
  -6  -6  -8    2.05    0.48
  -6   6   8    3.05    0.33
  -7   0  -8    1.91    0.32
  -7   0   8    2.65    0.24
  -7   0   8    2.42    0.28
  -7   1  -8    1.25    0.25
  -7  -1   8    1.15    0.16
  -7  -1   8    1.01    0.19
  -7   1   8    1.44    0.22
  -7   1   8    0.98    0.17
  -7  -1  -8    0.94    0.26
  -7  -2   8    1.92    0.24
  -7  -2   8    1.60    0.23
  -7   2  -8    2.04    0.30
  -7   2   8    1.99    0.24
  -7  -2  -8    1.62    0.34
  -7   2   8    1.88    0.26
  -7   3  -8    1.57    0.27
  -7  -3   8    1.39    0.22
  -7  -3  -8    2.04    0.42
  -7   3   8    1.69    0.25
  -7   3   8    1.58    0.23
  -7  -4   8    1.42    0.23
  -7   4   8    1.56    0.25
  -7   4   8    1.67    0.24
  -7  -4  -8    1.83    0.41
  -7  -5   8   -0.04    0.12
  -7   5   8    0.18    0.14
  -7   5   8    0.16    0.13
  -7  -5  -8    0.33    0.25
  -7  -6  -8    0.42    0.33
  -7   6   8    0.57    0.19
  -8   0  -8    4.32    0.49
  -8   0   8    4.53    0.37
  -8   0   8    5.36    0.42
  -8   1  -8    0.63    0.23
  -8  -1   8    0.31    0.12
  -8  -1   8    0.45    0.15
  -8   1   8    0.32    0.13
  -8   1   8    0.46    0.17
  -8  -1  -8    0.72    0.26
  -8   2  -8   21.61    1.34
  -8  -2   8   23.59    1.29
  -8  -2  -8   21.62    1.44
  -8   2   8   20.99    1.28
  -8   2   8   21.03    1.25
  -8   3  -8    0.38    0.19
  -8  -3   8    0.37    0.16
  -8   3   8    0.21    0.15
  -8  -3  -8    0.41    0.26
  -8   3   8    0.34    0.16
  -8  -4   8    2.71    0.33
  -8  -4  -8    1.80    0.43
  -8   4   8    2.78    0.33
  -8   4   8    2.97    0.33
  -8  -5   8    0.27    0.26
  -8  -5  -8    0.54    0.48
  -8   5   8    0.39    0.18
  -9   0   8    0.37    0.17
  -9   0  -8    0.37    0.23
  -9   0   8    0.47    0.15
  -9  -1   8    0.10    0.13
  -9   1  -8    0.32    0.21
  -9  -1  -8    0.25    0.23
  -9   1   8    0.46    0.16
  -9   1   8    0.06    0.14
  -9   2  -8    0.42    0.21
  -9  -2   8    0.48    0.18
  -9  -2  -8    0.06    0.21
  -9   2   8    0.47    0.20
  -9   2   8    0.40    0.18
  -9   3  -8    0.44    0.21
  -9  -3   8    0.51    0.19
  -9  -3  -8    0.63    0.32
  -9   3   8    0.58    0.18
  -9   3   8    0.42    0.18
   0   0   9   -0.03    0.06
   0   1   9    4.65    0.36
   0  -1   9    4.48    0.33
   0   2   9   -0.06    0.08
   0  -2   9    0.13    0.08
   0  -3   9    3.13    0.28
   0   3   9    2.99    0.31
   0  -3   9    2.81    0.22
   0  -4   9    0.00    0.04
   0   4   9   -0.02    0.09
   0   5   9    2.83    0.33
   0   6   9   -0.11    0.12
   0   7   9    0.30    0.18
   0   8   9   -0.12    0.14
   1   0   9    2.51    0.24
  -1   0   9    2.74    0.24
  -1  -1   9   34.06    1.81
   1   1   9   33.40    1.85
   1  -1   9   32.63    1.81
  -1   1   9   34.58    1.84
   1   2   9  159.07    8.74
  -1  -2   9  173.34    8.68
  -1   2   9  169.01    8.73
   1  -2   9  174.87    8.68
  -1  -3   9   24.16    1.37
   1   3   9   25.36    1.48
   1  -3   9   27.69    1.40
   1  -3   9   25.76    1.38
  -1   3   9   25.28    1.46
   1   4   9    2.17    0.29
  -1  -4   9    2.22    0.17
  -1   4   9    2.32    0.28
   1  -4   9    2.25    0.16
   1   5   9   13.86    0.94
  -1   5   9   14.56    0.92
   1   6   9   50.55    2.75
  -1   6   9   47.90    2.71
   1   7   9    4.30    0.47
  -1   7   9    4.22    0.43
   1   8   9    0.62    0.23
  -1   8   9    0.93    0.21
  -1   8   9    0.80    0.24
  -2   0   9    9.27    0.58
  -2   1  -9    0.31    0.15
  -2  -1   9    0.86    0.13
  -2  -1  -9    0.42    0.18
  -2   1   9    0.91    0.15
  -2  -2   9   10.54    0.63
  -2   2   9   10.93    0.68
  -2  -3   9    0.26    0.08
  -2  -3  -9    0.03    0.12
   2  -3   9    0.26    0.09
  -2   3   9    0.30    0.13
   2  -3   9    0.22    0.08
  -2  -4   9    4.45    0.30
   2   4   9    4.59    0.43
   2  -4   9    4.93    0.30
  -2   4   9    4.69    0.40
   2   5   9    0.56    0.20
  -2   5   9    0.48    0.17
   2   6   9    3.57    0.42
  -2   6   9    3.02    0.36
   2   7   9   -0.02    0.15
  -2   7   9    0.05    0.12
  -2   7   9    0.20    0.15
   2   8   9    1.22    0.30
  -2   8   9    1.02    0.22
  -2   8   9    0.84    0.23
  -3  -1   9   17.99    1.04
  -3   1   9   19.17    1.07
  -3  -2   9    0.31    0.09
  -3   2  -9    0.18    0.13
  -3  -2  -9    0.07    0.16
  -3   2   9    0.30    0.11
  -3  -3   9   11.78    0.69
  -3   3   9   11.90    0.75
  -3  -4   9   82.28    4.36
  -3   4   9   86.03    4.44
   3  -4   9   84.53    4.36
  -3   5   9    8.26    0.59
   3   6   9    0.64    0.23
  -3   6   9    0.47    0.16
  -3   6   9    0.34    0.16
   3   7   9    2.02    0.36
  -3   7   9    1.77    0.27
  -3   7   9    2.02    0.31
   3   8   9   14.69    1.03
  -3   8   9   13.74    0.92
  -3   8   9   13.08    0.90
  -4   0  -9    0.25    0.17
  -4   0   9    0.21    0.10
  -4  -1   9   13.97    0.78
  -4   1  -9   12.14    0.87
  -4  -1  -9   11.03    0.90
  -4   1   9   13.76    0.79
  -4  -2   9    1.32    0.17
  -4   2  -9    1.11    0.23
  -4   2   9    0.94    0.16
  -4  -2  -9    0.78    0.26
  -4  -3   9   10.81    0.61
  -4  -3   9   10.53    0.55
  -4   3  -9    7.61    0.66
  -4  -3  -9    7.59    0.77
  -4   3   9   10.82    0.66
  -4  -4   9    0.13    0.09
  -4   4  -9    0.03    0.11
  -4   4   9    0.10    0.12
  -4   4   9    0.06    0.09
  -4  -4  -9    0.16    0.21
  -4  -5  -9    2.22    0.48
  -4   5   9    3.92    0.35
  -4   5   9    3.75    0.35
  -4   6   9    0.27    0.14
  -4   6   9    0.32    0.15
  -4  -6  -9    0.08    0.24
  -4   7   9    2.48    0.32
  -4   7   9    2.14    0.31
  -5   0   9   69.49    3.61
  -5   0  -9   64.70    3.73
  -5   0   9   71.09    3.58
  -5  -1   9   16.94    0.99
  -5  -1   9   17.42    0.94
  -5   1  -9   17.26    1.10
  -5  -1  -9   16.08    1.12
  -5   1   9   17.01    0.96
  -5   1   9   16.61    0.99
  -5  -2   9    2.60    0.21
  -5  -2   9    2.74    0.26
  -5   2  -9    2.39    0.34
  -5  -2  -9    2.70    0.43
  -5   2   9    2.46    0.25
  -5   2   9    2.53    0.27
  -5  -3   9   15.65    0.88
  -5   3  -9   13.64    0.95
  -5   3   9   15.34    0.91
  -5   3   9   16.36    0.90
  -5  -3  -9   12.58    1.06
  -5  -4   9   35.07    1.83
  -5   4   9   34.01    1.85
  -5   4   9   36.94    1.89
  -5  -4  -9   26.82    2.04
  -5   5   9    6.45    0.47
  -5   5   9    5.34    0.46
  -5   6   9    1.56    0.24
  -5   6   9    1.64    0.26
  -5  -6  -9    0.64    0.33
  -5   7   9    3.21    0.37
  -5   7   9    3.16    0.38
  -6   0  -9   13.97    0.97
  -6   0   9   14.21    0.81
  -6   0   9   13.47    0.84
  -6  -1   9    0.48    0.11
  -6   1  -9    0.50    0.20
  -6  -1   9    0.45    0.14
  -6   1   9    0.63    0.16
  -6  -1  -9    0.27    0.18
  -6   1   9    0.48    0.12
  -6  -2   9    7.26    0.45
  -6   2  -9    7.11    0.59
  -6  -2   9    6.99    0.50
  -6   2   9    7.48    0.53
  -6   2   9    7.77    0.50
  -6  -2  -9    6.17    0.66
  -6   3  -9    0.12    0.16
  -6  -3   9    0.29    0.12
  -6   3   9    0.29    0.12
  -6   3   9    0.32    0.14
  -6  -3  -9    0.18    0.22
  -6  -4   9    7.44    0.50
  -6  -4  -9    5.98    0.71
  -6   4   9    6.42    0.50
  -6   4   9    7.06    0.53
  -6   5   9    0.36    0.16
  -6   5   9    0.13    0.15
  -6  -5  -9    0.13    0.25
  -6   6   9    2.18    0.29
  -6  -6  -9    1.15    0.39
  -6   6   9    1.89    0.29
  -7   0  -9    0.23    0.19
  -7   0   9    0.03    0.09
  -7   0   9    0.17    0.13
  -7   1  -9    3.74    0.45
  -7  -1   9    4.14    0.32
  -7  -1   9    4.52    0.38
  -7   1   9    4.31    0.35
  -7  -1  -9    4.16    0.50
  -7   1   9    4.20    0.37
  -7   2  -9   40.19    2.22
  -7  -2   9   39.61    2.13
  -7  -2  -9   36.99    2.31
  -7   2   9   39.51    2.11
  -7   2   9   37.59    2.13
  -7   3  -9    4.15    0.45
  -7  -3   9    3.99    0.37
  -7   3   9    4.08    0.37
  -7   3   9    4.71    0.41
  -7  -3  -9    4.13    0.58
  -7  -4   9    0.06    0.12
  -7   4   9    0.14    0.13
  -7   4   9    0.04    0.13
  -7  -4  -9    0.43    0.29
  -7   5   9    1.32    0.24
  -7   5   9    1.23    0.23
  -7  -5  -9    1.30    0.42
  -8   0  -9    0.61    0.25
  -8   0   9    0.50    0.18
  -8   0   9    0.71    0.16
  -8  -1   9    4.68    0.42
  -8  -1   9    4.47    0.36
  -8   1  -9    4.10    0.49
  -8  -1  -9    4.71    0.53
  -8   1   9    5.26    0.43
  -8   1   9    4.47    0.37
  -8  -2   9    2.24    0.30
  -8   2  -9    2.68    0.39
  -8  -2  -9    2.41    0.46
  -8   2   9    2.27    0.31
  -8   2   9    2.18    0.28
  -8  -3   9    3.02    0.34
  -8   3  -9    3.50    0.44
  -8   3   9    3.18    0.36
  -8  -3  -9    2.78    0.50
  -8   3   9    3.46    0.36
  -8  -4   9    0.40    0.17
  -8   4   9    0.51    0.18
  -8   4   9    0.24    0.15
  -8  -4  -9    0.30    0.26
  -9   0   9    0.28    0.14
  -9   0  -9    0.41    0.23
  -9   0   9    0.45    0.19
  -9   1  -9    3.38    0.47
  -9  -1   9    3.92    0.40
  -9   1   9    3.79    0.37
  -9  -1  -9    3.14    0.51
  -9   1   9    4.05    0.41
  -9   2  -9    8.71    0.75
  -9  -2   9    8.92    0.67
  -9   2   9    9.47    0.70
  -9   2   9    9.83    0.66
  -9  -2  -9    9.44    0.86
   0   0  10    0.99    0.17
   0  -1  10    0.00    0.07
   0   1  10   -0.03    0.08
   0  -2  10   31.24    1.76
   0   2  10   34.47    1.83
   0   3  10    0.06    0.12
   0  -3  10   -0.03    0.06
   0   4  10    0.32    0.15
   0  -4  10    0.31    0.07
   0   5  10   -0.10    0.12
   0   6  10    8.32    0.65
   0   7  10   -0.17    0.14
   0   8  10    0.10    0.19
  -1   0  10   23.61    1.32
   1   0  10   23.42    1.33
  -1  -1  10   57.92    2.96
   1   1  10   54.32    2.99
   1  -1  10   55.26    2.96
  -1   1  10   56.43    2.98
   1   2  10   22.41    1.34
  -1  -2  10   22.39    1.27
  -1   2  10   24.03    1.34
   1  -2  10   23.85    1.28
   1   3  10   47.85    2.54
  -1  -3  10   45.49    2.42
   1  -3  10   46.86    2.43
  -1   3  10   44.12    2.50
   1   4  10   12.68    0.83
  -1  -4  10   11.35    0.67
  -1   4  10   12.83    0.81
   1  -4  10   11.75    0.69
   1   5  10   15.31    1.04
  -1   5  10   16.87    1.04
   1   6  10    6.08    0.56
  -1   6  10    6.02    0.54
   1   7  10   11.90    0.89
  -1   7  10   12.57    0.87
   1   8  10    1.51    0.33
  -1   8  10    0.96    0.26
  -2   0  10   10.76    0.67
  -2  -1  10   15.56    0.84
   2  -1  10   13.35    0.84
  -2   1  10   13.45    0.85
  -2  -2  10    8.05    0.50
   2  -2  10    7.45    0.51
  -2   2  10    7.91    0.55
   2   3  10    9.08    0.67
  -2  -3  10    9.14    0.55
   2  -3  10    9.52    0.57
  -2   3  10    8.79    0.62
   2   4  10    5.58    0.50
  -2  -4  10    5.30    0.35
  -2   4  10    5.76    0.45
   2   5  10    5.73    0.52
  -2   5  10    5.61    0.48
   2   6  10    1.82    0.33
  -2   6  10    2.58    0.34
   2   7  10    1.36    0.32
  -2   7  10    1.29    0.26
   2   8  10    0.88    0.29
  -2   8  10    0.87    0.26
  -2   8  10    1.31    0.25
  -3   0  10   15.85    0.93
  -3  -1  10   29.35    1.61
  -3   1  10   29.36    1.63
  -3  -2  10   17.51    0.98
  -3   2  10   16.89    1.02
  -3  -3  10   16.00    0.93
  -3   3  10   17.01    1.00
  -3  -4  10    6.52    0.43
  -3   4  10    7.25    0.53
  -3   5  10   13.95    0.90
   3   6  10    4.07    0.46
  -3   6  10    4.23    0.41
  -3   6  10    3.53    0.37
   3   7  10    2.19    0.40
  -3   7  10    2.65    0.33
  -3   7  10    2.24    0.34
  -4   0  10   14.31    0.79
  -4   0 -10   10.57    0.89
  -4   1 -10   -0.01    0.14
  -4  -1  10    0.41    0.11
  -4   1  10    0.24    0.12
  -4  -1 -10    0.09    0.16
  -4  -2  10    1.29    0.18
  -4   2 -10    0.94    0.23
  -4  -2 -10    0.70    0.25
  -4   2  10    0.88    0.18
  -4  -3  10    0.33    0.10
  -4   3 -10    0.23    0.15
  -4  -3  10    0.43    0.08
  -4  -3 -10    0.23    0.22
  -4   3  10    0.50    0.14
  -4  -4  10    7.66    0.51
  -4   4  10    8.23    0.58
  -4   5  10    0.16    0.12
  -4  -5 -10    0.08    0.24
  -4   5  10    0.03    0.13
  -4   6  10    0.30    0.17
  -4  -6 -10    0.43    0.28
  -4   6  10    0.30    0.16
   4   7  10    0.14    0.20
  -4   7  10    0.20    0.16
  -4   7  10    0.05    0.15
  -5   0 -10   22.56    1.56
  -5   0  10   27.09    1.45
  -5   0  10   26.37    1.40
  -5  -1  10   20.27    1.13
  -5   1 -10   17.79    1.24
  -5  -1  10   20.72    1.08
  -5   1  10   20.01    1.14
  -5  -1 -10   17.22    1.28
  -5   1  10   19.78    1.10
  -5  -2  10   16.23    0.92
  -5  -2  10   15.90    0.86
  -5   2 -10   14.94    1.03
  -5   2  10   15.60    0.91
  -5   2  10   16.36    0.95
  -5  -2 -10   12.94    1.08
  -5  -3  10   10.83    0.65
  -5   3 -10    8.85    0.73
  -5   3  10   11.43    0.70
  -5   3  10   11.12    0.67
  -5  -3 -10    7.84    0.82
  -5  -4  10   13.57    0.83
  -5   4  10   13.48    0.87
  -5   4  10   14.48    0.86
  -5   5  10    8.74    0.63
  -5   5  10    8.11    0.60
  -5   6  10    3.68    0.38
  -5  -6 -10    1.90    0.50
  -5   6  10    3.92    0.37
  -6   0 -10    3.76    0.51
  -6   0  10    3.70    0.35
  -6   0  10    3.93    0.31
  -6  -1  10    3.28    0.32
  -6  -1  10    3.32    0.27
  -6   1 -10    3.41    0.45
  -6   1  10    3.53    0.34
  -6  -1 -10    3.19    0.47
  -6   1  10    3.21    0.29
  -6  -2  10    2.10    0.21
  -6   2 -10    2.56    0.38
  -6  -2  10    2.27    0.26
  -6   2  10    2.37    0.27
  -6   2  10    2.60    0.30
  -6  -2 -10    1.70    0.38
  -6  -3  10    3.11    0.31
  -6   3 -10    2.40    0.37
  -6   3  10    3.38    0.32
  -6  -3 -10    2.05    0.42
  -6   3  10    3.19    0.34
  -6  -4  10    1.84    0.24
  -6  -4 -10    0.76    0.34
  -6   4  10    1.96    0.28
  -6   4  10    2.16    0.28
  -6   5  10    0.77    0.19
  -6  -5 -10    0.53    0.30
  -6   5  10    0.85    0.19
  -6   6  10    0.78    0.21
  -6  -6 -10    0.70    0.33
  -7   0  10   10.58    0.70
  -7   0 -10    9.94    0.83
  -7   0  10   10.58    0.65
  -7   1 -10   12.99    0.94
  -7  -1  10   12.84    0.80
  -7  -1  10   12.91    0.74
  -7   1  10   12.48    0.80
  -7   1  10   12.50    0.76
  -7  -1 -10   10.28    0.92
  -7  -2  10    5.39    0.43
  -7   2 -10    4.82    0.52
  -7   2  10    5.25    0.43
  -7  -2 -10    3.66    0.56
  -7   2  10    4.92    0.40
  -7   3 -10    9.97    0.79
  -7  -3  10   10.73    0.71
  -7  -3 -10    8.95    0.88
  -7   3  10   10.67    0.70
  -7   3  10   11.91    0.75
  -7  -4  10    5.37    0.45
  -7   4  10    6.27    0.50
  -7   4  10    5.85    0.47
  -7  -4 -10    4.85    0.72
  -7   5  10    4.22    0.46
  -7   5  10    4.53    0.43
  -7  -5 -10    3.70    0.66
  -8   0 -10    0.50    0.25
  -8   0  10    0.22    0.15
  -8   0  10    0.09    0.11
  -8   1 -10   -0.07    0.16
  -8  -1  10    0.12    0.13
  -8   1  10   -0.05    0.13
  -8   1  10    0.12    0.11
  -8  -1 -10   -0.08    0.19
  -8   2 -10    2.53    0.42
  -8  -2  10    2.84    0.34
  -8   2  10    2.85    0.32
  -8  -2 -10    3.89    0.58
  -8   2  10    2.88    0.35
  -8   3 -10    0.40    0.31
  -8  -3  10   -0.06    0.12
  -8   3  10   -0.05    0.12
  -8  -3 -10    0.15    0.25
  -8   3  10   -0.04    0.14
  -8  -4  10    0.10    0.15
  -9   0 -10    2.51    0.46
  -9   0  10    2.72    0.42
  -9   0  10    3.05    0.36
  -9   1 -10    1.74    0.37
  -9  -1  10    2.28    0.32
  -9   1  10    1.98    0.27
  -9  -1 -10    2.05    0.45
   0   0  11    0.08    0.08
   0  -1  11    1.29    0.19
   0   1  11    1.20    0.21
   0  -2  11   -0.05    0.07
   0   2  11    0.05    0.11
   0  -3  11    2.67    0.23
   0   3  11    2.45    0.30
   0   4  11   -0.14    0.10
   0   5  11    0.25    0.17
   0   6  11   -0.02    0.13
   0   7  11    1.22    0.29
  -1   0  11    2.57    0.26
   1   0  11    2.20    0.25
  -1  -1  11    5.76    0.42
   1   1  11    5.93    0.46
  -1   1  11    5.88    0.45
   1  -1  11    6.18    0.44
   1   2  11   24.39    1.41
  -1  -2  11   23.51    1.33
   1  -2  11   23.90    1.34
  -1   2  11   24.69    1.40
  -1  -3  11    3.70    0.29
   1   3  11    3.87    0.40
  -1   3  11    4.08    0.38
   1  -3  11    3.89    0.30
   1   4  11    2.15    0.33
  -1  -4  11    1.92    0.26
  -1   4  11    2.45    0.32
   1   5  11    2.03    0.34
  -1   5  11    2.23    0.33
   1   6  11    8.30    0.69
  -1   6  11    7.89    0.66
   1   7  11    0.75    0.27
  -1   7  11    0.73    0.24
   2   0  11   53.23    2.83
  -2   0  11   51.83    2.80
   2   1  11    0.15    0.11
  -2  -1  11    0.23    0.10
  -2   1  11    0.34    0.12
   2  -1  11    0.31    0.12
   2   2  11   44.01    2.39
  -2  -2  11   40.58    2.29
  -2   2  11   43.62    2.35
   2  -2  11   43.71    2.31
   2   3  11   -0.05    0.10
  -2  -3  11    0.08    0.08
   2  -3  11    0.15    0.09
  -2   3  11    0.07    0.12
   2   4  11   26.88    1.56
  -2  -4  11   23.95    1.39
  -2   4  11   27.25    1.52
   2   5  11    0.95    0.24
  -2   5  11    0.79    0.20
   2   6  11   13.89    0.98
  -2   6  11   13.05    0.91
   2   7  11    0.25    0.21
  -2   7  11    0.18    0.18
  -3   0  11   21.64    1.24
  -3   1 -11    1.82    0.34
  -3  -1  11    3.25    0.28
  -3   1  11    2.92    0.29
  -3   2 -11    0.55    0.19
  -3  -2  11    1.27    0.17
  -3  -2 -11    0.65    0.25
  -3   2  11    1.46    0.22
  -3  -3  11    2.36    0.23
  -3  -3 -11    1.09    0.33
  -3   3  11    2.16    0.27
   3  -3  11    2.48    0.25
  -3  -4  11   10.90    0.66
  -3   4  11   11.46    0.76
   3   5  11    1.35    0.28
  -3   5  11    1.39    0.25
   3   6  11    0.60    0.24
  -3   6  11    0.74    0.22
   3   7  11    0.63    0.26
  -3   7  11    0.49    0.21
  -3   7  11    0.22    0.17
  -4   0 -11    0.74    0.26
  -4   0  11    1.06    0.18
  -4  -1  11   20.37    1.16
  -4   1  11   19.75    1.17
  -4   2 -11    0.44    0.20
  -4  -2  11    0.82    0.15
  -4  -2 -11    0.44    0.24
  -4   2  11    0.60    0.15
  -4  -3  11    9.54    0.61
  -4   3  11    9.61    0.66
  -4  -4  11    0.68    0.14
  -4   4  11    0.82    0.19
  -4  -4 -11    0.14    0.21
  -4   5  11    9.73    0.66
  -4   5  11    9.31    0.68
  -4   6  11    0.40    0.17
  -4   6  11    0.36    0.17
  -5   0  11   10.23    0.62
  -5   0 -11    7.99    0.77
  -5   0  11   11.02    0.67
  -5   1 -11    3.62    0.50
  -5  -1  11    4.48    0.32
  -5  -1  11    4.44    0.37
  -5   1  11    4.87    0.35
  -5   1  11    4.37    0.38
  -5  -1 -11    2.75    0.49
  -5  -2  11    1.18    0.15
  -5   2 -11    0.37    0.20
  -5  -2  11    0.97    0.17
  -5  -2 -11    0.83    0.29
  -5   2  11    1.15    0.18
  -5   2  11    1.10    0.21
  -5   3 -11    2.24    0.37
  -5  -3  11    3.44    0.30
  -5   3  11    3.38    0.32
  -5  -3 -11    2.00    0.45
  -5   3  11    3.03    0.32
  -5  -4  11    5.59    0.41
  -5  -4 -11    3.45    0.62
  -5   4  11    5.22    0.44
  -5   4  11    5.51    0.47
  -5   5  11    1.67    0.25
  -5   5  11    1.45    0.27
  -5  -5 -11    1.19    0.41
  -5   6  11    0.30    0.17
  -5   6  11    0.45    0.19
  -5  -6 -11    0.29    0.30
  -6   0 -11   16.78    1.27
  -6   0  11   19.67    1.08
  -6   0  11   19.81    1.13
  -6  -1  11    0.02    0.08
  -6   1 -11    0.24    0.21
  -6  -1  11    0.17    0.12
  -6  -1 -11    0.04    0.18
  -6   1  11    0.19    0.11
  -6   1  11    0.18    0.13
  -6  -2  11   17.49    1.00
  -6   2 -11   14.20    1.10
  -6  -2 -11   13.68    1.18
  -6   2  11   17.30    0.98
  -6   2  11   18.11    1.03
  -6   3 -11    0.29    0.20
  -6  -3  11    0.39    0.15
  -6   3  11    0.29    0.14
  -6   3  11    0.44    0.17
  -6  -3 -11    0.30    0.27
  -6  -4  11    9.71    0.66
  -6   4  11   10.31    0.72
  -6   4  11   10.39    0.69
  -6   5  11    0.10    0.15
  -6  -5 -11    0.22    0.27
  -6   5  11   -0.08    0.13
  -7   0 -11    0.22    0.21
  -7   0  11    0.00    0.10
  -7   0  11   -0.10    0.10
  -7  -1  11    0.85    0.16
  -7  -1  11    0.75    0.18
  -7   1 -11    0.55    0.26
  -7   1  11    0.77    0.16
  -7   1  11    1.14    0.23
  -7  -1 -11    0.99    0.32
  -7   2 -11    6.31    0.64
  -7  -2  11    7.15    0.52
  -7  -2 -11    5.25    0.66
  -7   2  11    6.46    0.49
  -7   2  11    6.62    0.53
  -7  -3  11    0.90    0.20
  -7  -3 -11    0.57    0.33
  -7   3  11    0.90    0.22
  -7   3  11    0.58    0.18
  -7  -4  11    0.04    0.13
  -7   4  11    0.11    0.15
  -7   4  11   -0.03    0.15
  -7  -4 -11    0.40    0.30
  -8   0  11    3.55    0.38
  -8   0 -11    3.28    0.52
  -8   0  11    3.24    0.31
  -8  -1  11    5.72    0.49
  -8   1 -11    5.40    0.62
  -8   1  11    5.82    0.50
  -8  -1 -11    5.56    0.67
  -8   1  11    6.57    0.47
  -8   2 -11    3.55    0.51
  -8  -2  11    3.05    0.36
  -8   2  11    3.08    0.37
  -8   2  11    3.33    0.35
  -8  -2 -11    2.09    0.48
  -8  -3  11    5.11    0.47
  -8   3  11    4.98    0.45
   0   0  12    0.55    0.15
   0   1  12   -0.05    0.09
   0  -1  12    0.11    0.10
   0   2  12  125.42    6.63
   0  -2  12  128.11    6.57
   0   3  12    0.01    0.11
   0  -3  12   -0.06    0.07
   0   4  12    0.38    0.18
   0   5  12    0.01    0.16
   0   6  12   40.50    2.34
   0   7  12    0.01    0.20
  -1   0  12    0.91    0.17
   1   0  12    0.91    0.18
   1   1  12   23.82    1.44
  -1  -1  12   25.31    1.41
  -1   1  12   26.27    1.45
   1  -1  12   24.90    1.42
  -1  -2  12    0.15    0.11
   1   2  12    0.47    0.17
  -1   2  12    0.14    0.14
   1  -2  12    0.40    0.12
   1   3  12   19.05    1.22
  -1  -3  12   18.85    1.12
   1  -3  12   21.22    1.14
  -1   3  12   20.92    1.23
   1   4  12    0.22    0.17
  -1   4  12    0.47    0.18
   1   5  12    8.85    0.72
  -1   5  12    9.17    0.70
   1   6  12   -0.16    0.16
  -1   6  12   -0.01    0.17
   1   7  12    5.58    0.57
  -1   7  12    4.23    0.51
  -2   0  12   31.13    1.73
   2   0  12   30.97    1.75
   2   1  12   37.85    2.20
  -2  -1  12   40.98    2.16
  -2   1  12   39.70    2.18
   2  -1  12   40.24    2.18
   2   2  12   23.44    1.41
  -2  -2  12   23.38    1.32
   2  -2  12   23.10    1.34
  -2   2  12   24.59    1.38
   2   3  12   27.16    1.61
  -2  -3  12   24.98    1.48
  -2   3  12   27.99    1.57
   2  -3  12   28.30    1.50
   2   4  12   16.52    1.14
  -2   4  12   19.18    1.13
   2   5  12   16.04    1.08
  -2   5  12   15.72    1.03
   2   6  12    8.28    0.73
  -2   6  12    8.76    0.69
   2   7  12    5.27    0.57
  -2   7  12    4.54    0.51
  -3   0  12    1.72    0.24
  -3  -1  12    5.07    0.39
  -3   1  12    4.80    0.40
  -3  -2  12    0.19    0.10
   3  -2  12    0.28    0.12
  -3   2  12    0.31    0.14
  -3  -3  12    2.89    0.27
   3  -3  12    2.84    0.29
  -3   3  12    2.88    0.33
   3   4  12    0.70    0.22
  -3   4  12    0.48    0.18
   3   5  12    2.70    0.42
  -3   5  12    2.88    0.38
   3   6  12    0.03    0.19
  -3   6  12   -0.02    0.15
  -4   0  12   86.26    4.54
  -4  -1  12    0.49    0.15
  -4   1 -12    0.17    0.17
  -4   1  12    0.20    0.12
  -4  -1 -12    0.34    0.20
  -4   2 -12    0.23    0.18
  -4  -2  12    0.38    0.13
  -4  -2 -12    0.15    0.19
  -4   2  12    0.35    0.14
  -4  -3  12    0.34    0.13
  -4  -3 -12    0.14    0.21
  -4   3  12    0.68    0.19
  -4  -4 -12   17.55    1.34
  -4   5  12    0.21    0.16
  -4   5  12   -0.02    0.14
   4   6  12    0.01    0.20
  -4   6  12    0.00    0.15
  -4   6  12    0.07    0.16
  -5   0  12    2.58    0.28
  -5   0 -12    1.25    0.34
  -5   0  12    1.96    0.23
  -5  -1  12    7.06    0.50
  -5  -1  12    6.77    0.44
  -5   1 -12    5.01    0.59
  -5   1  12    6.59    0.51
  -5  -2  12    4.82    0.37
  -5  -2  12    4.76    0.33
  -5   2 -12    2.90    0.46
  -5   2  12    4.62    0.39
  -5  -2 -12    2.43    0.49
  -5   2  12    3.84    0.36
  -5  -3  12    4.26    0.37
  -5   3  12    4.72    0.40
  -5   3  12    4.72    0.42
  -5   4  12    1.48    0.27
  -5  -4 -12    0.45    0.32
  -5   4  12    1.14    0.23
  -5   5  12    3.43    0.41
  -5   5  12    2.85    0.36
  -6   0 -12    4.96    0.63
  -6   0  12    7.07    0.51
  -6   0  12    6.89    0.47
  -6  -1  12   15.54    0.92
  -6  -1  12   16.43    0.99
  -6   1  12   15.68    0.99
  -6   1  12   16.16    0.95
  -6  -2  12   11.11    0.70
  -6   2 -12    7.99    0.78
  -6   2  12   11.22    0.68
  -6   2  12   10.13    0.70
  -6  -3  12   12.22    0.79
  -6   3  12   12.50    0.80
  -6   3  12   12.76    0.84
  -6   4  12    4.29    0.43
  -6   4  12    4.21    0.40
  -6   5  12    5.29    0.54
  -7   0 -12    1.62    0.40
  -7   0  12    2.64    0.32
  -7   0  12    1.88    0.24
  -7   1 -12    3.61    0.55
  -7  -1  12    4.21    0.39
  -7   1  12    4.33    0.41
  -7   1  12    3.70    0.35
  -7  -1 -12    2.78    0.51
  -7  -2  12    4.45    0.41
  -7   2 -12    3.40    0.53
  -7   2  12    4.40    0.41
  -7   2  12    4.49    0.38
  -7  -2 -12    3.49    0.59
  -7  -3  12    2.88    0.33
  -7  -3 -12    1.95    0.47
  -7   3  12    3.42    0.34
  -7   3  12    2.61    0.35
  -8   0 -12    0.46    0.27
  -8   0  12    0.40    0.19
  -8   0  12    0.17    0.14
  -8   1 -12    0.47    0.28
  -8  -1  12    0.54    0.19
  -8  -1 -12    0.41    0.27
  -8   1  12    0.42    0.16
  -8   1  12    0.57    0.22
   0   0  13   -0.01    0.10
   0   1  13   37.94    2.07
   0  -1  13   35.92    2.03
   0   2  13    0.03    0.13
   0  -2  13   -0.01    0.09
   0   3  13   31.67    1.80
   0  -3  13   30.43    1.69
   0   4  13    0.02    0.15
   0   5  13   11.76    0.86
   0   6  13   -0.14    0.17
  -1   0  13    2.87    0.30
   1   0  13    3.06    0.32
  -1  -1  13   11.72    0.76
   1   1  13   11.95    0.80
   1  -1  13   12.05    0.77
  -1   1  13   12.35    0.79
   1   2  13   34.56    1.96
  -1  -2  13   33.75    1.88
   1  -2  13   34.89    1.89
  -1   2  13   33.94    1.94
   1   3  13    8.52    0.64
  -1  -3  13    7.41    0.53
   1  -3  13    8.50    0.55
  -1   3  13    8.54    0.63
   1   4  13    1.20    0.26
  -1   4  13    1.79    0.31
   1   5  13    4.53    0.49
  -1   5  13    4.74    0.50
   1   6  13   10.12    0.81
  -1   6  13    9.81    0.79
   2   0  13    3.63    0.36
  -2   0  13    3.59    0.34
  -2  -1  13    0.23    0.12
   2   1  13    0.21    0.15
  -2   1  13    0.39    0.16
   2  -1  13    0.28    0.14
   2   2  13    4.40    0.44
  -2  -2  13    4.49    0.36
   2  -2  13    4.55    0.38
  -2   2  13    4.08    0.40
  -2  -3  13   -0.02    0.09
   2   3  13   -0.04    0.14
  -2   3  13    0.03    0.12
   2  -3  13    0.09    0.10
   2   4  13    1.64    0.33
  -2   4  13    1.56    0.27
   2   5  13    0.16    0.18
  -2   5  13    0.26    0.18
   2   6  13    0.92    0.29
  -2   6  13    1.15    0.28
  -3   0  13   40.43    2.19
   3   0  13   39.04    2.22
   3   1  13    9.48    0.69
  -3  -1  13    8.61    0.61
  -3   1  13    9.69    0.65
   3  -1  13    9.30    0.65
  -3  -2  13    4.01    0.36
   3   2  13    4.33    0.46
   3  -2  13    4.58    0.39
  -3   2  13    4.47    0.41
  -3  -3  13    5.42    0.42
   3   3  13    5.57    0.54
  -3   3  13    5.97    0.49
   3   4  13   20.38    1.31
  -3   4  13   20.00    1.25
   3   5  13    4.15    0.50
  -3   5  13    3.58    0.41
   3   6  13    1.30    0.34
  -3   6  13    0.89    0.24
  -4   0 -13    1.70    0.35
  -4  -1  13    4.83    0.40
  -4   1  13    4.90    0.43
  -4  -2  13    2.49    0.27
  -4   2  13    2.43    0.29
  -4  -2 -13    0.99    0.34
  -4  -3  13    2.56    0.28
  -4   3  13    2.97    0.36
  -4   4  13    2.88    0.37
   4   5  13    3.72    0.51
  -4   5  13    2.94    0.40
  -5   0  13   16.78    1.03
  -5  -1  13    6.28    0.46
  -5   1 -13    3.70    0.57
  -5   1  13    5.88    0.47
  -5  -2  13    1.07    0.20
  -5   2 -13    0.60    0.25
  -5  -2 -13    0.49    0.27
  -5   2  13    1.19    0.24
  -5  -3  13    4.74    0.40
  -5   3  13    5.17    0.43
  -5   3  13    4.40    0.45
  -5   4  13   10.39    0.70
  -5   4  13    8.97    0.69
  -5   5  13    1.68    0.29
  -5   5  13    1.84    0.37
  -6   0  13    1.66    0.27
  -6   0  13    1.70    0.22
  -6   0 -13    1.51    0.37
  -6  -1  13    0.45    0.17
  -6   1 -13    0.43    0.25
  -6  -1  13    0.34    0.13
  -6   1  13    0.51    0.18
  -6   1  13    0.35    0.14
  -6  -1 -13    0.01    0.23
  -6  -2  13    0.67    0.18
  -6   2 -13    0.25    0.22
  -6   2  13    0.53    0.17
  -6  -2 -13    0.49    0.28
  -6   2  13    0.45    0.19
  -6  -3  13    0.57    0.18
  -6  -3 -13    0.31    0.27
  -6   3  13    0.57    0.18
  -6   3  13    0.47    0.19
  -6  -4 -13    0.42    0.34
  -6   4  13    1.06    0.29
  -6   4  13    0.80    0.23
  -7   0  13    3.46    0.32
  -7   0 -13    2.40    0.49
  -7   0  13    3.30    0.36
  -7  -1  13    1.99    0.29
  -7   1 -13    1.59    0.41
  -7  -1 -13    1.46    0.40
  -7   1  13    2.33    0.28
  -7   1  13    1.82    0.28
  -7  -2  13   12.53    0.81
  -7   2 -13    9.51    0.92
  -7   2  13   13.85    0.85
  -7  -2 -13    9.10    1.00
  -7   2  13   13.04    0.79
   0   0  14   27.90    1.60
   0  -1  14    0.04    0.11
   0   1  14    0.01    0.11
   0  -2  14    0.02    0.11
   0   2  14    0.07    0.13
   0  -3  14   -0.02    0.16
   0   3  14    0.01    0.15
   0   4  14   15.26    1.04
   0   5  14   -0.22    0.16
   0   6  14   -0.09    0.19
   1   0  14   15.15    0.97
  -1   0  14   15.69    0.97
   1   1  14    6.13    0.52
  -1  -1  14    6.68    0.50
  -1   1  14    6.60    0.52
   1  -1  14    6.24    0.49
  -1  -2  14   12.87    0.82
   1   2  14   13.82    0.91
  -1   2  14   12.95    0.88
   1  -2  14   13.32    0.83
   1   3  14    7.06    0.60
  -1  -3  14    6.94    0.50
  -1   3  14    8.10    0.62
   1   4  14    8.40    0.69
  -1   4  14    8.43    0.68
   1   5  14    1.27    0.31
  -1   5  14    1.07    0.29
   1   6  14    4.55    0.58
  -1   6  14    4.23    0.54
  -2   0  14    6.06    0.47
   2   0  14    5.09    0.47
   2   1  14    8.07    0.62
  -2  -1  14    7.89    0.56
   2  -1  14    8.07    0.59
  -2   1  14    7.75    0.59
   2   2  14    4.99    0.49
  -2  -2  14    5.21    0.41
   2  -2  14    4.76    0.42
  -2   2  14    4.86    0.45
  -2  -3  14    4.80    0.40
   2   3  14    6.00    0.55
  -2   3  14    5.46    0.50
   2   4  14    3.27    0.46
  -2   4  14    3.59    0.42
   2   5  14    2.88    0.43
  -2   5  14    3.26    0.43
  -2   6  14    1.57    0.35
   3   0  14    8.32    0.62
  -3   0  14    7.50    0.57
  -3  -1  14   13.16    0.87
   3   1  14   14.30    0.95
   3  -1  14   14.23    0.91
  -3   1  14   13.99    0.89
   3   2  14    6.32    0.56
  -3  -2  14    5.70    0.45
   3  -2  14    6.46    0.50
  -3   2  14    5.58    0.49
  -3  -3  14    6.48    0.49
   3   3  14    7.71    0.63
  -3   3  14    7.00    0.57
   3   4  14    4.17    0.51
  -3   4  14    4.54    0.45
   3   5  14    7.73    0.70
  -3   5  14    6.95    0.62
  -4   0  14    0.06    0.13
  -4  -1  14    0.09    0.11
   4  -1  14    0.09    0.15
  -4   1  14    0.14    0.14
  -4  -2  14   11.34    0.75
   4  -2  14   11.69    0.79
  -4   2  14   12.14    0.81
   4   3  14   -0.02    0.16
  -4  -3  14    0.05    0.12
  -4   3  14    0.01    0.15
   4   4  14    0.02    0.18
  -4   4  14    0.06    0.16
  -4   5  14    0.04    0.16
  -5   0  14    4.94    0.44
  -5  -1  14    3.07    0.33
  -5   1  14    2.81    0.35
  -5  -2  14    4.83    0.42
  -5   2  14    4.63    0.44
  -5  -3  14    0.85    0.20
  -5   3  14    1.08    0.23
  -5  -3 -14    0.50    0.30
  -5   3  14    1.16    0.26
  -5   4  14    3.44    0.39
  -5   4  14    2.27    0.34
  -6   0  14    1.79    0.24
  -6   0 -14    0.95    0.35
  -6   0  14    2.04    0.31
  -6  -1  14    2.81    0.34
  -6   1  14    3.49    0.34
  -6   1  14    2.85    0.35
  -6  -1 -14    1.71    0.43
  -6   2 -14    0.76    0.30
  -6  -2  14    1.51    0.25
  -6   2  14    1.44    0.25
  -6   2  14    1.28    0.25
  -6  -2 -14    0.70    0.33
  -6  -3  14    1.99    0.28
  -6   3  14    1.73    0.27
  -6  -3 -14    0.80    0.41
  -7   0  14    0.65    0.18
  -7   0  14    0.65    0.21
  -7   0 -14    0.59    0.30
  -7   1 -14    1.88    0.44
  -7  -1  14    2.82    0.36
  -7   1  14    3.47    0.35
  -7  -1 -14    1.73    0.44
   0   0  15   -0.07    0.12
   0   1  15   25.45    1.53
   0  -1  15   26.34    1.50
   0   2  15    0.01    0.14
   0  -2  15   -0.07    0.11
   0   3  15   20.64    1.31
   0   4  15    0.00    0.17
   0   5  15   10.27    0.82
  -1   0  15    7.91    0.61
   1   0  15    9.21    0.64
   1   1  15    0.64    0.22
  -1  -1  15    0.62    0.18
   1  -1  15    0.72    0.19
  -1   1  15    0.49    0.18
   1   2  15   21.77    1.34
  -1  -2  15   21.03    1.26
   1  -2  15   21.71    1.28
  -1   2  15   22.57    1.34
   1   3  15    0.39    0.19
  -1   3  15    0.50    0.20
   1   4  15    5.53    0.57
  -1   4  15    5.23    0.53
   1   5  15    0.42    0.22
  -1   5  15    0.27    0.21
   2   0  15   26.93    1.57
  -2   0  15   26.09    1.54
  -2  -1  15    1.03    0.21
   2   1  15    1.47    0.29
  -2   1  15    1.07    0.24
   2  -1  15    1.01    0.22
  -2  -2  15   19.60    1.20
   2   2  15   20.96    1.31
  -2   2  15   21.15    1.27
   2  -2  15   20.62    1.23
   2   3  15    0.67    0.24
  -2   3  15    0.53    0.21
   2   4  15   15.17    1.06
  -2   4  15   14.85    1.02
   2   5  15    0.52    0.27
  -2   5  15    0.68    0.27
  -3   0  15   22.61    1.34
   3   0  15   22.24    1.37
  -3  -1  15    0.39    0.16
   3   1  15    0.45    0.20
   3  -1  15    0.41    0.18
  -3   1  15    0.19    0.14
  -3  -2  15    3.33    0.35
   3   2  15    3.43    0.42
  -3   2  15    3.77    0.40
   3  -2  15    3.53    0.37
   3   3  15    0.17    0.19
  -3   3  15    0.26    0.16
   3   4  15   13.86    1.05
  -3   4  15   14.82    0.99
  -4   0  15    0.66    0.19
   4   0  15    0.51    0.21
   4   1  15   11.04    0.82
  -4  -1  15   10.42    0.72
  -4   1  15   10.49    0.74
   4  -1  15   10.72    0.77
  -4  -2  15    1.61    0.25
   4   2  15    2.10    0.36
   4  -2  15    1.38    0.27
  -4   2  15    1.34    0.26
   4   3  15    8.10    0.70
  -4   3  15    6.74    0.60
  -4   4  15    0.19    0.32
  -5   0  15    8.14    0.62
  -5  -1  15    0.19    0.15
  -5  -1 -15    0.31    0.23
  -5   1  15    0.52    0.20
  -5  -2  15    3.90    0.39
  -5   2  15    4.09    0.43
  -5   3  15    0.34    0.17
  -5   3  15    0.36    0.33
  -6   0 -15    1.73    0.44
  -6   0  15    2.78    0.36
  -6   0  15    3.42    0.34
  -6  -1  15    0.50    0.20
  -6   1 -15    0.40    0.27
  -6   1  15    0.05    0.15
  -6  -1 -15    0.19    0.27
  -6   1  15    0.25    0.15
   0   0  16    2.95    0.37
   0   1  16    0.15    0.16
   0  -1  16   -0.06    0.12
   0   2  16   18.20    1.20
   0  -2  16   19.55    1.15
   0   3  16    0.02    0.17
   0   4  16    1.43    0.32
   1   0  16    4.53    0.44
  -1   0  16    4.11    0.42
   1   1  16    4.69    0.47
  -1  -1  16    5.76    0.47
  -1   1  16    4.68    0.47
   1  -1  16    5.32    0.46
   1   2  16    3.63    0.45
  -1  -2  16    3.03    0.35
  -1   2  16    3.36    0.39
   1  -2  16    3.49    0.37
   1   3  16    2.93    0.43
  -1   3  16    3.32    0.43
   1   4  16    2.83    0.44
  -1   4  16    2.26    0.37
   2   0  16    0.79    0.23
  -2   0  16    0.78    0.21
  -2  -1  16   16.39    1.04
   2   1  16   17.32    1.11
   2  -1  16   17.01    1.06
  -2   1  16   16.19    1.07
   2   2  16    3.48    0.46
  -2  -2  16    3.11    0.34
  -2   2  16    3.44    0.43
   2  -2  16    3.11    0.40
   2   3  16   11.56    0.91
  -2   3  16   13.11    0.90
   2   4  16    0.61    0.28
  -2   4  16    0.43    0.24
   3   0  16    1.65    0.30
  -3   0  16    1.35    0.25
  -3  -1  16    2.02    0.30
   3   1  16    1.61    0.31
   3  -1  16    1.70    0.30
  -3   1  16    2.09    0.32
  -3  -2  16    0.93    0.21
   3   2  16    0.91    0.28
  -3   2  16    0.59    0.22
   3   3  16    2.41    0.42
  -3   3  16    2.27    0.37
  -4   0  16   13.96    0.93
   4   0  16   14.18    0.99
  -4  -1  16    0.12    0.15
   4   1  16    0.13    0.19
   4  -1  16    0.23    0.17
  -4   1  16    0.30    0.18
   4   2  16    1.41    0.33
  -4  -2  16    1.31    0.25
  -4   2  16    1.61    0.30
   5   0  16    2.59    0.42
  -5   0  16    2.40    0.34
   5   1  16    0.65    0.27
  -5  -1  16    0.94    0.22
  -5   1  16    0.75    0.23
   5  -1  16    0.62    0.23
   0   0  17   -0.01    0.14
   0   1  17    0.30    0.18
   0  -1  17    0.26    0.17
   0   2  17    0.05    0.18
   0   3  17    0.55    0.26
  -1   0  17   14.86    0.96
   1   0  17   13.81    0.96
  -1  -1  17    3.38    0.38
   1   1  17    3.56    0.43
   1  -1  17    3.02    0.38
  -1   1  17    3.05    0.40
   1   2  17    0.19    0.20
  -1   2  17    0.11    0.15
   1   3  17    2.45    0.41
  -1   3  17    2.18    0.37
  -2   0  17    1.07    0.24
   2   0  17    1.33    0.28
   2   1  17    0.61    0.24
  -2  -1  17    0.59    0.20
  -2   1  17    0.50    0.21
   2  -1  17    0.77    0.23
   2   2  17    0.63    0.25
  -2  -2  17    0.79    0.24
  -2   2  17    1.08    0.27
   2   3  17    0.77    0.40
  -3   0  17    3.55    0.40
   3   0  17    3.26    0.44
  -3  -1  17    3.07    0.37
   3   1  17    3.11    0.45
  -3   1  17    3.42    0.40
   3  -1  17    3.42    0.42
   3   2  17   20.92    1.32
  -3  -2  17   18.08    1.19
  -3   2  17   19.99    1.25
   4   0  17   -0.08    0.18
  -4   0  17    0.12    0.17
   4   1  17    0.42    0.25
  -4  -1  17    0.12    0.16
  -4   1  17    0.33    0.19
   4  -1  17    0.18    0.21
   0   0  18   21.78    1.35
   0  -1  18   -0.06    0.15
   0   1  18   -0.21    0.15
   0   2  18    0.18    0.20
  -1   0  18    1.10    0.27
   1   0  18    1.24    0.29
   1   1  18    2.72    0.40
  -1  -1  18    2.49    0.35
   1  -1  18    1.94    0.33
  -1   1  18    1.68    0.32
  -2   0  18   10.48    0.77
   2   0  18   10.74    0.80
   2   1  18    4.53    0.49
  -2  -1  18    3.82    0.42
   2  -1  18    3.63    0.43
  -2   1  18    4.02    0.45
   0   0   0    0.00    0.00
;
_shelx_hkl_checksum              34081
_shelx_res_file
;
    scan_0m_Pnma.res created by SHELXL-2014/7
TITL scan_0m_Pnma in Pnma
CELL 0.71073 8.4152 7.5141 14.1985 90.000 90.000 90.000
ZERR 4.00 0.0012 0.0009 0.0020 0.000 0.000 0.000
LATT 1
SYMM x+1/2, -y+1/2, -z+1/2
SYMM -x, y+1/2, -z
SYMM -x+1/2, -y, z+1/2
SFAC C H N CL ZN
UNIT 24  32  8  8  4
L.S. 10
OMIT   4 4 12
OMIT   2 1  8
ACTA
BOND $H
FMAP 2
PLAN 20
SIZE 0.200 0.300 0.600
HTAB
EQIV $1 x+1/2, y, -z+1/2
HTAB N1 Cl1_$1
EQIV $2 -x, -y+1, -z+1
HTAB N2 Cl1_$2
CONF
TEMP -73.150
WGHT    0.037700
FVAR       0.14796
ZN1   5    0.129385    0.750000    0.380338    10.50000    0.03013    0.04083 =
         0.02506    0.00000   -0.00244    0.00000
N1    3    0.366935    0.750000    0.349380    10.50000    0.03445    0.04683 =
         0.02164    0.00000    0.00240    0.00000
H1    2    0.387965    0.660751    0.317506    11.00000    0.03979
N2    3    0.200231    0.750000    0.518119    10.50000    0.03463    0.04687 =
         0.02456    0.00000    0.00415    0.00000
H2    2    0.164721    0.665610    0.549537    11.00000    0.04743
CL1   4    0.001845    0.505849    0.332786    11.00000    0.05021    0.03669 =
         0.03577    0.00316   -0.00578   -0.00656
C1    1    0.455885    0.750000    0.437035    10.50000    0.03406    0.02817 =
         0.02589    0.00000   -0.00007    0.00000
C2    1    0.372782    0.750000    0.521504    10.50000    0.03093    0.02890 =
         0.02530    0.00000   -0.00050    0.00000
C3    1    0.454265    0.750000    0.606619    10.50000    0.04985    0.04234 =
         0.02833    0.00000   -0.00350    0.00000
AFIX  43
H3    2    0.397349    0.750000    0.664401    10.50000   -1.20000
AFIX   0
C4    1    0.619754    0.750000    0.606829    10.50000    0.04870    0.05121 =
         0.04463    0.00000   -0.02009    0.00000
AFIX  43
H4    2    0.676053    0.750000    0.664823    10.50000   -1.20000
AFIX   0
C5    1    0.701479    0.750000    0.523099    10.50000    0.03307    0.05333 =
         0.06140    0.00000   -0.01197    0.00000
AFIX  43
H5    2    0.814365    0.750000    0.523695    10.50000   -1.20000
AFIX   0
C6    1    0.621955    0.750000    0.438173    10.50000    0.03309    0.05128 =
         0.04253    0.00000    0.00479    0.00000
AFIX  43
H6    2    0.679787    0.750000    0.380711    10.50000   -1.20000
AFIX   0
HKLF 4 1 1 0 0 0 1 0 0 0 1
REM  scan_0m_Pnma in Pnma
REM R1 =  0.0267 for     992 Fo > 4sig(Fo)  and  0.0291 for all    1090 data
REM     72 parameters refined using      0 restraints
END
WGHT      0.0376      0.0000
REM Instructions for potential hydrogen bonds
HTAB N1 Cl1_$1
HTAB N2 Cl1_$2
REM Highest difference peak  0.407,  deepest hole -0.581,  1-sigma level  0.085
Q1    1   0.2431  0.7500  0.3723  10.50000  0.05    0.41
Q2    1   0.0135  0.5747  0.3785  11.00000  0.05    0.38
Q3    1   0.0363  0.7500  0.3786  10.50000  0.05    0.38
Q4    1   0.1355  0.7500  0.4489  10.50000  0.05    0.33
Q5    1   0.1287  0.7958  0.4356  11.00000  0.05    0.32
Q6    1   0.5250  0.7500  0.6030  10.50000  0.05    0.29
Q7    1   0.1280  0.8027  0.3229  11.00000  0.05    0.27
Q8    1   0.5301  0.7500  0.4408  10.50000  0.05    0.25
Q9    1  -0.0950  0.5132  0.3290  11.00000  0.05    0.24
Q10   1   0.0311  0.4344  0.3798  11.00000  0.05    0.23
Q11   1   0.2970  0.7500  0.5207  10.50000  0.05    0.23
Q12   1   0.4149  0.7500  0.4810  10.50000  0.05    0.23
Q13   1   0.1148  0.5005  0.3320  11.00000  0.05    0.23
Q14   1   0.4077  0.8287  0.5594  11.00000  0.05    0.22
Q15   1   0.4593  0.8208  0.6112  11.00000  0.05    0.21
Q16   1  -0.0623  0.5709  0.2621  11.00000  0.05    0.21
Q17   1   0.3645  0.9476  0.4434  11.00000  0.05    0.19
Q18   1   0.0443  0.5725  0.2816  11.00000  0.05    0.18
Q19   1   0.0023  0.6151  0.2982  11.00000  0.05    0.18
Q20   1   0.3043  0.9219  0.4460  11.00000  0.05    0.17
;
_shelx_res_checksum              7199
loop_
_space_group_symop_operation_xyz
'x, y, z'
'x+1/2, -y+1/2, -z+1/2'
'-x, y+1/2, -z'
'-x+1/2, -y, z+1/2'
'-x, -y, -z'
'-x-1/2, y-1/2, z-1/2'
'x, -y-1/2, z'
'x-1/2, y, -z-1/2'
loop_
_atom_site_type_symbol
_atom_site_label
_atom_site_fract_x
_atom_site_fract_y
_atom_site_fract_z
_atom_site_U_iso_or_equiv
_atom_site_adp_type
_atom_site_calc_flag
_atom_site_occupancy
Zn Zn1 0.12938(3) 0.75 0.38034(2) 0.03201(15) Uani d 1
N N1 0.3669(2) 0.75 0.3494(2) 0.0343(6) Uani d 1
H H1 0.388(2) 0.661(3) 0.318(2) 0.040(7) Uiso d 1
N N2 0.2002(3) 0.75 0.51812(18) 0.0354(6) Uani d 1
H H2 0.165(3) 0.666(3) 0.550(2) 0.047(7) Uiso d 1
Cl Cl1 0.00184(5) 0.50585(6) 0.33279(4) 0.04089(18) Uani d 1
C C1 0.4559(3) 0.75 0.4370(2) 0.0294(6) Uani d 1
C C2 0.3728(3) 0.75 0.5215(2) 0.0284(6) Uani d 1
C C3 0.4543(4) 0.75 0.6066(2) 0.0402(7) Uani d 1
H H3 0.3973 0.75 0.6644 0.048 Uiso calc 1
C C4 0.6198(4) 0.75 0.6068(3) 0.0482(9) Uani d 1
H H4 0.6761 0.75 0.6648 0.058 Uiso calc 1
C C5 0.7015(4) 0.75 0.5231(3) 0.0493(8) Uani d 1
H H5 0.8144 0.75 0.5237 0.059 Uiso calc 1
C C6 0.6220(3) 0.75 0.4382(3) 0.0423(8) Uani d 1
H H6 0.6798 0.75 0.3807 0.051 Uiso calc 1
loop_
_atom_site_aniso_label
_atom_site_aniso_U_11
_atom_site_aniso_U_22
_atom_site_aniso_U_33
_atom_site_aniso_U_12
_atom_site_aniso_U_13
_atom_site_aniso_U_23
Zn1 0.0301(2) 0.0408(3) 0.0251(2) 0 -0.00244(10) 0
N1 0.0345(12) 0.0468(18) 0.0216(12) 0 0.0024(8) 0
N2 0.0346(12) 0.0469(17) 0.0246(12) 0 0.0041(9) 0
Cl1 0.0502(3) 0.0367(3) 0.0358(3) -0.0066(2) -0.0058(2) 0.0032(2)
C1 0.0341(12) 0.0282(14) 0.0259(13) 0 -0.0001(10) 0
C2 0.0309(13) 0.0289(14) 0.0253(14) 0 -0.0005(9) 0
C3 0.0498(16) 0.0423(17) 0.0283(15) 0 -0.0035(12) 0
C4 0.0487(18) 0.051(2) 0.045(2) 0 -0.0201(14) 0
C5 0.0331(14) 0.053(2) 0.061(2) 0 -0.0120(14) 0
C6 0.0331(14) 0.051(2) 0.0425(19) 0 0.0048(11) 0
loop_
_atom_type_symbol
_atom_type_description
_atom_type_scat_dispersion_real
_atom_type_scat_dispersion_imag
_atom_type_scat_source
C C 0.0033 0.0016 'International Tables Vol C Tables 4.2.6.8 and 6.1.1.4'
H H 0.0000 0.0000 'International Tables Vol C Tables 4.2.6.8 and 6.1.1.4'
N N 0.0061 0.0033 'International Tables Vol C Tables 4.2.6.8 and 6.1.1.4'
Cl Cl 0.1484 0.1585 'International Tables Vol C Tables 4.2.6.8 and 6.1.1.4'
Zn Zn 0.2839 1.4301 'International Tables Vol C Tables 4.2.6.8 and 6.1.1.4'
loop_
_geom_angle_atom_site_label_1
_geom_angle_atom_site_label_2
_geom_angle_atom_site_label_3
_geom_angle_site_symmetry_3
_geom_angle
_geom_angle_publ_flag
Cl1 Zn1 Cl1 7_575 110.70(3) yes
N1 Zn1 N2 . 85.45(10) yes
N1 Zn1 Cl1 . 113.89(4) yes
N2 Zn1 Cl1 7_575 115.46(3) ?
N2 Zn1 Cl1 . 115.46(3) yes
N1 Zn1 Cl1 7_575 113.89(4) ?
Zn1 N2 H2 . 114.1(19) ?
C2 N2 H2 . 110.0(17) ?
C2 N2 Zn1 . 108.84(19) ?
Zn1 N1 H1 . 109.0(14) ?
C1 N1 H1 . 111.0(18) ?
C1 N1 Zn1 . 108.62(18) ?
C5 C6 C1 . 119.7(3) ?
C5 C6 H6 . 120.2 ?
C1 C6 H6 . 120.2 ?
C4 C5 C6 . 120.9(3) ?
C6 C5 H5 . 119.5 ?
C4 C5 H5 . 119.5 ?
C5 C4 C3 . 119.9(3) ?
C5 C4 H4 . 120.0 ?
C3 C4 H4 . 120.0 ?
C2 C3 C4 . 119.7(3) ?
C4 C3 H3 . 120.2 ?
C2 C3 H3 . 120.2 ?
C1 C2 C3 . 120.2(2) ?
C3 C2 N2 . 121.5(3) ?
C1 C2 N2 . 118.4(2) ?
C2 C1 C6 . 119.6(3) ?
C6 C1 N1 . 121.7(3) ?
C2 C1 N1 . 118.7(2) ?
loop_
_geom_bond_atom_site_label_1
_geom_bond_atom_site_label_2
_geom_bond_site_symmetry_2
_geom_bond_distance
_geom_bond_publ_flag
Zn1 Cl1 . 2.2301(5) yes
Zn1 Cl1 7_575 2.2301(5) ?
Zn1 N1 . 2.047(2) yes
Zn1 N2 . 2.045(3) yes
N2 C2 . 1.453(3) ?
N2 H2 . 0.83(3) ?
N1 C1 . 1.452(4) ?
N1 H1 . 0.83(3) ?
C6 H6 . 0.95 ?
C5 C6 . 1.379(5) ?
C5 H5 . 0.95 ?
C4 C5 . 1.373(5) ?
C4 H4 . 0.95 ?
C3 C4 . 1.393(4) ?
C3 H3 . 0.95 ?
C2 C3 . 1.389(4) ?
C1 C2 . 1.388(4) ?
C1 C6 . 1.398(3) ?
loop_
_geom_hbond_atom_site_label_D
_geom_hbond_atom_site_label_H
_geom_hbond_atom_site_label_A
_geom_hbond_site_symmetry_A
_geom_hbond_distance_DH
_geom_hbond_distance_HA
_geom_hbond_distance_DA
_geom_hbond_angle_DHA
_geom_hbond_publ_flag
N1 H1 Cl1 8_656 0.83(3) 2.61(3) 3.368(2) 152.(2) yes
N2 H2 Cl1 5_566 0.83(3) 2.53(3) 3.327(2) 160.(2) yes
loop_
_geom_torsion_atom_site_label_1
_geom_torsion_atom_site_label_2
_geom_torsion_atom_site_label_3
_geom_torsion_atom_site_label_4
_geom_torsion
Zn1 N1 C1 C2 0
Zn1 N1 C1 C6 180.0
C6 C1 C2 C3 0.0000(10)
N1 C1 C2 C3 180.0000(10)
C6 C1 C2 N2 180.0
N1 C1 C2 N2 0.0000(10)
Zn1 N2 C2 C1 0.0000(10)
Zn1 N2 C2 C3 180.0000(10)
C1 C2 C3 C4 0.0000(10)
N2 C2 C3 C4 180.0000(10)
C2 C3 C4 C5 0.0000(10)
C3 C4 C5 C6 0.0000(10)
C4 C5 C6 C1 0.0000(10)
C2 C1 C6 C5 0.0000(10)
N1 C1 C6 C5 180.0000(10)

_cod_database_fobs_code 2241743
