#------------------------------------------------------------------------------
#$Date: 2016-09-17 04:36:14 +0300 (Sat, 17 Sep 2016) $
#$Revision: 186606 $
#$URL: file:///home/coder/svn-repositories/cod/cif/2/24/18/2241848.cif $
#------------------------------------------------------------------------------
#
# This file is available in the Crystallography Open Database (COD),
# http://www.crystallography.net/. The original data for this entry
# were provided by IUCr Journals, http://journals.iucr.org/.
#
# The file may be used within the scientific community so long as
# proper attribution is given to the journal article from which the
# data were obtained.
#
data_2241848
loop_
_publ_author_name
'Poplevin, Dmitry S.'
'Zubkov, Fedor I.'
'Dorovatovskii, Pavel V.'
'Zubavichus, Yan V.'
'Khrustalev, Victor N.'
_publ_section_title
;
 Crystal structures of the two epimers from the unusual thermal
 C6-epimerization of
 5-oxo-1,2,3,5,5a,6,7,9b-octahydro-7,9a-epoxypyrrolo[2,1-<i>a</i>]isoindole-6-carboxylic
 acid, 5a(<i>RS</i>),6(<i>SR</i>),7(<i>RS</i>),9a(<i>SR</i>),9b(<i>SR</i>)
 and 5a(<i>RS</i>),6(<i>RS</i>),7(<i>RS</i>),9a(<i>SR</i>),9b(<i>SR</i>)
;
_journal_coeditor_code           ZS2368
_journal_issue                   10
_journal_name_full               'Acta Crystallographica Section E'
_journal_page_first              1429
_journal_page_last               1433
_journal_paper_doi               10.1107/S2056989016014420
_journal_volume                  72
_journal_year                    2016
_chemical_formula_moiety         'C12 H13 N O4'
_chemical_formula_sum            'C12 H13 N O4'
_chemical_formula_weight         235.23
_chemical_melting_point_gt       414
_chemical_melting_point_lt       416
_chemical_name_systematic
'5a(<i>RS</i>),6(<i>RS</i>),7(<i>RS</i>),9a(<i>SR</i>),9b(<i>SR</i>)-5-Oxo-1,2,3,5,5a,6,7,9b-octahydro-7,9a-epoxypyrrolo[2,1-<i>a</i>]isoindole-6-carboxylic acid'
_space_group_crystal_system      triclinic
_space_group_IT_number           2
_space_group_name_Hall           '-P 1'
_space_group_name_H-M_alt        'P -1'
_symmetry_space_group_name_Hall  '-P 1'
_symmetry_space_group_name_H-M   'P -1'
_atom_sites_solution_hydrogens   mixed
_atom_sites_solution_primary     difmap
_atom_sites_solution_secondary   difmap
_audit_creation_method           SHELXL-2014/6
_cell_angle_alpha                94.04(3)
_cell_angle_beta                 111.12(3)
_cell_angle_gamma                105.17(3)
_cell_formula_units_Z            2
_cell_length_a                   8.4700(17)
_cell_length_b                   8.5100(17)
_cell_length_c                   8.5900(17)
_cell_measurement_reflns_used    500
_cell_measurement_temperature    100(2)
_cell_measurement_theta_max      36.0
_cell_measurement_theta_min      3.6
_cell_volume                     548.0(3)
_computing_cell_refinement
;
<i>i</i>Mosflm (Battye <i>et al.</i>, 2011)
;
_computing_data_collection
;
<i>Automar</i> (MarXperts, 2015)
;
_computing_data_reduction
;
<i>i</i>Mosflm (Battye <i>et al.</i>, 2011)
;
_computing_molecular_graphics
;
SHELXTL (Sheldrick, 2008)
;
_computing_publication_material
;
SHELXTL (Sheldrick, 2008)
;
_computing_structure_refinement
;
SHELXL-2014 (Sheldrick, 2015)
;
_computing_structure_solution
;
SHELXS-97 (Sheldrick, 2008)
;
_diffrn_ambient_temperature      100(2)
_diffrn_measured_fraction_theta_full 0.941
_diffrn_measured_fraction_theta_max 0.890
_diffrn_measurement_device_type  'MAR CCD'
_diffrn_measurement_method       '\f scan'
_diffrn_radiation_type           synchrotron
_diffrn_radiation_wavelength     0.96990
_diffrn_reflns_av_R_equivalents  0.0612
_diffrn_reflns_limit_h_max       10
_diffrn_reflns_limit_h_min       -10
_diffrn_reflns_limit_k_max       10
_diffrn_reflns_limit_k_min       -10
_diffrn_reflns_limit_l_max       10
_diffrn_reflns_limit_l_min       -10
_diffrn_reflns_number            7090
_diffrn_reflns_theta_full        35.587
_diffrn_reflns_theta_max         38.131
_diffrn_reflns_theta_min         3.443
_exptl_absorpt_coefficient_mu    0.230
_exptl_absorpt_correction_T_max  0.969
_exptl_absorpt_correction_T_min  0.960
_exptl_absorpt_correction_type   multi-scan
_exptl_absorpt_process_details
;
(<i>SCALA</i>; Evans, 2006)
;
_exptl_crystal_colour            colourless
_exptl_crystal_density_diffrn    1.426
_exptl_crystal_description       prism
_exptl_crystal_F_000             248
_exptl_crystal_size_max          0.15
_exptl_crystal_size_mid          0.10
_exptl_crystal_size_min          0.10
_refine_diff_density_max         0.454
_refine_diff_density_min         -0.359
_refine_ls_extinction_coef       0.138(11)
_refine_ls_extinction_expression Fc^*^=kFc[1+0.001xFc^2^\l^3^/sin(2\q)]^-1/4^
_refine_ls_extinction_method
;
SHELXL-2014/7 (Sheldrick, 2015)
;
_refine_ls_goodness_of_fit_ref   0.928
_refine_ls_hydrogen_treatment    constr
_refine_ls_matrix_type           full
_refine_ls_number_parameters     155
_refine_ls_number_reflns         2104
_refine_ls_number_restraints     0
_refine_ls_restrained_S_all      0.928
_refine_ls_R_factor_all          0.1278
_refine_ls_R_factor_gt           0.0988
_refine_ls_shift/su_max          0.000
_refine_ls_shift/su_mean         0.000
_refine_ls_structure_factor_coef Fsqd
_refine_ls_weighting_details
'w=1/[\s^2^(Fo^2^)+(0.06P)^2^] where P=(Fo^2^+2Fc^2^)/3'
_refine_ls_weighting_scheme      calc
_refine_ls_wR_factor_gt          0.2098
_refine_ls_wR_factor_ref         0.2404
_reflns_number_gt                1402
_reflns_number_total             2104
_reflns_threshold_expression     'I > 2\s(I)'
_cod_data_source_file            zs2368sup1.cif
_cod_data_source_block           IIa
_cod_original_cell_volume        548.0(2)
_cod_database_code               2241848
_shelx_space_group_comment
;
The symmetry employed for this shelxl refinement is uniquely defined
by the following loop, which should always be used as a source of
symmetry information in preference to the above space-group names.
They are only intended as comments.
;
_shelx_estimated_absorpt_t_min   0.963
_shelx_estimated_absorpt_t_max   0.975
_shelx_hkl_file
;
 -10   0   4    9.69    6.96
  10   0  -4   -0.09    3.22
 -10   0   5   43.56   11.89
  10   0  -5    1.60    6.31
 -10   0   6    2.21    8.22
  10   0  -6   -2.02    3.89
 -10   1   3   -0.58    6.42
  10  -1  -3    0.70    3.72
 -10   1   4    2.56    6.53
  10  -1  -4   -1.13    3.44
 -10   1   5   13.14    8.03
  10  -1  -5    0.97    3.75
 -10   1   6   17.45    8.46
  10  -1  -6    0.53    3.34
  10  -2  -3    0.99    9.30
 -10   2   3   44.81   11.43
 -10   2   4   52.01   11.89
  10  -2  -4   -1.92    6.14
 -10   2   5    0.42    8.01
  10  -2  -5   -1.82    2.88
 -10   2   6   52.45   11.99
  10  -2  -6    0.51    9.33
 -10   3   4    5.37    7.97
  10  -3  -4   -0.32    3.47
  10  -3  -5    0.67    8.36
 -10   3   5   45.90   10.52
 -10   3   6   12.35    6.03
  10  -3  -6   -0.09    3.25
   9   3  -3    2.84    5.76
  -9  -3   3   16.00    7.94
  -9  -3   4    0.36    4.83
   9   3  -4    0.32    2.13
  -9  -3   5   33.72   23.65
   9   3  -5   31.92   15.40
   9   3  -6    0.09    2.25
  -9  -3   6    0.86    5.90
  -9  -2   2  116.52   20.44
   9   2  -2   -1.01   18.28
   9   2  -3   -0.63    3.30
  -9  -2   3   12.52    5.79
  -9  -2   4   94.80   77.82
   9   2  -4  115.28   51.04
   9   2  -5  252.75  171.50
  -9  -2   5  214.45  112.78
  -9  -2   6  144.47   67.81
   9   2  -6  145.76   67.50
  -9  -2   7   43.75   31.19
   9   2  -7   42.92   20.26
   9   1  -1    1.14    9.86
  -9  -1   1   35.99   10.52
  -9  -1   2   63.45   10.92
   9   1  -2   -1.85    9.18
  -9  -1   3   26.10    7.85
   9   1  -3   -0.38    4.41
  -9  -1   4  184.52   97.70
   9   1  -4  219.33   97.56
  -9  -1   5    3.45    6.25
   9   1  -5    3.95    3.83
  -9  -1   6   -0.82    4.64
   9   1  -6   -0.51    3.09
  -9  -1   7    7.66    6.10
   9   1  -7    3.09    3.79
  -9  -1   8    1.09    4.85
   9   1  -8    2.00    2.59
   9   0  -1    1.23    2.32
  -9   0   1   -5.52    8.05
  -9   0   2   59.52   10.30
   9   0  -2   -1.30    8.20
  -9   0   3  207.89   40.26
   9   0  -3    0.47   25.68
   9   0  -4   48.58   35.11
  -9   0   4   51.96   24.66
  -9   0   5   31.11   17.53
   9   0  -5   20.69   16.66
  -9   0   6   32.14   21.76
   9   0  -6   28.64   21.07
   9   0  -7   16.28   12.31
  -9   0   7   18.43   10.99
  -9   0   8   27.12   12.01
   9   0  -8   21.14   10.93
  -9   1   1    5.47    6.52
   9  -1  -1   -0.77    2.93
  -9   1   2    1.28    4.41
   9  -1  -2    0.70    3.21
   9  -1  -3   49.03   48.79
  -9   1   3  126.75   33.30
   9  -1  -4   73.68   56.38
  -9   1   4   97.99   38.06
  -9   1   5   31.74   24.45
   9  -1  -5   33.74   15.70
  -9   1   6   -1.71    8.21
   9  -1  -6    2.55    3.38
  -9   1   7   41.47   29.00
   9  -1  -7   39.00   18.76
   9  -1  -8    1.64    2.60
  -9   1   8    2.54    5.26
  -9   2   1   49.81   11.51
   9  -2  -1   -1.38    7.63
   9  -2  -2    1.11   18.12
  -9   2   2   91.26   14.79
  -9   2   3   10.34    9.46
   9  -2  -3    8.84    5.29
   9  -2  -4   17.50   12.94
  -9   2   4   19.12   11.03
  -9   2   5   -0.02    6.36
   9  -2  -5    7.04    3.75
  -9   2   6  204.28  101.79
   9  -2  -6  224.14  101.58
  -9   2   7   26.26   18.30
   9  -2  -7   24.28   11.77
  -9   2   8   34.53   17.58
   9  -2  -8   34.66   16.61
  -9   3   1    5.20    5.60
   9  -3  -1    0.12    3.14
  -9   3   2    5.67    9.32
   9  -3  -2   17.78    7.40
  -9   3   3   38.10   10.58
   9  -3  -3    5.01    6.76
   9  -3  -4    0.35    3.98
  -9   3   4   17.70    7.11
  -9   3   5  382.20  164.97
   9  -3  -5  346.46  164.75
  -9   3   6   30.48   50.82
  -9   3   6   98.01   47.55
   9  -3  -6    6.65   47.43
   9  -3  -6  113.62   47.22
   9  -3  -7    8.19    7.78
  -9   3   7   15.94    7.77
  -9   3   8   59.57   50.65
   9  -3  -8   74.86   50.30
  -9   4   2   52.55   29.69
   9  -4  -2   65.48   29.19
  -9   4   3    3.53    7.26
   9  -4  -3   -0.89    2.71
  -9   4   4   58.09   10.37
   9  -4  -4    1.39    7.70
  -9   4   5    7.92    5.65
   9  -4  -5    2.43    3.53
   9  -4  -6    0.43   13.99
  -9   4   6   75.53   11.82
   9  -4  -6    8.22   46.28
  -9   4   7    9.64    7.31
   9  -4  -7   -0.67    2.63
   9  -4  -8    1.15   13.57
  -9   4   8   69.57   12.64
  -9   5   2   -0.03    6.51
   9  -5  -2    2.41    3.40
  -9   5   3    9.55    8.35
   9  -5  -3   -0.59    4.30
  -9   5   4   64.46   11.29
   9  -5  -4    1.71    8.72
  -9   5   5   14.63    6.93
   9  -5  -5    1.38    3.99
  -9   5   6    9.72    9.41
   9  -5  -6    0.81    3.24
  -9   5   7  184.58   25.48
   9  -5  -7    0.54   22.43
  -9   6   4   16.38    7.60
   9  -6  -4    0.27    4.45
  -9   6   5   -0.42    7.79
   9  -6  -5    0.31    3.12
  -8  -4   2   24.98   11.03
   8   4  -2   17.35    9.74
  -8  -4   3   -0.39    4.53
   8   4  -3    0.86    3.36
   8   4  -4   18.60   13.13
  -8  -4   4   15.91   10.46
   8   4  -5  274.07  192.06
  -8  -4   5  266.99  126.31
  -8  -4   6   22.99   13.42
   8   4  -6   15.33   12.59
  -8  -4   7   42.21   22.17
   8   4  -7   46.67   21.42
  -8  -3   1   38.41   27.66
  -8  -3   2   47.10   24.46
   8   3  -2   53.21   24.19
  -8  -3   3   15.38    8.77
   8   3  -3   12.05    7.29
  -8  -3   4  298.65  149.67
   8   3  -4  331.70  149.56
  -8  -3   5    3.41    5.33
   8   3  -5    5.26    4.39
  -8  -3   6   10.56    6.54
   8   3  -6    4.50    4.35
  -8  -3   7  110.73   79.19
   8   3  -7  111.86   78.90
  -8  -3   8   14.16    8.42
   8   3  -8   11.41    6.36
  -8  -2   1   98.45   63.51
   8   2  -1   84.47   41.52
  -8  -2   2    4.02    6.04
   8   2  -2    2.21    4.08
   8   2  -3   52.37   34.43
  -8  -2   3   38.10   23.07
  -8  -2   4    0.24    4.97
   8   2  -4    2.00    3.23
  -8  -2   5   72.51   51.97
   8   2  -5   76.23   51.68
  -8  -2   5   30.18   37.97
   8   2  -6   83.03   57.30
  -8  -2   6   18.99   39.36
  -8  -2   6   90.48   38.15
  -8  -2   7   14.78   11.00
   8   2  -7   20.68    9.41
  -8  -2   8   43.67   33.39
   8   2  -8   47.08   32.87
  -8  -2   9  114.45   51.48
   8   2  -9  108.36   51.04
  -8  -1   1    9.38    7.04
   8   1  -1    3.41    3.57
  -8  -1   2   39.06   28.85
   8   1  -2   40.47   18.85
  -8  -1   3   97.95   77.96
   8   1  -3  114.27   51.11
  -8  -1   4  307.44  142.53
   8   1  -4  307.19  142.38
  -8  -1   5    2.81    4.88
  -8  -1   5   -4.17   22.04
   8   1  -5    1.15    2.78
  -8  -1   6  153.03  119.71
   8   1  -6  181.42  119.48
  -8  -1   6   70.65   66.25
   8   1  -7   63.58   44.55
  -8  -1   7   34.34   36.31
  -8  -1   7   66.66   30.30
  -8  -1   8   84.89   49.99
  -8  -1   8   -3.22   45.36
   8   1  -8   69.58   32.55
   8   1  -9   -1.07    2.18
  -8  -1   9    1.86    5.10
   8   0  -1   11.37    8.18
  -8   0   1   10.05    7.06
   8   0  -2    1.78    2.63
  -8   0   2    1.40    6.72
   8   0  -3   73.26   50.56
  -8   0   3   66.01   33.63
  -8   0   4  111.63   52.34
   8   0  -4  112.11   52.00
  -8   0   5   11.03    7.58
   8   0  -5    9.68    5.36
  -8   0   6  434.65  287.96
  -8   0   6  214.54  146.15
   8   0  -6  410.49  188.94
   8   0  -7   73.59   50.59
  -8   0   7    8.63   46.54
  -8   0   7   76.09   34.12
  -8   0   8    1.62    3.96
  -8   0   8   17.52   43.97
   8   0  -8   -0.56    2.21
  -8   0   9  123.21   61.31
   8   0  -9  134.11   61.02
  -8   1   1   15.49    9.47
   8  -1  -1    9.99    5.78
  -8   1   2  257.77  113.32
   8  -1  -2  238.97  113.11
  -8   1   3  123.51   49.02
   8  -1  -3   97.97   48.49
  -8   1   4  228.11   98.95
   8  -1  -4  207.84   98.72
   8  -1  -5    8.62    5.93
  -8   1   5  -14.17   21.20
  -8   1   5    8.93    8.13
   8  -1  -5   -0.11   23.40
  -8   1   6  386.09  156.51
  -8   1   6  490.89  205.79
   8  -1  -6  430.31  205.64
   8  -1  -7   79.06   55.59
  -8   1   7   25.49   47.06
  -8   1   7   85.44   36.88
   8  -1  -8    5.88    4.98
  -8   1   8   18.70   35.43
  -8   1   8    6.18    5.88
  -8   1   9   24.92   13.26
   8  -1  -9   13.81   12.30
  -8   2   1   53.16   25.39
   8  -2  -1   53.33   24.88
  -8   2   2   15.36   14.99
   8  -2  -2   21.57    9.85
  -8   2   3  199.67  140.67
   8  -2  -3  198.69   92.24
  -8   2   4  327.25  224.62
   8  -2  -4  314.89  147.34
   8  -2  -5    1.58    1.83
  -8   2   5  -18.14   15.04
  -8   2   5   -0.30    4.73
   8  -2  -5   26.40   23.58
  -8   2   6  169.85  114.40
  -8   2   6  149.67   62.86
   8  -2  -6  159.38   74.97
  -8   2   7    1.50    4.35
  -8   2   7   17.51   30.56
   8  -2  -7    2.61    3.15
  -8   2   8   24.48   16.90
   8  -2  -8   22.12   16.42
  -8   2   8   24.40   36.20
   8  -2  -9  176.53  117.07
  -8   2   9   28.02   69.86
  -8   2   9  153.40   77.10
  -8   3   1  166.51   88.67
   8  -3  -1  200.26   88.58
  -8   3   2  164.79   85.74
   8  -3  -2  191.24   85.58
  -8   3   3  101.65   41.10
   8  -3  -3   81.87   40.41
  -8   3   4    9.81    8.45
   8  -3  -4    8.71   16.24
   8  -3  -4   10.56    5.53
  -8   3   5  198.07  129.06
  -8   3   5  122.07   66.67
   8  -3  -5  106.54   67.81
   8  -3  -5  186.38   84.60
  -8   3   6   10.23   25.91
  -8   3   6   43.00   19.14
   8  -3  -6   22.28   33.26
   8  -3  -6   41.01   18.63
  -8   3   7    5.88    6.87
  -8   3   7    8.75   34.24
   8  -3  -7    8.23    4.62
  -8   3   8  -17.52   44.08
  -8   3   8   57.71   27.31
   8  -3  -8   60.96   26.85
  -8   3   9   33.94   30.36
   8  -3  -9   44.95   30.00
  -8   4   1  278.03  145.26
   8  -4  -1  326.57  145.19
  -8   4   2   58.16   29.45
   8  -4  -2   63.37   28.99
  -8   4   3  121.50   54.15
   8  -4  -3    8.25   45.66
   8  -4  -3  124.72   53.67
  -8   4   4  140.95   67.37
   8  -4  -4   49.85   55.18
   8  -4  -4  153.85   67.16
  -8   4   5   24.12   27.20
  -8   4   5   65.98   25.47
   8  -4  -5   48.80   24.22
  -8   4   6   35.21   34.69
  -8   4   6   45.22   21.58
   8  -4  -6   23.98   32.72
   8  -4  -6   43.19   19.96
  -8   4   7   22.33   43.08
  -8   4   7   61.77   30.70
   8  -4  -7   41.42   57.67
   8  -4  -7   68.88   30.05
  -8   4   8   19.41   40.84
  -8   4   8   38.64   18.72
   8  -4  -8    4.82   47.04
   8  -4  -8   38.88   17.55
   8  -4  -9   31.98   15.26
   8  -5  -1    2.27    2.64
  -8   5   2   88.82   44.17
   8  -5  -2    4.21   36.06
   8  -5  -2  106.30   43.86
   8  -5  -3    8.20    5.67
  -8   5   3    7.83    5.94
   8  -5  -3   -6.84   27.04
  -8   5   4   46.55   20.95
   8  -5  -4   39.76   19.50
   8  -5  -5   58.64   41.63
  -8   5   5   65.16   28.66
   8  -5  -5   30.26   36.33
  -8   5   6   -2.02   26.61
  -8   5   6   53.91   21.56
   8  -5  -6   10.73   29.63
   8  -5  -6   43.07   19.77
  -8   5   7   64.16   44.89
  -8   5   7   -0.99   37.50
   8  -5  -7   25.76   41.14
   8  -5  -7   68.07   29.17
   8  -5  -8    2.09    3.69
  -8   5   8    5.21    8.19
   8  -6  -1    8.41   16.92
  -8   6   2   23.83   26.66
   8  -6  -2   10.12   21.98
   8  -6  -2   72.68   26.37
  -8   6   3   -0.78    5.33
   8  -6  -3    8.31   24.68
   8  -6  -3   -2.29    3.28
  -8   6   4  173.02   24.65
   8  -6  -4  100.91   31.02
   8  -6  -4   -2.34   22.07
  -8   6   5  118.25   18.48
   8  -6  -5   54.78   32.97
   8  -6  -5   -0.59   15.30
  -8   6   6   10.51    9.67
   8  -6  -6    9.33   26.47
   8  -6  -6    0.07    3.78
  -8   6   7    1.46    7.49
   8  -6  -7   -1.27    2.80
  -8   6   7    9.99   24.87
   8  -6  -7   -5.99   29.07
   8  -7  -1   13.23   21.24
   8  -7  -2   14.27   23.16
  -8   7   3    6.19    6.72
   8  -7  -3    3.45   19.39
   8  -7  -3    0.46    3.36
  -8   7   4   64.33   14.46
   8  -7  -4   49.81   28.34
   8  -7  -4    0.81    9.66
  -8   7   5   51.65   14.57
   8  -7  -5   23.80   24.29
   8  -7  -5    1.90    8.12
  -7  -6   3    6.58    7.24
   7   6  -3    8.67    6.40
  -7  -6   4   10.63    9.33
   7   6  -4   11.53    8.56
  -7  -6   5   17.66    9.44
   7   6  -5   13.51    7.53
  -7  -5   1    1.26    3.99
  -7  -5   2    4.95    4.68
   7   5  -2    2.18    4.05
  -7  -5   3   57.73   42.21
   7   5  -3   59.84   42.03
  -7  -5   4   40.41   31.65
   7   5  -4   45.50   31.33
  -7  -5   5  156.90  108.94
   7   5  -5  152.65  108.70
  -7  -5   6   51.38   36.22
   7   5  -6   50.11   35.83
  -7  -5   7    2.59    5.22
   7   5  -7    3.80    3.48
  -7  -4   1    1.87    3.67
  -7  -4   2   57.05   44.16
   7   4  -2   64.44   29.10
  -7  -4   3    2.63   33.29
  -7  -4   3   61.40   27.77
   7   4  -3   60.51   27.32
  -7  -4   4    8.99   27.13
  -7  -4   4   17.66   10.65
   7   4  -4   22.24   10.09
  -7  -4   5   98.38  102.65
  -7  -4   5  257.81  130.52
   7   4  -5  302.07  130.42
   7   4  -6   98.03   63.76
  -7  -4   6   -5.98   41.71
  -7  -4   6   86.00   42.28
  -7  -4   7    5.05    5.87
   7   4  -7    4.54    4.27
  -7  -4   7   -5.09   27.64
  -7  -4   8    8.57    6.78
   7   4  -8    3.97    3.84
   7   3  -1  114.21   75.91
  -7  -3   1   93.81   50.07
  -7  -3   2   45.07   25.54
   7   3  -2   57.14   25.13
  -7  -3   3    9.08    5.09
   7   3  -3    2.41    3.74
  -7  -3   4   21.15   14.76
   7   3  -4   20.51   14.32
  -7  -3   4    4.75   26.12
  -7  -3   5    6.43   13.34
  -7  -3   5   21.16   32.05
   7   3  -5   20.60    8.94
   7   3  -6   15.55   11.02
  -7  -3   6   13.45   39.79
  -7  -3   6   13.66    9.11
  -7  -3   7   21.99   15.82
  -7  -3   7   -8.61   31.40
   7   3  -7   22.97    9.96
  -7  -3   8    6.65   31.18
  -7  -3   8    4.59    6.56
   7   3  -8    1.23    2.97
  -7  -3   9   22.01   14.37
   7   3  -9   17.51   13.49
  -7  -2   1   22.21   10.75
   7   2  -1   18.73    9.99
  -7  -2   2   80.77   62.49
   7   2  -2   90.77   62.26
   7   2  -3   54.00   38.60
  -7  -2   3   55.56   25.75
  -7  -2   4   71.85   63.19
  -7  -2   4   39.82   63.44
  -7  -2   4  200.90   83.56
   7   2  -4   -5.28   63.80
   7   2  -4  207.91   83.37
  -7  -2   5   49.17   28.96
  -7  -2   5   10.23   32.95
   7   2  -5   39.75   18.81
   7   2  -6  184.41  128.50
  -7  -2   6  124.19   69.64
  -7  -2   6  190.52   84.63
  -7  -2   7   28.77   19.61
  -7  -2   7   28.32   20.10
   7   2  -7   24.93   12.57
  -7  -2   8   -1.87   29.55
  -7  -2   8   75.47   31.83
   7   2  -8   69.22   30.91
  -7  -2   9   15.27   13.93
   7   2  -9   19.01   12.53
  -7  -2   9    2.29   20.86
  -7  -1   1  650.28  440.99
   7   1  -1  614.60  440.84
  -7  -1   2  434.19  213.39
   7   1  -2  470.28  213.31
  -7  -1   3   12.98   12.09
   7   1  -3   16.93   11.59
  -7  -1   4  179.34  116.37
   7   1  -4   -2.02   57.92
   7   1  -4  173.61   76.26
  -7  -1   5  256.16  155.91
  -7  -1   5  144.67   78.58
   7   1  -5   -1.52   77.76
   7   1  -5  236.50  102.24
   7   1  -6   80.07   56.66
  -7  -1   6   34.08   30.70
  -7  -1   6   92.31   37.96
  -7  -1   7  191.99  130.26
   7   1  -7  188.09  130.01
  -7  -1   7  111.76   66.45
  -7  -1   8   -1.41   21.60
  -7  -1   8    6.73    6.39
   7   1  -8   10.68    4.74
  -7  -1   9   -5.57   25.82
  -7  -1   9   29.03   12.17
   7   1  -9   23.66   11.11
  -7  -1  10    4.81    7.25
   7   1 -10    5.60    4.77
  -7   0   1  387.95  181.48
   7   0  -1  393.07  181.41
  -7   0   2   17.53   16.38
   7   0  -2   24.29   10.64
  -7   0   3  243.90  107.76
   7   0  -3  228.26  107.64
  -7   0   4 2382.75 1734.82
  -7   0   4 1771.30  846.17
   7   0  -4 2535.48 1139.14
  -7   0   5   42.38   29.03
  -7   0   5   30.37   26.68
   7   0  -5    7.27   17.16
   7   0  -5   43.67   18.84
   7   0  -6    2.99    2.87
  -7   0   6    4.28   19.22
  -7   0   6    3.62    4.80
  -7   0   7   34.90   27.37
   7   0  -7   39.24   27.05
  -7   0   7   38.15   26.10
   7   0  -8  113.72   85.39
  -7   0   8  127.53   49.41
  -7   0   8  138.65   56.35
  -7   0   9   -7.20   30.52
  -7   0   9   13.43    9.46
   7   0  -9   20.25    8.37
  -7   0  10   87.83   41.28
   7   0 -10   87.38   40.82
  -7   1   1  643.77  363.46
   7  -1  -1  288.89  363.36
  -7   1   1  400.71  238.51
   7  -1  -1  658.88  238.56
  -7   1   2  105.11   70.32
  -7   1   2   92.40   46.07
   7  -1  -2   60.59   46.06
   7  -1  -2  119.27   46.06
  -7   1   3  494.41  332.64
  -7   1   3  367.57  218.30
   7  -1  -3  547.35  218.32
  -7   1   4  436.00  340.56
  -7   1   4  345.71  167.22
   7  -1  -4  508.46  223.53
  -7   1   5    7.19   18.90
  -7   1   5    0.63    3.13
   7  -1  -5    5.55    9.21
   7  -1  -5    0.35    1.98
  -7   1   6   13.38   23.47
  -7   1   6    2.60    4.57
   7  -1  -6    0.85    2.52
  -7   1   7  118.42   84.36
  -7   1   7  115.05   49.91
   7  -1  -7  119.61   55.29
   7  -1  -8   41.35   28.59
  -7   1   8   32.69   33.15
  -7   1   8   38.36   19.43
  -7   1   9   26.88   21.61
   7  -1  -9   31.83   21.23
  -7   1   9   10.12   34.56
  -7   1  10   27.34   16.36
   7  -1 -10   35.06   15.72
  -7   2   1    0.36    1.89
  -7   2   1    3.41    4.50
   7  -2  -1    1.73    2.69
  -7   2   2   19.44    8.84
  -7   2   2   11.06    7.39
   7  -2  -2   12.48    8.81
   7  -2  -2   18.23    7.71
  -7   2   3    3.67    3.40
   7  -2  -3    1.91    1.87
  -7   2   3    0.11    2.32
   7  -2  -3   -0.21    2.21
  -7   2   4  326.48  230.36
   7  -2  -4  349.57  114.16
   7  -2  -4   21.36  112.87
   7  -2  -4  352.54  151.15
  -7   2   5    4.67    4.56
   7  -2  -5    4.34    3.81
  -7   2   5    2.95   16.79
   7  -2  -5    9.80   16.02
  -7   2   6  851.89  572.08
   7  -2  -6  790.19  571.92
  -7   2   6  895.00  281.78
  -7   2   7   29.48   25.60
  -7   2   7   29.91   29.23
   7  -2  -7   38.14   16.75
  -7   2   8   57.94   44.28
  -7   2   8   40.81   37.45
   7  -2  -8   64.72   28.91
  -7   2   9   40.76   27.03
   7  -2  -9   37.36   26.43
  -7   2   9    8.93   36.51
  -7   2  10   45.61   45.35
   7  -2 -10   69.62   29.70
  -7   3   1  192.01   82.91
  -7   3   1  151.35   82.78
   7  -3  -1  122.06   77.75
   7  -3  -1  221.13   82.80
  -7   3   2  287.95  118.10
  -7   3   2  209.64  117.92
   7  -3  -2  210.24  110.68
   7  -3  -2  298.06  117.92
  -7   3   3  141.01   79.79
  -7   3   3   71.46   79.59
   7  -3  -3  432.60   43.38
   7  -3  -3  300.56   42.73
   7  -3  -3    8.38   49.04
   7  -3  -3  143.12   52.29
  -7   3   4   40.62   27.68
  -7   3   4   17.65   17.90
   7  -3  -4   40.00   21.21
   7  -3  -4    8.77   18.07
   7  -3  -4   41.79   18.07
  -7   3   5   34.24   31.47
  -7   3   5   72.74   33.73
   7  -3  -5   16.68   35.89
   7  -3  -5   77.52   33.40
   7  -3  -6  115.25   82.79
  -7   3   6  116.06   47.38
  -7   3   6  122.19   54.69
  -7   3   7 1246.56  247.05
  -7   3   7  749.88  326.23
   7  -3  -7  653.16  326.08
  -7   3   8   87.56   55.98
   7  -3  -8   76.74   55.61
  -7   3   8   52.69   42.16
  -7   3   9   26.53   36.16
  -7   3   9   26.17   12.34
   7  -3  -9   19.74   10.52
  -7   4   1  126.42   57.08
  -7   4   1   94.33   56.91
   7  -4  -1   89.13   44.33
   7  -4  -1  107.05   53.63
   7  -4  -1  151.66   56.91
  -7   4   2  421.69  247.89
  -7   4   2  295.51  162.65
   7  -4  -2  273.50  122.66
   7  -4  -2  366.75  122.85
   7  -4  -2  244.16  152.48
   7  -4  -2  428.54  162.65
  -7   4   3  143.35  129.07
   7  -4  -3  219.42  129.04
  -7   4   3  220.55   84.90
   7  -4  -3  179.19   66.48
   7  -4  -3  138.90   79.64
  -7   4   4  390.58  247.87
  -7   4   4  319.01  122.87
   7  -4  -4  168.41  121.85
   7  -4  -4   60.84  121.75
   7  -4  -4  378.49  162.64
  -7   4   5  693.86  430.91
   7  -4  -5  593.75  430.72
  -7   4   5  446.19  211.54
   7  -4  -5  581.21  212.32
   7  -4  -6  199.51  140.61
  -7   4   6  206.68   75.60
  -7   4   6  202.21   92.55
   7  -4  -6  165.53   80.42
  -7   4   7   11.22   13.13
   7  -4  -7   21.59   12.80
  -7   4   7   12.20   30.84
   7  -4  -7   -5.25   46.04
  -7   4   8    2.53    3.73
   7  -4  -8    0.74    2.53
  -7   4   8    7.03   34.25
  -7   4   9   -3.06   25.12
  -7   4   9    5.34   10.39
   7  -4  -9   15.99    9.41
  -7   5   1  129.28   56.09
  -7   5   1   87.40   56.00
   7  -5  -1    0.82   43.84
   7  -5  -1  108.21   47.98
   7  -5  -1  147.67   56.01
  -7   5   2  667.35  316.14
  -7   5   2  419.37  316.06
   7  -5  -2  857.74  236.84
   7  -5  -2  423.72  236.33
   7  -5  -2  833.24  316.11
   7  -5  -3  116.56   81.07
  -7   5   3  109.92   53.48
  -7   5   4   25.21   11.76
   7  -5  -4    2.88   18.34
   7  -5  -4   20.69   10.19
   7  -5  -5   51.18   33.69
  -7   5   5   47.73   24.94
  -7   5   5   41.60   23.00
   7  -5  -5   28.91   26.94
   7  -5  -6    0.15   16.77
   7  -5  -6    4.63    3.69
  -7   5   6    7.17   27.94
  -7   5   6    2.47    4.66
  -7   5   7   45.53   36.54
  -7   5   7   37.52   20.07
   7  -5  -7   28.62   48.91
   7  -5  -7   44.28   19.75
  -7   5   8   56.85   44.25
   7  -5  -8   34.03   40.92
  -7   5   8   10.32   42.88
   7  -5  -8   68.52   29.01
  -7   6   1   83.23   43.15
  -7   6   1   48.73   43.03
   7  -6  -1  114.02   34.81
   7  -6  -1  114.37   43.05
  -7   6   2   21.34   22.20
   7  -6  -2   21.74   21.79
   7  -6  -3  164.40  114.99
  -7   6   3  160.90   75.81
   7  -6  -3  153.50   62.23
  -7   6   4    6.73    7.21
   7  -6  -4    3.74   23.22
   7  -6  -4    5.43    4.77
  -7   6   5   37.77   20.27
   7  -6  -5   31.36   25.99
   7  -6  -5   42.93   19.45
  -7   6   6    4.47    6.09
   7  -6  -6    2.25    4.22
  -7   6   6    0.58   20.34
   7  -6  -6   13.17   24.68
  -7   6   7    0.65   63.92
  -7   6   7  232.17  165.95
   7  -6  -7  153.99   88.16
   7  -6  -7  259.09  108.90
  -7   6   8   -7.94   27.25
  -7   6   8    2.27    7.01
   7  -6  -8    5.87   49.36
   7  -6  -8    5.86    4.07
   7  -7  -1   10.16   10.66
  -7   7   2   33.50   15.20
   7  -7  -2   47.68   20.50
   7  -7  -2   27.28   14.35
  -7   7   3    4.59    8.52
   7  -7  -3    6.47   24.18
   7  -7  -3    9.63    5.31
  -7   7   4   60.82   16.42
   7  -7  -4   43.63   21.36
   7  -7  -4    1.99   10.47
   7  -7  -5   -0.96    3.56
  -7   7   5   -0.45    7.60
   7  -7  -5    4.14   27.72
  -7   7   6   46.09   12.94
   7  -7  -6   42.50   26.71
   7  -7  -6   -1.27    8.10
  -7   7   7   49.38   32.58
   7  -7  -7   19.79   30.53
   7  -8  -1   49.67   27.82
   7  -8  -2   52.10   22.85
   7  -8  -2   36.30   18.29
  -7   8   3   13.90    8.29
   7  -8  -3   33.47   26.36
   7  -8  -3    0.70    5.71
   7  -8  -4   -0.75    5.81
  -7   8   4   20.84    9.17
   7  -8  -4    7.18   20.73
  -7   8   5    4.75    8.88
   7  -8  -5   15.31   26.25
   7  -8  -5    1.14    4.74
   7  -9  -1   20.13   23.60
   7  -9  -2    3.32   17.41
   7  -9  -3  130.46   52.62
  -6  -7   3    1.76    4.10
  -6  -7   4   27.85   18.48
   6   7  -4   23.44   18.06
  -6  -6   1   14.62   11.05
  -6  -6   2    1.05    3.51
  -6  -6   3   18.10   11.84
   6   6  -3   25.34   11.50
  -6  -6   4  -16.94   34.70
  -6  -6   4   -0.91    5.84
   6   6  -4    0.44    3.97
  -6  -6   5  154.52   97.71
   6   6  -5  139.15   97.46
  -6  -6   5    7.23   57.88
  -6  -6   6   18.68   34.59
  -6  -6   6   12.76    9.84
   6   6  -6   18.02    8.67
  -6  -6   7   17.97   10.48
   6   6  -7   16.80    8.56
  -6  -5   1   75.10   46.51
  -6  -5   1    7.75   30.03
  -6  -5   2   34.10   28.68
  -6  -5   2   46.83   23.86
   6   5  -2   53.07   23.64
  -6  -5   3    5.89   27.17
  -6  -5   3   10.07    7.98
   6   5  -3   12.82    6.71
  -6  -5   4  231.71  161.92
   6   5  -4  228.04  161.73
  -6  -5   5    2.91    3.86
   6   5  -5   -1.39    2.61
  -6  -5   5  -14.96   27.39
  -6  -5   6   -0.90    3.89
   6   5  -6   -0.84    2.54
  -6  -5   6   13.47   27.18
  -6  -5   7    9.33    6.32
   6   5  -7    4.16    4.81
  -6  -5   7    7.16   26.03
  -6  -5   8    7.49   31.16
  -6  -5   8   50.46   16.92
   6   5  -8   30.06   16.02
  -6  -4   1  257.30  170.24
   6   4  -1  232.69  170.13
  -6  -4   2   -1.46    4.61
  -6  -4   2    7.86   18.71
   6   4  -2    2.60    3.83
  -6  -4   3   98.92   69.58
   6   4  -3   99.17   69.30
  -6  -4   3   73.64   41.17
  -6  -4   4  259.74  186.39
   6   4  -4  265.90  186.23
  -6  -4   4  256.76   94.60
  -6  -4   5   44.59   33.03
   6   4  -5   47.03   32.72
  -6  -4   5   39.22   27.76
  -6  -4   6    4.47   21.74
  -6  -4   6    8.06    7.42
   6   4  -6   11.14    5.76
  -6  -4   7   13.88   24.22
  -6  -4   7   26.04   10.86
   6   4  -7   16.53    9.27
  -6  -4   8  113.07   72.91
   6   4  -8  106.04   72.55
  -6  -4   8    1.14   43.26
  -6  -4   9    0.52   33.48
  -6  -4   9   10.65   10.27
   6   4  -9   20.87    9.15
  -6  -3   1   65.87   43.08
   6   3  -1   57.40   42.86
  -6  -3   2  524.32  330.88
   6   3  -2  451.72  330.73
  -6  -3   2  441.34  162.72
  -6  -3   2  418.83  163.44
  -6  -3   3  195.63   62.75
  -6  -3   3  103.27   63.10
  -6  -3   3  177.02   80.94
   6   3  -3   43.71   62.92
   6   3  -3  185.84   80.83
  -6  -3   4  105.32   68.00
   6   3  -4   93.63   67.75
  -6  -3   4   80.12   36.18
  -6  -3   5  232.39   96.89
  -6  -3   5  315.77  127.67
   6   3  -5  264.20  127.49
  -6  -3   6  197.22  131.60
   6   3  -6  182.10  131.37
  -6  -3   6  188.02   70.01
  -6  -3   7   31.18   23.97
  -6  -3   7   28.18   16.57
   6   3  -7   34.89   15.62
  -6  -3   8   91.38   53.09
  -6  -3   8  133.54   58.81
   6   3  -8  125.41   58.27
  -6  -3   9    4.39    8.29
  -6  -3   9   -1.48   20.17
   6   3  -9    6.10    4.57
  -6  -2   1  712.61  519.10
   6   2  -1  745.46  340.79
  -6  -2   2  141.09   95.88
   6   2  -2  133.48   62.82
  -6  -2   3  445.24  132.39
  -6  -2   3  258.51  131.62
  -6  -2   3  376.35  176.09
   6   2  -3  109.15  131.53
   6   2  -3  408.63  176.01
  -6  -2   4 1026.77  291.28
  -6  -2   4  952.72  390.13
   6   2  -4    6.16  289.93
   6   2  -4  862.91  390.03
  -6  -2   5   96.80   36.54
  -6  -2   5  103.58   41.58
   6   2  -5    8.79   36.51
   6   2  -5   90.52   41.19
  -6  -2   6  175.85  125.38
   6   2  -6  178.97  125.13
  -6  -2   6  162.14   66.52
  -6  -2   7  134.50  101.24
   6   2  -7  144.42  100.97
  -6  -2   7  160.80   55.88
  -6  -2   8    7.37   16.02
  -6  -2   8    7.49    8.68
   6   2  -8    9.68    6.98
  -6  -2   9   27.54   20.02
   6   2  -9   28.10   19.57
  -6  -2   9   19.31   20.27
  -6  -2  10   -9.41   26.73
  -6  -2  10   84.64   61.40
   6   2 -10   95.21   61.07
  -6  -1   1  100.86   93.19
  -6  -1   1  147.89   61.30
   6   1  -1  127.25   61.32
   6   1  -1  156.54   61.19
   6   1  -2    6.24    6.62
   6   1  -2   11.34    6.26
  -6  -1   2   12.15    5.45
  -6  -1   2    4.73    4.31
  -6  -1   3    7.82    4.41
   6   1  -3    2.22    4.33
   6   1  -3    4.36    3.40
  -6  -1   3   -3.08    5.64
  -6  -1   3    4.40    2.83
  -6  -1   4  190.14   57.98
  -6  -1   4  203.45   73.10
  -6  -1   4  117.35   72.87
   6   1  -4    3.73   55.85
   6   1  -4  112.14   72.91
   6   1  -4  206.87   72.93
  -6  -1   5    3.68    3.87
  -6  -1   5    0.63   18.72
   6   1  -5    1.06   11.66
   6   1  -5    1.00    2.58
  -6  -1   6  222.23   39.57
  -6  -1   6   86.83   39.31
   6   1  -6   69.47   39.04
  -6  -1   7    8.65   11.96
  -6  -1   7    8.24    4.99
   6   1  -7    1.79    2.78
  -6  -1   8   20.08   17.55
  -6  -1   8   15.49   11.10
   6   1  -8   24.09   10.32
  -6  -1   9    0.48    3.74
   6   1  -9    1.07    1.76
  -6  -1   9   -2.83   19.01
  -6  -1  10    4.22   23.50
  -6  -1  10    2.94    5.29
   6   1 -10    1.58    4.19
  -6   0   1  176.51  112.30
  -6   0   1  134.81  112.15
   6   0  -1  148.77  112.28
   6   0  -1  178.07   73.62
  -6   0   2  348.50  264.46
   6   0  -2  373.91  264.59
   6   0  -2  398.14  264.46
  -6   0   2  378.45  173.69
   6   0  -3  396.60  324.35
   6   0  -3  544.57  324.26
  -6   0   3  523.27  159.02
  -6   0   3  530.92  212.99
  -6   0   3  411.33  212.89
   6   0  -3   -0.26  158.30
  -6   0   4  452.96  100.97
  -6   0   4  304.81  133.54
  -6   0   4  241.39  133.43
   6   0  -4  246.27  133.48
   6   0  -4  324.66  133.45
  -6   0   5  591.07  386.34
  -6   0   5  453.19  386.21
  -6   0   5  669.00  189.73
   6   0  -5   38.05  188.63
   6   0  -5  551.30  237.82
   6   0  -5  640.24  253.59
  -6   0   6  765.40  260.32
  -6   0   6  769.22  348.94
   6   0  -6  174.32  259.54
   6   0  -6  805.51  348.87
  -6   0   7   13.25   11.29
   6   0  -7   15.55   10.85
  -6   0   7   14.46   18.51
  -6   0   8   11.08    8.72
   6   0  -8   10.82    8.07
  -6   0   8    9.38   19.56
  -6   0   9  129.08   62.59
  -6   0   9  179.85   76.98
   6   0  -9  163.30   76.77
  -6   0  10  155.07   75.51
  -6   0  10  174.17   90.87
   6   0 -10  205.86   90.70
  -6   1   1   78.18   55.95
  -6   1   1   79.02   36.64
   6  -1  -1   75.17   36.75
   6  -1  -1   80.65   36.62
  -6   1   2   11.11    5.90
  -6   1   2    8.84    5.25
   6  -1  -2    6.67    5.45
   6  -1  -2   13.89    5.23
  -6   1   3   11.96    8.23
   6  -1  -3   12.09    7.62
  -6   1   3   13.38    8.91
  -6   1   3    8.72    5.25
   6  -1  -3    2.06    7.19
   6  -1  -4    8.00    2.71
   6  -1  -4    8.98    5.72
  -6   1   4   20.27   16.04
  -6   1   4    9.11    5.48
  -6   1   4    4.51    4.21
   6  -1  -4    1.74    9.42
  -6   1   5    3.95    4.11
  -6   1   5    2.41    3.43
   6  -1  -5    2.53    1.83
  -6   1   5   12.86   20.04
   6  -1  -5    5.02    2.85
   6  -1  -6  316.67  216.06
  -6   1   6  296.63  107.69
  -6   1   6  322.98  141.96
   6  -1  -6  132.56  106.88
   6  -1  -7  357.91  258.80
  -6   1   7  351.08  128.75
  -6   1   7  393.16  170.08
  -6   1   8 1062.71  313.12
  -6   1   8  942.53  418.32
   6  -1  -8  875.38  418.20
  -6   1   9   34.56   27.38
   6  -1  -9   39.58   26.88
  -6   1   9   28.18   31.94
  -6   1  10  258.40  162.37
   6  -1 -10  220.93  162.06
  -6   1  10  206.39   88.49
  -6   2   1   56.81   24.80
  -6   2   1   48.26   24.67
   6  -2  -1   55.93   24.66
  -6   2   2  118.50   92.23
  -6   2   2  118.46   60.61
   6  -2  -2  128.08   57.04
   6  -2  -2  145.10   60.53
  -6   2   3  269.54  117.83
  -6   2   3  357.02  157.66
  -6   2   3  335.11  157.60
   6  -2  -3  375.05  118.21
   6  -2  -3  346.90  118.13
   6  -2  -3  320.52  147.83
   6  -2  -3  349.84  157.59
   6  -2  -4  259.56  187.95
  -6   2   4  346.73   93.57
  -6   2   4  283.89  123.46
  -6   2   4  269.97  123.41
   6  -2  -4  261.08   93.48
   6  -2  -4  251.58  115.80
  -6   2   5 1005.12  770.83
   6  -2  -5  719.07  147.97
   6  -2  -5 1330.52  770.81
  -6   2   5 1017.14  376.87
  -6   2   5 1256.30  506.22
   6  -2  -5  991.44  376.94
  -6   2   6   11.04   13.18
  -6   2   6   16.09    9.44
   6  -2  -6   17.34    8.15
  -6   2   7    7.12    8.18
   6  -2  -7    9.69    7.07
  -6   2   7   16.73   15.94
  -6   2   8    7.28    7.29
   6  -2  -8    6.98    5.79
  -6   2   8   14.41   18.16
  -6   2   9   16.27   24.06
  -6   2   9   38.25   16.71
   6  -2  -9   31.62   15.47
  -6   2  10   29.37   30.54
  -6   2  10   40.45   23.29
   6  -2 -10   51.48   22.48
  -6   3   1    0.88    3.58
  -6   3   1   -0.87    1.76
   6  -3  -1    3.22    5.53
   6  -3  -1   -0.77    7.67
   6  -3  -1    0.02    2.65
   6  -3  -1    0.62    1.88
  -6   3   2  319.81  243.88
  -6   3   2  334.37  160.14
   6  -3  -2  373.52  119.89
   6  -3  -2  378.90  120.02
   6  -3  -2  341.13  150.13
   6  -3  -2  363.32  160.09
   6  -3  -3    5.81    5.13
  -6   3   3   23.91   12.16
  -6   3   3    3.20    4.35
  -6   3   3    5.12    3.92
   6  -3  -3   44.46   10.22
   6  -3  -3   30.53   13.62
   6  -3  -3    1.03    4.40
  -6   3   4   12.64   14.06
  -6   3   4   10.92    5.31
  -6   3   4    7.12    4.89
   6  -3  -4    7.29   15.08
   6  -3  -4   -0.11    9.41
   6  -3  -4    5.69    5.29
   6  -3  -4   11.35    4.48
  -6   3   5   53.46   21.55
  -6   3   5   46.78   24.30
  -6   3   5   37.07   24.07
   6  -3  -5   17.33   21.36
   6  -3  -5   40.64   23.01
   6  -3  -5   73.23   24.12
  -6   3   6   13.53   15.31
  -6   3   6   27.30   13.41
   6  -3  -6   28.72   12.96
  -6   3   7  595.89  213.47
  -6   3   7  644.74  284.32
   6  -3  -7  602.04  284.23
  -6   3   8   43.15   32.99
   6  -3  -8   48.43   32.77
  -6   3   8   28.99   27.70
   6  -3  -9   52.78   36.13
  -6   3   9   36.86   26.31
  -6   3   9   48.06   24.15
  -6   3  10    4.72   34.75
  -6   3  10    8.63    7.42
   6  -3 -10   10.08    5.40
  -6   4   1  185.84   90.34
  -6   4   1  167.29   90.26
   6  -4  -1  127.13   68.34
   6  -4  -1  141.71   68.09
   6  -4  -1  198.33   84.75
   6  -4  -1  225.69   90.26
   6  -4  -2  139.22  104.70
  -6   4   2  155.90   68.82
  -6   4   2  147.06   68.74
   6  -4  -2  176.87   53.09
   6  -4  -2  160.86   53.81
   6  -4  -2  152.09   64.65
   6  -4  -3  141.84   18.14
  -6   4   3  144.13   63.27
  -6   4   3  124.98   63.23
   6  -4  -3  100.80   48.56
   6  -4  -3   78.16   48.40
   6  -4  -3  146.80   63.19
  -6   4   4  407.45  282.23
  -6   4   4  353.20  282.14
   6  -4  -4  392.95   53.92
  -6   4   4  370.53  139.03
   6  -4  -4  344.77  138.86
   6  -4  -4  425.91  139.78
   6  -4  -4  437.81  185.23
  -6   4   5  214.85   69.10
  -6   4   5  225.55   88.89
   6  -4  -5   92.86   68.33
   6  -4  -5  181.96   88.75
   6  -4  -6  315.86  228.92
  -6   4   6  339.79  114.73
  -6   4   6  340.43  150.39
  -6   4   7  140.87  102.16
   6  -4  -7  143.13  102.00
  -6   4   7  185.19   56.09
  -6   4   8   29.20   19.97
   6  -4  -8   27.13   19.69
  -6   4   8   20.71   26.02
  -6   4   9   -0.97    3.56
  -6   4   9   -3.91   27.34
   6  -4  -9    0.19    3.12
  -6   5   1  131.98   78.49
  -6   5   1  151.31   78.52
   6  -5  -1  238.02   63.37
   6  -5  -1  175.04   60.59
   6  -5  -1  184.29   78.48
  -6   5   2   44.09   18.53
  -6   5   2   26.84   18.18
   6  -5  -2   10.34   16.52
   6  -5  -2   45.62   18.07
  -6   5   3   65.52   24.38
  -6   5   3   30.78   15.74
   6  -5  -3   55.20   19.97
   6  -5  -3   44.31   23.09
   6  -5  -3    0.10   14.67
   6  -5  -3   60.71   15.79
   6  -5  -4  162.19  112.82
  -6   5   4  160.08   57.16
  -6   5   4  161.55   74.16
   6  -5  -4  125.81   56.92
  -6   5   5    5.20    6.08
   6  -5  -5    6.28    5.15
  -6   5   5    8.07   18.75
   6  -5  -5   17.90   20.93
   6  -5  -6   67.58   49.10
  -6   5   6   82.59   33.28
  -6   5   6   70.18   32.62
   6  -5  -6   73.50   37.34
  -6   5   7  101.08   47.78
  -6   5   7  123.76   54.03
   6  -5  -7   38.99   52.40
   6  -5  -7  117.47   53.75
  -6   5   8  195.87  134.33
   6  -5  -8  197.82  134.13
  -6   5   8  183.67   72.21
   6  -5  -8  -11.29   77.10
  -6   5   9    0.68    3.86
   6  -5  -9    3.82    2.73
  -6   5   9   -6.42   36.05
   6  -5  -9   -9.40   47.72
  -6   6   1   14.19    7.87
  -6   6   1   10.70    7.64
   6  -6  -1   27.15   22.99
   6  -6  -1   17.03    7.36
  -6   6   2  674.44  275.47
  -6   6   2  387.86  275.34
   6  -6  -2  769.27  206.41
   6  -6  -2  654.58  275.37
  -6   6   3   13.08   10.58
   6  -6  -3   10.28   18.28
   6  -6  -3   14.54    7.26
  -6   6   4  100.61   74.98
   6  -6  -4  110.65   74.85
   6  -6  -4   85.16   41.59
  -6   6   5   74.74   32.25
  -6   6   5   75.31   34.64
   6  -6  -5   82.28   33.75
   6  -6  -5   72.09   34.38
   6  -6  -6   60.61   49.93
  -6   6   6   63.87   32.76
  -6   6   6   73.22   33.21
   6  -6  -6  178.04   38.17
   6  -6  -7   35.37   25.63
  -6   6   7   23.52   28.72
  -6   6   7   37.99   17.63
   6  -6  -7   42.12   32.87
  -6   6   8  -21.27   19.34
  -6   6   8    2.05    3.37
   6  -6  -8    0.29    2.13
   6  -6  -8  -14.26   38.61
  -6   7   1   56.94   30.88
   6  -7  -1  110.61   34.80
   6  -7  -1   63.48   30.50
  -6   7   2  238.24  109.20
   6  -7  -2  228.17   84.68
   6  -7  -2  234.49  108.99
  -6   7   3  303.00  149.54
   6  -7  -3  325.72  113.50
   6  -7  -3  332.01  149.48
   6  -7  -4  329.16  239.91
  -6   7   4  366.74  157.72
   6  -7  -4  303.67  119.57
   6  -7  -5  148.65  105.98
  -6   7   5  153.03   69.91
   6  -7  -5  145.73   57.57
  -6   7   6   59.84   31.18
   6  -7  -6   61.37   34.06
   6  -7  -6   68.77   30.55
   6  -7  -7   31.95   21.47
  -6   7   7   27.24   26.34
  -6   7   7   34.19   19.01
   6  -7  -7   41.12   17.96
  -6   8   1    8.50   18.35
   6  -8  -1   54.22   18.00
   6  -8  -1   46.06   17.76
  -6   8   2    2.79    6.33
   6  -8  -2   11.73   22.31
   6  -8  -2    9.12    6.22
  -6   8   3    3.77    7.12
   6  -8  -3   -3.72   17.50
   6  -8  -3    0.60    3.30
   6  -8  -4  138.14   24.49
  -6   8   4  167.93   31.27
   6  -8  -4   -1.96   30.06
  -6   8   5   52.05   17.44
   6  -8  -5    0.49   16.55
   6  -8  -5   79.99   30.56
  -6   8   6   -2.59    6.40
   6  -8  -6  -14.49   30.47
   6  -8  -6    1.95    3.29
   6  -9  -1  321.32  113.66
   6  -9  -2   -0.05   17.23
   6  -9  -3   60.31   33.70
   6  -9  -4    4.88   20.60
  -5  -7   1   15.26   11.58
  -5  -7   2   -1.75   22.05
  -5  -7   2   11.39    6.28
  -5  -7   3   14.40   24.75
  -5  -7   3   27.28   13.45
   5   7  -3   27.32   12.78
  -5  -7   4    5.72   33.09
  -5  -7   4   77.89   36.70
   5   7  -4   83.71   36.53
  -5  -7   5    5.35   31.67
  -5  -7   5   46.51   24.63
   5   7  -5   56.49   24.21
  -5  -7   6   -0.90   29.13
  -5  -7   6   -1.50   13.17
   5   7  -6   40.19   13.30
  -5  -6   1    9.06   16.06
  -5  -6   1   -1.32    4.38
  -5  -6   2    6.41   18.11
  -5  -6   2    5.40    5.45
   5   6  -2    4.00    4.66
  -5  -6   3    0.54    4.08
   5   6  -3    1.04    3.25
  -5  -6   3    4.36   18.82
  -5  -6   4    0.08    5.03
  -5  -6   4   -0.26   16.02
   5   6  -4    3.72    4.06
  -5  -6   5   -0.72   25.19
  -5  -6   5   40.01   17.52
   5   6  -5   35.42   16.72
  -5  -6   6   11.44   32.24
  -5  -6   6   57.60   25.68
   5   6  -6   55.26   25.30
  -5  -6   7    4.09   29.43
  -5  -6   7   11.18    6.79
   5   6  -7    5.88    4.64
  -5  -6   8    0.71   17.26
  -5  -6   8    3.75    6.42
   5   6  -8    2.53    3.55
   5   5  -1   19.57   15.74
  -5  -5   1   17.69   18.32
  -5  -5   1   26.55   11.32
  -5  -5   2  128.31   65.00
   5   5  -2  145.12   64.89
  -5  -5   3  231.30  160.92
   5   5  -3  226.91  160.74
  -5  -5   3  220.79   81.40
  -5  -5   4  208.42   75.44
  -5  -5   4  209.19   97.35
   5   5  -4  210.04   97.23
  -5  -5   5  222.07   79.11
  -5  -5   5  209.90  101.22
   5   5  -5  220.68  101.09
  -5  -5   6   82.90   37.04
  -5  -5   6   77.76   36.38
   5   5  -6   76.78   36.03
  -5  -5   7    1.02   14.19
  -5  -5   7    1.70    5.76
   5   5  -7    0.84    3.42
  -5  -5   8   10.91   24.44
  -5  -5   8   18.42    8.61
   5   5  -8   12.72    7.17
  -5  -5   9    2.65   16.24
  -5  -5   9    0.00    5.88
   5   5  -9    3.79    3.36
  -5  -4   1   -0.48    3.84
   5   4  -1    0.04    3.05
  -5  -4   1   -9.38   24.52
   5   4  -2    7.33    5.80
  -5  -4   2    9.32   14.69
  -5  -4   2    6.74   12.21
  -5  -4   2    5.67    6.50
   5   4  -3  284.44  197.48
  -5  -4   3  179.52   97.85
  -5  -4   3  349.44  129.80
   5   4  -3   -0.84   97.74
  -5  -4   4  454.65  282.91
   5   4  -4  376.11  282.73
  -5  -4   4  466.22  140.06
  -5  -4   5   23.32   19.31
  -5  -4   5   17.04   10.12
   5   4  -5   18.50    9.11
  -5  -4   6  254.86   57.02
  -5  -4   6  211.86   94.13
   5   4  -6  195.72   93.90
  -5  -4   7   89.64   65.67
   5   4  -7   93.25   65.36
  -5  -4   7   93.84   39.05
  -5  -4   8   35.27   20.51
  -5  -4   8   49.98   33.57
   5   4  -8   46.22   33.08
  -5  -4   9   -1.60   16.95
   5   4  -9   30.93   16.67
  -5  -4   9   19.09   24.81
   5   3  -1   61.14   40.21
  -5  -3   1  195.53   24.64
  -5  -3   1  208.22   27.52
  -5  -3   1   65.09   26.62
  -5  -3   1   33.52   26.38
   5   3  -1   31.75   26.49
  -5  -3   2  123.78  102.42
   5   3  -2  113.76  102.54
  -5  -3   2  175.60   51.98
  -5  -3   2  148.41   52.15
  -5  -3   2  156.61   67.36
   5   3  -2  170.62   67.25
  -5  -3   3  470.77  295.93
  -5  -3   3  617.59  145.93
  -5  -3   3  353.70  194.18
   5   3  -3   -3.02  144.57
   5   3  -3  374.26  194.25
   5   3  -3  503.75  194.21
  -5  -3   4  793.36  424.59
   5   3  -4  817.80  424.42
  -5  -3   4 1007.54  208.95
  -5  -3   4  498.07  278.66
   5   3  -4   10.46  207.33
   5   3  -4  171.60  278.63
   5   3  -5  229.66  156.98
  -5  -3   5  294.17   79.58
  -5  -3   5  247.09  103.18
   5   3  -5    0.39   77.22
  -5  -3   6   78.88   50.50
   5   3  -6   69.33   50.10
  -5  -3   6   51.95   28.00
  -5  -3   7   81.79   55.59
  -5  -3   7   69.90   33.63
   5   3  -7   77.29   36.31
  -5  -3   8    3.18    5.93
   5   3  -8   -0.50    2.65
  -5  -3   8    7.56   19.22
  -5  -3   9   10.91   12.73
   5   3  -9   17.64   11.39
  -5  -3   9    7.03   24.46
  -5  -3  10   13.19   20.52
  -5  -3  10   -1.96    6.23
   5   3 -10    1.27    3.92
  -5  -2   1  438.76  369.42
   5   2  -1  517.82  369.56
   5   2  -1  575.43  369.44
  -5  -2   1  694.91  180.99
  -5  -2   1  586.33  242.64
   5   2  -2  565.83  444.31
  -5  -2   2  738.16  217.38
  -5  -2   2  646.32  217.32
  -5  -2   2  635.63  291.71
  -5  -2   2  624.16  291.66
   5   2  -2  692.92  217.34
   5   2  -2  640.43  291.66
  -5  -2   3  408.35  260.44
  -5  -2   3  478.37  128.19
  -5  -2   3  363.30  170.89
   5   2  -3    0.67  127.29
   5   2  -3  329.17  170.92
   5   2  -3  401.21  170.90
  -5  -2   4   19.34   17.74
   5   2  -4   25.73   18.03
  -5  -2   4   31.61   12.18
   5   2  -4    1.56   16.58
   5   2  -4   29.54   11.73
  -5  -2   5  216.36   66.16
  -5  -2   5  224.99   86.76
  -5  -2   5  146.06   86.57
   5   2  -5    2.74   65.21
   5   2  -5  150.13   86.61
   5   2  -5  242.32   86.63
  -5  -2   6  680.93  433.57
   5   2  -6  618.82  433.40
  -5  -2   6  667.85  212.85
   5   2  -6  324.81  212.33
  -5  -2   7  255.68   92.33
  -5  -2   7  258.93  120.84
   5   2  -7  261.56  120.72
  -5  -2   8   -0.31   13.03
  -5  -2   8   -1.51    4.54
   5   2  -8   -0.70    2.16
  -5  -2   9    1.23    3.98
  -5  -2   9    1.08   18.81
   5   2  -9    1.72    2.29
  -5  -2  10   26.32   20.77
   5   2 -10   69.23   42.23
  -5  -2  10   39.29   28.30
  -5  -1   1   51.91   38.09
  -5  -1   1   54.68   24.94
   5   1  -1   50.20   25.00
   5   1  -1   54.42   24.89
  -5  -1   2  199.31  130.45
  -5  -1   2  172.72  130.30
  -5  -1   2  209.49   64.43
   5   1  -2  109.08   63.98
   5   1  -2  192.36   85.59
   5   1  -2  192.42   85.52
  -5  -1   3  780.41  512.34
  -5  -1   3  751.12  250.37
  -5  -1   3  742.20  336.33
   5   1  -3    2.97  249.96
   5   1  -3  817.77  336.38
  -5  -1   4  437.47  300.03
   5   1  -4  426.96  300.12
   5   1  -4  437.62  300.02
  -5  -1   4  456.77  147.27
  -5  -1   4  477.06  197.06
   5   1  -4    3.44  146.61
  -5  -1   5  301.71   95.86
  -5  -1   5  292.21  127.22
  -5  -1   5  245.02  127.12
   5   1  -5  157.10   95.42
   5   1  -5  270.13  119.47
   5   1  -5  304.39  127.13
  -5  -1   6  473.14  142.14
  -5  -1   6  427.93  189.39
   5   1  -6  134.58  141.38
   5   1  -6  424.00  189.31
  -5  -1   7  331.00  230.85
   5   1  -7  331.41  230.70
  -5  -1   7  267.24  114.05
  -5  -1   8   48.92   36.20
   5   1  -8   52.24   35.94
  -5  -1   8   41.53   23.29
  -5  -1   9   39.45   33.03
   5   1  -9   49.72   32.76
  -5  -1   9   34.34   23.21
  -5  -1  10   79.19   63.36
  -5  -1  10  128.17   39.89
  -5   0   1   55.49   40.02
  -5   0   1   56.64   39.87
   5   0  -1   55.94   26.25
   5   0  -1   56.53   26.15
  -5   0   2 1727.51 1201.91
  -5   0   2 1673.75 1201.80
   5   0  -2 1691.60  789.20
   5   0  -2 1729.26  789.18
  -5   0   3   14.83    9.43
  -5   0   3    7.29    7.55
  -5   0   3   19.70    7.21
   5   0  -3   -1.15    8.44
   5   0  -3    8.82    6.44
   5   0  -3   12.92    6.27
  -5   0   4   85.90   55.79
  -5   0   4  135.95   28.98
  -5   0   4   68.70   36.51
   5   0  -4   49.72   28.88
   5   0  -4   81.58   36.51
   5   0  -5  106.63   72.39
  -5   0   5   81.98   37.02
  -5   0   5   95.25   47.63
  -5   0   5  106.26   47.55
   5   0  -5   68.00   37.55
   5   0  -5  105.58   44.92
  -5   0   6   28.63   16.68
  -5   0   6   22.89   16.43
   5   0  -6   21.32    3.13
  -5   0   6   19.01   13.02
   5   0  -6   13.18   12.73
  -5   0   7   52.66   35.65
   5   0  -7   50.54   35.32
  -5   0   7   32.76   21.34
  -5   0   8  238.67   49.49
  -5   0   8  121.01   60.22
   5   0  -8  120.86   59.92
  -5   0   9  304.58  192.73
   5   0  -9  263.65  192.47
  -5   0   9  246.91   97.27
  -5   0  10   19.19   16.91
  -5   0  10   16.67    9.85
   5   0 -10   15.66    8.16
   5  -1  -1   47.45   31.82
  -5   1   1   48.89   20.90
  -5   1   1   40.58   20.78
   5  -1  -1   46.10   20.77
   5  -1  -2    7.77    7.28
   5  -1  -2   12.87    7.13
  -5   1   2    5.66    5.04
  -5   1   2   11.12    5.75
  -5   1   2    8.44    4.77
   5  -1  -2    6.64    5.36
   5  -1  -2    2.74    4.75
  -5   1   3   48.42   18.28
  -5   1   3   54.21   22.15
  -5   1   3   39.37   22.00
   5  -1  -3   38.70   17.72
   5  -1  -3   46.45   21.29
   5  -1  -3   52.63   22.01
  -5   1   4  134.70   92.43
   5  -1  -4  126.74   17.16
   5  -1  -4  130.39   92.29
  -5   1   4  118.57   47.00
  -5   1   4  133.28   60.59
   5  -1  -4  130.15   46.82
  -5   1   5   75.69   27.77
  -5   1   5   77.40   34.41
  -5   1   5   70.20   34.30
   5  -1  -5   80.04   29.02
   5  -1  -5   67.80   32.42
   5  -1  -5   77.77   34.27
  -5   1   6    5.26    3.50
  -5   1   6    1.20    2.70
   5  -1  -6    2.48    1.55
   5  -1  -6    2.63    2.41
  -5   1   6    3.33   10.67
   5  -1  -6   -5.09   14.23
  -5   1   7   60.36   34.73
   5  -1  -7   43.87   34.36
  -5   1   7   45.65   21.69
  -5   1   8   14.56   11.20
   5  -1  -8   13.59   10.27
  -5   1   8   16.66   21.19
  -5   1   9    3.42   15.98
  -5   1   9    4.54    5.44
   5  -1  -9    2.52    3.18
  -5   1  10   89.49   30.42
  -5   1  10   71.03   50.99
   5  -1 -10   70.07   50.51
  -5   2   1  706.84  515.01
  -5   2   1  706.11  338.16
   5  -2  -1  764.47  316.87
   5  -2  -1  743.79  338.15
  -5   2   2  906.05  619.01
  -5   2   2  748.01  302.16
  -5   2   2  825.11  406.45
   5  -2  -2  710.10  302.11
   5  -2  -2  641.45  302.10
   5  -2  -2  904.52  380.78
   5  -2  -2  914.84  406.44
   5  -2  -3 1185.97  818.38
  -5   2   3 1061.23  399.51
  -5   2   3 1138.06  537.40
  -5   2   3 1151.70  537.38
   5  -2  -3 1107.99  399.50
   5  -2  -3 1168.77  503.34
   5  -2  -4 1288.39  809.79
  -5   2   4 1165.60  395.56
  -5   2   4 1212.71  531.75
   5  -2  -4  985.70  395.42
   5  -2  -4  889.70  498.03
  -5   2   5  406.64  124.00
   5  -2  -5  441.55   63.86
  -5   2   5  542.03  219.63
  -5   2   5  438.62  219.56
   5  -2  -5  386.71  164.25
   5  -2  -5  503.24  219.56
  -5   2   6  145.94  161.28
   5  -2  -6  196.88   30.50
  -5   2   6  355.05   81.77
  -5   2   6  273.94  105.98
   5  -2  -6  176.56   81.37
   5  -2  -6  277.35  105.89
  -5   2   7   12.32   21.37
  -5   2   7   14.00    6.80
   5  -2  -7   11.11    6.19
  -5   2   8   44.70   19.49
  -5   2   8   35.69   16.73
   5  -2  -8   33.45   16.38
  -5   2   9   66.73   23.01
  -5   2   9   54.50   43.65
   5  -2  -9   63.55   43.44
  -5   2  10   24.50   26.41
  -5   2  10   33.01   16.65
   5  -2 -10   34.99   16.08
  -5   3   1 1294.89  597.08
  -5   3   1 1399.59  597.07
   5  -3  -1 1402.79  443.68
   5  -3  -1 1188.94  443.61
   5  -3  -1 1025.19  559.16
   5  -3  -1 1370.61  597.07
  -5   3   2  402.09  286.36
  -5   3   2  411.62  188.00
   5  -3  -2  371.84  140.27
   5  -3  -2  479.21  140.64
   5  -3  -2  405.40  176.21
   5  -3  -2  402.18  187.97
  -5   3   3 3174.92  435.91
  -5   3   3 1222.84  584.88
  -5   3   3 1058.71  584.86
   5  -3  -3 3288.94  435.86
   5  -3  -3 3079.47  435.62
   5  -3  -3  989.08  547.76
   5  -3  -3 1044.98  584.85
  -5   3   4   20.05   11.28
  -5   3   4   19.35   10.06
  -5   3   4   19.78    9.84
   5  -3  -4   26.37   16.54
   5  -3  -4   18.18    9.69
   5  -3  -4   23.04    9.79
   5  -3  -5   59.68   38.15
  -5   3   5   48.24   21.56
  -5   3   5   61.02   25.23
  -5   3   5   51.48   25.09
   5  -3  -5   52.16   24.25
   5  -3  -5   44.56   23.83
  -5   3   6  181.19   71.29
  -5   3   6  184.12   93.27
   5  -3  -6  211.01   93.21
  -5   3   7   46.03   32.42
   5  -3  -7   42.36   32.14
  -5   3   7   77.18   23.81
  -5   3   8   29.18   27.45
  -5   3   8   66.17   26.16
   5  -3  -8   51.72   25.66
  -5   3   9   -2.50   14.80
  -5   3   9    0.76    4.32
   5  -3  -9    0.68    3.09
  -5   3  10   -7.46   33.06
  -5   3  10   12.86    7.93
   5  -3 -10   14.85    6.88
  -5   4   1  109.41   47.69
  -5   4   1   86.03   47.66
   5  -4  -1   86.67   36.98
   5  -4  -1  100.91   37.12
   5  -4  -1   97.58   44.78
   5  -4  -1  117.19   47.67
   5  -4  -2  465.11   72.71
   5  -4  -2  600.83  379.89
  -5   4   2  540.00  249.43
  -5   4   2  549.43  249.42
   5  -4  -2  528.70  186.07
   5  -4  -2  501.39  186.04
   5  -4  -3    0.88    1.43
  -5   4   3   -2.97    7.35
  -5   4   3   -0.76    2.66
  -5   4   3   -0.88    2.38
   5  -4  -3    4.48    6.83
   5  -4  -3    0.35   15.23
   5  -4  -3    2.52    2.91
  -5   4   4    0.94    3.15
  -5   4   4    3.53    2.82
   5  -4  -4    8.25    7.45
   5  -4  -4    4.89    6.18
   5  -4  -4    1.39    1.31
  -5   4   4    8.40   10.10
   5  -4  -4    3.77    2.35
  -5   4   5  288.61   58.48
  -5   4   5  240.33   73.78
  -5   4   5  112.13   73.61
   5  -4  -5  156.39   58.95
   5  -4  -5   83.28   69.06
   5  -4  -5  225.34   73.67
  -5   4   6   31.41   18.93
  -5   4   6   26.62   11.90
   5  -4  -6   21.28   11.17
  -5   4   7  236.07   60.58
  -5   4   7  213.59  153.62
   5  -4  -7  217.92  100.77
  -5   4   8   50.96   21.46
  -5   4   8   48.27   22.98
   5  -4  -8   47.80   22.50
  -5   4   9    1.69    4.70
   5  -4  -9    3.87    3.04
  -5   4   9   -3.42   25.85
  -5   5   1  528.56  232.56
  -5   5   1  480.46  232.53
   5  -5  -1  482.05  173.70
   5  -5  -1  460.93  173.87
   5  -5  -1  507.91  232.53
  -5   5   2  228.51  157.92
  -5   5   2  234.47  157.91
   5  -5  -2  212.15   78.36
   5  -5  -2  200.32   78.67
   5  -5  -2  219.18  103.59
  -5   5   3  511.68  219.31
  -5   5   3  487.10  219.31
   5  -5  -3  437.67  163.94
   5  -5  -3  303.06  163.75
   5  -5  -3  470.00  219.27
  -5   5   4  278.29   89.16
  -5   5   4  272.03  110.42
  -5   5   4  221.03  117.48
   5  -5  -4  257.92   88.92
   5  -5  -4  171.28   89.43
   5  -5  -4  271.69  117.46
  -5   5   5  511.82   61.40
   5  -5  -5  417.76  321.27
  -5   5   5  527.92  159.22
   5  -5  -5  506.81  159.64
  -5   5   6    8.31    3.41
   5  -5  -6    7.54    6.57
  -5   5   6   17.70   19.71
   5  -5  -6   15.04   25.97
  -5   5   7  179.46   56.39
   5  -5  -7    8.45   59.44
   5  -5  -7  151.94   67.59
  -5   5   8  740.60  166.49
  -5   5   8  651.81  443.47
   5  -5  -8  642.51  443.36
   5  -5  -8   -1.24  219.76
  -5   5   9   17.79   34.73
  -5   5   9    1.43    4.09
   5  -5  -9  -12.47   47.59
   5  -5  -9    0.97    2.82
  -5   6   1  492.56  196.33
  -5   6   1  400.38  196.30
   5  -6  -1  472.12  147.22
   5  -6  -1  379.58  147.42
   5  -6  -1  517.85  196.30
   5  -6  -1  315.84  196.26
   5  -6  -2   24.30   12.88
  -5   6   2    2.08    3.54
   5  -6  -2   17.12   11.16
   5  -6  -2    4.11    3.39
  -5   6   3   10.85    2.35
   5  -6  -3   12.15    7.91
  -5   6   3    7.95    5.92
   5  -6  -3    9.62   11.97
  -5   6   4  553.56  178.11
  -5   6   4  520.96  222.84
   5  -6  -4  567.05  178.51
   5  -6  -4  497.98  237.59
  -5   6   5   33.38    4.80
   5  -6  -5   28.76   21.92
  -5   6   5   28.08   20.23
   5  -6  -5   38.13   23.59
  -5   6   6  596.20   68.23
  -5   6   6  131.74   75.90
   5  -6  -6  645.96   69.55
   5  -6  -6  117.28   80.42
  -5   6   7  512.56  160.79
  -5   6   7  481.51  198.27
   5  -6  -7  441.71  161.49
   5  -6  -7  439.87  211.10
  -5   6   8    8.30   18.74
  -5   6   8    2.55    5.01
   5  -6  -8    2.86   24.36
   5  -6  -8    6.79    4.49
  -5   7   1 1001.52  402.18
  -5   7   1  784.54  402.16
   5  -7  -1 1005.56  299.97
   5  -7  -1 1091.18  402.14
   5  -7  -1  646.88  402.09
  -5   7   2  627.13  288.86
   5  -7  -2  685.15  230.25
   5  -7  -2  682.91  308.13
   5  -7  -3    1.81    2.54
  -5   7   3    0.55    4.35
   5  -7  -3   -6.87   14.69
  -5   7   4  577.20  258.04
   5  -7  -4  941.04  207.02
   5  -7  -4  562.77  275.14
  -5   7   5  310.59  136.48
   5  -7  -5  341.58  111.44
   5  -7  -5  311.79  145.22
  -5   7   6  223.04   29.01
   5  -7  -6  211.02  151.96
  -5   7   6  212.00   78.29
  -5   7   7   77.09   11.06
   5  -7  -7   83.89   56.43
  -5   7   7   48.25   36.06
   5  -7  -7   78.18   40.44
   5  -8  -1   80.33   25.60
   5  -8  -1   74.40   34.99
  -5   8   2    3.43    2.55
   5  -8  -2    1.85   13.39
   5  -8  -2    5.00    3.99
  -5   8   3   49.99    7.29
   5  -8  -3   45.09   23.31
   5  -8  -3   51.73   23.83
  -5   8   4   73.05    6.49
   5  -8  -4   81.20   22.87
   5  -8  -4    5.61   16.73
  -5   8   5    2.51    3.82
   5  -8  -5    1.91   18.88
   5  -8  -5   -0.22    3.33
  -5   8   6   12.34    7.73
   5  -8  -6   13.19   25.81
   5  -8  -6   -2.80    3.45
  -5   9   1  156.13  134.86
   5  -9  -1  446.73  110.46
   5  -9  -1  360.72  143.48
  -5   9   2   12.74    8.12
   5  -9  -2   10.49   13.87
   5  -9  -2    1.18    4.17
  -5   9   3   69.67   16.24
   5  -9  -3   67.04   20.53
   5  -9  -3    0.17   14.50
  -5   9   4   96.49   13.07
   5  -9  -4   74.00   28.73
   5  -9  -5   27.75   20.29
   5 -10  -1    5.36   18.00
   5 -10  -2   18.79   16.57
   5 -10  -3  154.63   60.45
  -4  -8   1   27.24   19.89
  -4  -8   2   28.21   17.80
  -4  -8   2    5.58   19.81
  -4  -8   3   -5.20   27.60
  -4  -8   3   65.73   25.85
  -4  -8   4  126.31   77.24
  -4  -8   4    0.82   42.34
  -4  -8   5    3.50   18.84
  -4  -8   5   -1.28    5.94
   4   8  -5    1.12    4.22
  -4  -7   1    4.07   37.41
  -4  -7   1  120.27   45.87
  -4  -7   2    2.53    3.74
  -4  -7   2    0.22   14.90
  -4  -7   3   28.68   71.33
  -4  -7   3  199.77   92.85
   4   7  -3  218.03   92.77
  -4  -7   4   70.17   56.03
   4   7  -4   74.80   55.86
  -4  -7   4  168.13   35.66
  -4  -7   5   24.16   20.56
   4   7  -5   30.79   20.44
  -4  -7   5   20.70   19.91
  -4  -7   6    1.50   22.94
  -4  -7   6    0.53    4.83
   4   7  -6    3.50    4.28
  -4  -7   7   -0.95   26.07
  -4  -7   7   14.59   31.54
   4   7  -7   51.39   17.59
  -4  -6   1   92.03   63.12
  -4  -6   1   76.62   34.17
  -4  -6   2   14.25   18.56
  -4  -6   2   26.03   18.04
   4   6  -2   45.76   17.88
  -4  -6   3  169.12  124.50
  -4  -6   3  164.81   63.57
   4   6  -3  180.58   81.65
  -4  -6   4  170.08   77.49
   4   6  -4  165.16   77.29
  -4  -6   5    2.97    6.42
   4   6  -5    9.27    5.87
  -4  -6   5    3.32   14.55
  -4  -6   6   29.95   22.97
  -4  -6   6   16.85    8.09
   4   6  -6   11.30    7.12
  -4  -6   7   -3.90   25.52
  -4  -6   7   -1.64    5.81
   4   6  -7    2.07    3.21
  -4  -6   8   11.36   22.66
  -4  -6   8    1.35    5.80
   4   6  -8    2.18    3.23
  -4  -6   9   -1.26   25.30
   4   5  -1   98.61   66.16
  -4  -5   1   89.15   34.74
  -4  -5   1   84.57   43.65
  -4  -5   2   92.97   61.17
   4   5  -2   82.82   60.97
  -4  -5   2   89.73   33.56
  -4  -5   3  113.59   39.67
  -4  -5   3  107.27   48.15
   4   5  -3  100.26   47.90
  -4  -5   4  739.96  260.88
  -4  -5   4  780.60  349.64
   4   5  -4  746.58  349.55
  -4  -5   5   85.60   35.68
  -4  -5   5   93.64   41.78
   4   5  -5   87.96   41.49
  -4  -5   6   70.64   33.63
  -4  -5   6   71.06   35.04
   4   5  -6   75.96   34.72
  -4  -5   7    5.96   14.74
  -4  -5   7   -2.53    5.59
   4   5  -7    2.62    3.36
  -4  -5   8   12.60   22.08
  -4  -5   8   -0.50   11.06
   4   5  -8   27.40   10.33
  -4  -5   9   37.42   20.19
   4   5  -9   46.34   25.52
  -4  -5   9   -0.09   17.62
  -4  -4   1   69.07   54.49
   4   4  -1   60.30   54.63
  -4  -4   1   85.34   28.69
  -4  -4   1   85.69   29.56
  -4  -4   1   88.90   35.94
   4   4  -1   85.09   35.79
  -4  -4   2   15.72   14.71
   4   4  -2   14.60   14.91
  -4  -4   2   18.77   11.16
  -4  -4   2   16.18   13.25
  -4  -4   2   25.60   10.25
   4   4  -2   22.11   15.25
   4   4  -2   26.32    9.77
  -4  -4   3 1449.31  818.43
  -4  -4   3  966.95  818.25
   4   4  -3 1059.53  818.37
   4   4  -3 1385.87  818.27
  -4  -4   3 1326.58  399.83
   4   4  -3   16.17  399.03
  -4  -4   4   18.72   16.74
   4   4  -4   17.87   16.98
   4   4  -4   29.30   16.77
  -4  -4   4   34.84   14.53
  -4  -4   4   29.64   11.61
   4   4  -4   -4.22   14.36
  -4  -4   5   80.14   30.68
  -4  -4   5   94.82   37.78
   4   4  -5    0.41   29.11
   4   4  -5   83.39   37.53
  -4  -4   6  539.52  154.02
  -4  -4   6  453.72  203.93
   4   4  -6  427.80  203.79
  -4  -4   7  319.78  122.50
   4   4  -7  178.03  122.18
  -4  -4   8  129.94   53.93
  -4  -4   8  132.95   66.44
   4   4  -8  146.68   66.22
  -4  -4   9    2.06    7.20
   4   4  -9    8.19    6.19
  -4  -4   9   22.84   21.95
  -4  -4  10  108.84   46.50
  -4  -3   1  766.85  541.95
  -4  -3   1  697.13  541.83
   4   3  -1  782.10  541.96
   4   3  -1  801.72  541.83
  -4  -3   1  964.18  264.94
  -4  -3   1  953.08  265.22
  -4  -3   2    3.06    2.84
  -4  -3   2    0.70    1.90
   4   3  -2    0.41    2.38
  -4  -3   2    2.10    5.28
   4   3  -2    2.91    5.23
   4   3  -2    0.95    1.81
  -4  -3   3  149.06  119.69
   4   3  -3  166.25  119.83
  -4  -3   3  234.02   59.92
  -4  -3   3  196.98   78.68
   4   3  -3    9.02   59.21
   4   3  -3  190.38   78.58
  -4  -3   4   47.63   30.70
   4   3  -4   53.24   30.48
  -4  -3   4   59.06   17.68
  -4  -3   4   42.88   20.04
   4   3  -4   -0.34   16.62
   4   3  -4   19.74   20.23
  -4  -3   5  427.30  281.03
  -4  -3   5  342.16  280.84
   4   3  -5  316.20  280.94
  -4  -3   5  608.92  138.75
   4   3  -5  285.77  138.63
   4   3  -5  464.56  184.42
  -4  -3   6  215.35   62.86
  -4  -3   6  229.74  165.00
   4   3  -6  236.40  164.84
  -4  -3   7  690.22  164.21
  -4  -3   7  671.32  443.20
   4   3  -7  607.64  443.02
  -4  -3   8   38.83   22.89
  -4  -3   8   36.78   17.65
   4   3  -8   36.18   17.08
  -4  -3   9   34.35   17.19
   4   3  -9   17.71   11.07
  -4  -3  10    3.07   30.47
   4   3 -10   55.14   29.99
  -4  -3  10   41.64   28.12
   4   2  -1    2.89    2.30
  -4  -2   1    3.13    4.26
  -4  -2   1    4.92    7.53
  -4  -2   1    3.84    3.32
  -4  -2   1    1.39    2.03
   4   2  -1    4.57    6.42
   4   2  -1    2.31    3.11
  -4  -2   2 1176.17  820.66
  -4  -2   2 1168.18  400.53
  -4  -2   2 1149.93  538.91
   4   2  -2 1150.88  400.50
   4   2  -2 1143.07  538.90
   4   2  -2 1165.43  538.87
  -4  -2   3   23.40   14.80
  -4  -2   3   19.12   14.52
   4   2  -3   23.60   14.54
  -4  -2   3   15.17    9.42
   4   2  -3    0.77    8.79
   4   2  -3   18.81    9.82
  -4  -2   4  432.86  342.43
  -4  -2   4  467.18  342.30
   4   2  -4  496.50  342.41
   4   2  -4  549.22  342.31
  -4  -2   4  481.88  167.80
   4   2  -4  196.38  167.41
  -4  -2   5  237.57  141.05
  -4  -2   5  189.65  140.89
   4   2  -5  188.15  140.97
   4   2  -5  199.58  140.89
  -4  -2   5  204.29   70.20
   4   2  -5  193.92   70.62
  -4  -2   6  371.71   91.90
  -4  -2   6  382.71  245.64
   4   2  -6  386.52  245.49
  -4  -2   6  306.85  161.18
   4   2  -6  223.19  120.91
   4   2  -6  331.92  151.31
  -4  -2   7  711.41  233.97
  -4  -2   7  706.70  313.13
   4   2  -7  661.09  313.05
  -4  -2   8   74.85   29.67
  -4  -2   8   58.64   28.03
   4   2  -8   58.39   27.74
  -4  -2   9   11.89    9.74
   4   2  -9   12.60    9.15
  -4  -2   9   10.95   21.25
  -4  -2  10    0.23    6.89
   4   2 -10    4.31    3.96
  -4  -2  10   -1.27   16.64
  -4  -1   1  355.43  240.67
  -4  -1   1  354.49  117.73
  -4  -1   1  334.89  117.76
  -4  -1   1  325.45  158.03
   4   1  -1  336.64  158.03
   4   1  -1  334.31  158.00
  -4  -1   2   94.65   60.26
   4   1  -2   81.57   60.22
  -4  -1   2   84.09   30.06
  -4  -1   2   83.51   39.44
   4   1  -2   59.10   30.01
   4   1  -2   87.28   39.45
  -4  -1   3  853.53  602.61
   4   1  -3  911.77  602.70
   4   1  -3  877.47  602.60
  -4  -1   3  936.74  294.34
  -4  -1   3  902.49  395.71
   4   1  -3  191.71  293.98
  -4  -1   4    8.94    6.57
  -4  -1   4    5.98    4.58
  -4  -1   4    4.44    3.00
   4   1  -4   -1.90    7.21
   4   1  -4    6.05    3.37
   4   1  -4    6.36    3.05
  -4  -1   5  234.21   53.73
  -4  -1   5  201.49  141.09
   4   1  -5  188.22  140.98
  -4  -1   5  202.56   92.54
   4   1  -5  126.68   69.90
   4   1  -5  226.35   87.07
  -4  -1   6  146.72   34.26
  -4  -1   6  115.68   41.71
  -4  -1   6   62.18   41.52
   4   1  -6   65.83   33.95
   4   1  -6   61.21   39.20
   4   1  -6  111.61   41.56
  -4  -1   7   20.11   12.15
  -4  -1   7    6.97    5.23
   4   1  -7    6.85    4.19
  -4  -1   8   12.12   16.22
  -4  -1   8    1.10    5.10
   4   1  -8    0.26    2.69
  -4  -1   9  127.83   91.37
   4   1  -9  130.83   91.15
  -4  -1   9  115.55   48.02
  -4  -1  10   81.82   35.17
  -4  -1  10   82.43   37.16
   4   1 -10   76.87   36.63
  -4   0   1  348.57  248.14
   4   0  -1  364.83  248.14
  -4   0   1  344.02  162.92
   4   0  -1  334.93  162.91
  -4   0   2 1482.51  538.00
  -4   0   2 1601.16  724.55
  -4   0   2 1607.17  724.53
   4   0  -2   53.53  537.81
   4   0  -2 1673.24  724.55
   4   0  -2 1628.61  724.53
  -4   0   3  701.06  230.24
  -4   0   3  613.24  309.40
  -4   0   3  676.03  309.38
   4   0  -3  539.69  230.17
   4   0  -3  674.25  309.40
   4   0  -3  689.13  309.38
  -4   0   4 1404.85 1015.83
   4   0  -4 1435.22 1015.73
  -4   0   4 1693.59  495.71
  -4   0   4 1359.98  666.98
   4   0  -4 1700.53  495.78
   4   0  -4 1518.97  624.74
  -4   0   5  207.36  150.14
   4   0  -5  196.18   28.30
  -4   0   5  195.68   74.37
  -4   0   5  226.45   98.60
   4   0  -5  175.86   74.46
   4   0  -5  225.79   98.54
  -4   0   6  106.31   75.00
  -4   0   6  107.02   74.92
   4   0  -6  112.65   74.87
  -4   0   6  100.70   38.51
   4   0  -6   60.20   38.62
   4   0  -6  102.21   46.31
  -4   0   7  199.75  154.17
   4   0  -7  228.81  154.03
  -4   0   7  193.10   76.73
  -4   0   8 1053.08  158.67
  -4   0   8  603.10  279.91
   4   0  -8  554.54  279.79
  -4   0   9    7.02    6.97
   4   0  -9    6.66    5.41
  -4   0   9    7.36   19.07
  -4   0  10   20.77   23.59
  -4   0  10    4.90    7.09
   4   0 -10    9.15    5.17
  -4   1   1 2652.97 1197.34
  -4   1   1 2521.16 1197.33
   4  -1  -1 2687.92 1197.34
   4  -1  -1 2580.08 1197.33
  -4   1   2    2.91    3.70
  -4   1   2   -0.12    2.47
  -4   1   2   -0.01    1.38
   4  -1  -2    0.50    3.11
   4  -1  -2    0.68    1.87
   4  -1  -2    0.53    1.52
   4  -1  -3  604.89   80.76
   4  -1  -3  591.31  422.84
  -4   1   3  573.03  206.71
  -4   1   3  603.81  277.65
  -4   1   3  603.94  277.62
   4  -1  -3  624.36  206.78
  -4   1   4  349.90  247.23
   4  -1  -4  321.84  247.14
  -4   1   4  373.06  121.38
  -4   1   4  367.15  162.26
   4  -1  -4  338.76  121.47
   4  -1  -4  372.53  152.15
  -4   1   5  171.57  121.65
  -4   1   5  182.75  121.58
   4  -1  -5  150.47   22.82
   4  -1  -5  184.83  121.55
  -4   1   5  167.62   60.61
   4  -1  -5  123.26   60.82
  -4   1   6    1.15    8.78
   4  -1  -6    0.00    1.77
  -4   1   6   15.93   11.45
  -4   1   6   31.36    7.06
   4  -1  -6    1.03   12.68
   4  -1  -6   19.26    6.25
  -4   1   7   30.62   19.25
  -4   1   7   42.88   19.66
   4  -1  -7   42.01   19.40
  -4   1   8  108.29   81.11
   4  -1  -8  118.76   80.96
  -4   1   8   98.69   44.46
  -4   1   9   -0.29    3.37
   4  -1  -9    0.30    2.30
  -4   1   9    6.16   24.38
  -4   1  10  106.78   41.23
  -4   1  10   66.07   34.81
   4  -1 -10   74.69   34.57
   4  -2  -1  458.47  303.84
  -4   2   1  411.56  199.46
  -4   2   1  412.78  199.46
   4  -2  -1  408.74  148.55
   4  -2  -1  429.15  148.56
   4  -2  -1  427.48  186.95
  -4   2   2  257.82  184.62
   4  -2  -2  271.52   34.83
  -4   2   2  260.81   90.66
  -4   2   2  277.65  121.14
   4  -2  -2  118.03   90.49
   4  -2  -2  270.50   90.60
   4  -2  -2  258.99  121.13
  -4   2   3    3.45    2.50
  -4   2   3    5.13    5.61
  -4   2   3    4.15    2.82
   4  -2  -3    1.47    6.59
   4  -2  -3   -1.38    2.46
   4  -2  -3    4.00    2.11
  -4   2   4   70.90   50.75
  -4   2   4   72.50   50.69
   4  -2  -4   73.31   50.65
  -4   2   4   68.14   26.97
   4  -2  -4   69.31   26.79
   4  -2  -4   69.62   31.42
   4  -2  -5  255.49   84.18
   4  -2  -5  326.26  225.35
  -4   2   5  339.05  147.99
  -4   2   5  309.97  147.96
   4  -2  -5  315.06  138.76
  -4   2   6  228.40  142.69
   4  -2  -6  170.46   26.98
   4  -2  -6  221.82  142.57
  -4   2   6  264.80   72.29
  -4   2   6  184.19   93.60
   4  -2  -6  177.51   71.56
  -4   2   7   56.55   33.85
   4  -2  -7   40.86   33.57
  -4   2   7   67.30   26.67
  -4   2   8  285.61  193.26
   4  -2  -8  265.24  193.10
  -4   2   8  303.75   98.67
  -4   2   9   61.74   27.46
  -4   2   9   49.51   24.83
   4  -2  -9   52.69   24.43
  -4   2  10   90.44   73.38
   4  -2 -10  111.52   73.20
  -4   2  10   61.53   43.60
   4  -3  -1   75.86    8.98
  -4   3   1   64.35   33.26
  -4   3   1   73.30   33.25
   4  -3  -1   82.22   25.77
   4  -3  -1   68.41   25.80
   4  -3  -1   70.55   33.25
  -4   3   2  500.49  384.82
  -4   3   2  536.43  384.77
  -4   3   2  541.03  188.27
   4  -3  -2  542.88  188.19
   4  -3  -2  552.14  188.23
   4  -3  -2  554.18  236.68
   4  -3  -2  566.28  252.60
  -4   3   3 3289.90  443.39
  -4   3   3 1024.61  595.08
   4  -3  -3 3536.16  443.26
   4  -3  -3  931.14  557.30
  -4   3   4  173.74   38.95
  -4   3   4  141.38   99.82
   4  -3  -4  116.07   18.73
  -4   3   4  158.89   61.72
   4  -3  -4  125.34   50.17
   4  -3  -4  152.50   65.49
   4  -3  -5 1009.71  686.08
  -4   3   5 1022.98  335.56
  -4   3   5 1110.70  422.15
  -4   3   5  854.49  450.50
   4  -3  -5  941.45  335.48
   4  -3  -5  953.51  421.96
  -4   3   6   45.05    5.29
   4  -3  -6   39.04   27.36
  -4   3   6   32.29   17.92
   4  -3  -6    8.96   18.13
  -4   3   7  567.48  420.94
   4  -3  -7  591.92  420.84
  -4   3   7  830.22  207.59
  -4   3   8 1037.94  261.72
  -4   3   8  983.70  465.74
   4  -3  -8 1014.42  465.67
  -4   3   9   24.59   24.88
  -4   3   9   24.63   14.34
   4  -3  -9   30.64   13.55
  -4   3  10    9.63   20.58
  -4   3  10    5.78    5.13
   4  -3 -10    4.10    4.17
  -4   4   1  823.19  799.19
  -4   4   1 1620.66  524.76
   4  -4  -1 1255.88  390.22
   4  -4  -1  894.14  390.13
   4  -4  -1 1002.70  524.72
  -4   4   2    5.79    2.60
  -4   4   2    3.29    6.41
  -4   4   2    4.73    3.11
   4  -4  -2    7.15    5.88
   4  -4  -2    2.58    8.03
   4  -4  -2   -0.46    2.08
   4  -4  -2    3.73    1.94
  -4   4   3  185.36   18.04
   4  -4  -3  152.83   96.77
  -4   4   3  166.60   48.96
  -4   4   3  171.71   63.54
   4  -4  -3  146.79   48.73
   4  -4  -3  137.31   48.68
   4  -4  -3   86.64   59.56
   4  -4  -4    0.69    1.91
  -4   4   4   -1.25    9.85
  -4   4   4    0.32    3.80
  -4   4   4    1.27    2.29
   4  -4  -4    1.56   10.59
   4  -4  -4    3.86    9.68
   4  -4  -4    0.67    2.06
  -4   4   5   40.44    4.61
   4  -4  -5   37.74   24.46
  -4   4   5   47.08   18.11
  -4   4   5   26.46   16.25
   4  -4  -5   11.09   15.89
  -4   4   6    7.28   11.08
  -4   4   6   10.33    7.41
   4  -4  -6   11.46    5.70
  -4   4   7  369.66   52.39
   4  -4  -7  397.85  274.24
  -4   4   7  391.25  136.59
   4  -4  -8    2.22    2.89
  -4   4   8    8.69   21.75
  -4   4   9    1.60   25.27
  -4   4   9   -1.37    5.21
   4  -4  -9   -0.97    2.80
  -4   5   1  171.69   72.49
  -4   5   1  159.15   77.15
   4  -5  -1  190.00   58.72
   4  -5  -1  175.53   58.94
   4  -5  -1  164.29   77.13
  -4   5   2  187.93   28.50
  -4   5   2  216.79   99.50
   4  -5  -2  246.78   75.15
   4  -5  -2  194.70   75.38
   4  -5  -2  229.34   99.48
  -4   5   3  779.38  177.59
   4  -5  -3  567.00  177.25
  -4   5   3  690.42  296.41
  -4   5   3  631.71  316.32
   4  -5  -3  700.37  235.89
   4  -5  -3  713.42  316.31
  -4   5   4   79.50   63.65
  -4   5   4   80.66   33.65
   4  -5  -4   90.57   33.44
   4  -5  -4   65.72   33.45
   4  -5  -4  101.26   41.78
   4  -5  -5   92.29   68.63
  -4   5   5  111.40   38.87
   4  -5  -5  130.28   40.78
  -4   5   6   78.91   21.64
  -4   5   6   60.16   26.74
   4  -5  -6   23.44   32.88
   4  -5  -6   60.31   27.81
  -4   5   7    8.31   13.42
  -4   5   7    6.16    3.24
   4  -5  -7   -1.85   19.27
   4  -5  -7    6.96    5.20
  -4   5   8  180.27   46.30
   4  -5  -8    0.00   48.04
  -4   5   8  164.58   67.20
   4  -5  -8  153.73   70.88
  -4   5   9   10.40    8.47
   4  -5  -9   -7.71   30.05
   4  -5  -9   11.83    8.03
  -4   5   9    8.09   34.84
  -4   6   1    0.90    4.97
  -4   6   1    0.40    2.48
   4  -6  -1   -0.75    8.99
   4  -6  -1    1.00   10.27
   4  -6  -1   -0.17    2.38
   4  -6  -1    1.34    1.64
   4  -6  -2   26.11   22.25
  -4   6   2   27.26   14.18
  -4   6   2   22.13   14.75
   4  -6  -2  110.55   17.27
   4  -6  -2   58.82   19.61
  -4   6   3  838.73  103.99
  -4   6   3  549.98  355.93
   4  -6  -3  739.67  265.39
   4  -6  -3  879.81  355.98
  -4   6   4  143.51   35.65
  -4   6   4  115.74   16.37
   4  -6  -4  155.06   36.01
  -4   6   5  208.67   57.55
  -4   6   5  206.10   28.00
   4  -6  -5  217.82   58.02
   4  -6  -5  210.46   96.97
  -4   6   6  141.07   32.05
  -4   6   6   42.60   27.33
   4  -6  -6  144.43   34.15
   4  -6  -6   57.84   28.49
  -4   6   7  301.95  111.41
  -4   6   7  326.12  135.38
   4  -6  -7  292.15  112.70
   4  -6  -7  303.24  144.02
  -4   6   8    3.11   18.45
  -4   6   8    8.64    3.29
   4  -6  -8   13.80   24.31
   4  -6  -8    7.71    6.28
  -4   7   1  106.60   36.11
  -4   7   1   64.09   38.10
   4  -7  -1   83.01   31.15
   4  -7  -1  102.40   37.86
   4  -7  -1   59.98   37.77
  -4   7   2  320.59   41.88
   4  -7  -2  311.33  108.65
   4  -7  -2  302.73  144.06
  -4   7   3  145.70   19.58
   4  -7  -3  141.42   53.05
  -4   7   4  152.48   75.66
   4  -7  -4  492.62   65.67
   4  -7  -4  148.40   80.40
   4  -7  -5  379.23   91.04
  -4   7   5  332.60  147.41
   4  -7  -5  338.76  157.03
  -4   7   6   32.87   25.31
  -4   7   6   37.03   20.76
   4  -7  -6   26.68   28.80
   4  -7  -6   54.57   21.37
  -4   7   7   41.63   25.82
  -4   7   7   24.07   15.84
   4  -7  -7   32.27   30.18
   4  -7  -7   37.00   15.63
  -4   8   1   23.75   12.61
   4  -8  -1   23.18   14.68
   4  -8  -1   22.57   11.04
   4  -8  -2   31.61   16.47
   4  -8  -2   46.77   33.81
  -4   8   2   50.98   22.52
  -4   8   3    4.46    3.55
   4  -8  -3    6.08   13.29
   4  -8  -3    4.49    4.88
  -4   8   4  130.97   54.11
   4  -8  -4   96.28   46.85
   4  -8  -4  119.59   57.17
  -4   8   5  390.85  164.46
   4  -8  -5  329.02  132.82
   4  -8  -5  373.58  175.15
  -4   8   6  111.26   54.01
   4  -8  -6  101.73   50.65
   4  -8  -6  133.46   57.04
  -4   9   1  491.95  131.01
   4  -9  -1  524.29  107.64
   4  -9  -1   97.31  138.94
  -4   9   2   34.04    5.80
   4  -9  -2   30.18   18.79
  -4   9   3    2.44    7.51
   4  -9  -3    1.43    5.17
   4  -9  -4    0.04   17.10
  -4   9   4   48.68   13.08
   4  -9  -4   41.07   19.01
   4  -9  -5   -3.67   10.32
   4 -10  -1   66.92   33.05
   4 -10  -2   28.03   18.61
   4 -10  -3   81.50   28.83
  -3  -9   2    0.52    7.07
  -3  -9   3    4.66    7.03
  -3  -8   1    1.95   12.59
  -3  -8   1    5.89    5.42
  -3  -8   2    8.19   92.15
  -3  -8   2  322.04  122.71
  -3  -8   3  100.57   72.76
  -3  -8   3  112.90   39.78
  -3  -8   4  231.40   49.39
  -3  -8   4  106.60   58.74
  -3  -8   5   21.59   16.26
  -3  -8   5   -1.69    6.40
   3   8  -5    6.95    4.91
  -3  -8   6   16.21   22.36
  -3  -8   6    6.35    7.04
   3   8  -6    3.48    5.06
  -3  -8   7   17.86   17.09
  -3  -7   1    6.15   10.25
  -3  -7   1    5.37    5.21
  -3  -7   2    3.74    4.74
  -3  -7   2    8.41   11.30
  -3  -7   3  235.18   67.00
  -3  -7   3  243.47  176.71
   3   7  -3  255.31  176.61
  -3  -7   4  138.59   93.29
   3   7  -4  127.53   93.13
  -3  -7   4  141.94   48.78
  -3  -7   5  364.36  260.86
  -3  -7   5  408.71  129.53
   3   7  -5  368.26  171.21
  -3  -7   6    0.34    3.68
   3   7  -6    1.56    3.22
  -3  -7   6   -8.32   21.71
  -3  -7   7  164.91   45.85
  -3  -7   7    1.32   47.23
   3   7  -7  134.30   47.34
  -3  -7   8  139.46   45.26
  -3  -6   1  274.79  194.44
  -3  -6   1  277.86   96.70
  -3  -6   2   16.16   74.96
   3   6  -2  233.01   75.08
  -3  -6   3    3.62    8.49
  -3  -6   3    4.37    5.91
   3   6  -3    6.59    4.51
  -3  -6   4   25.37   16.82
  -3  -6   4   21.07   15.46
   3   6  -4   21.65   11.09
  -3  -6   5  125.38   48.87
  -3  -6   5  128.31   61.69
   3   6  -5  134.82   61.55
   3   6  -6   -2.39    3.13
  -3  -6   6  -15.11   19.76
  -3  -6   6   -2.42    5.58
  -3  -6   7    0.99    3.93
   3   6  -7    0.30    2.20
  -3  -6   7   -2.74   23.43
  -3  -6   8   57.51   19.51
  -3  -6   8   -1.03   11.71
   3   6  -8   27.63   10.97
  -3  -6   9    5.64   24.03
  -3  -5   1  146.55   87.11
  -3  -5   1  108.35   86.95
   3   5  -1   44.80   87.07
   3   5  -1  152.52   86.99
  -3  -5   1  140.37   43.92
  -3  -5   1  155.27   45.29
   3   5  -1  142.34   45.43
  -3  -5   2  462.68  131.67
  -3  -5   2  375.66  131.74
  -3  -5   2  429.81  175.43
  -3  -5   2  360.31  175.35
   3   5  -2  447.50  132.21
   3   5  -2  298.45  175.38
   3   5  -2  391.06  175.35
  -3  -5   3  260.18  201.73
   3   5  -3  220.91  201.85
  -3  -5   3  288.95   99.58
  -3  -5   3  344.17  132.56
   3   5  -3  223.07   99.70
   3   5  -3  318.61  132.46
  -3  -5   4   49.97   16.70
  -3  -5   4   54.95   18.39
  -3  -5   4   27.26   17.99
   3   5  -4   15.71   18.76
   3   5  -4   24.49   18.22
   3   5  -4   49.60   18.05
  -3  -5   5   71.85   19.40
  -3  -5   5   58.45   27.40
   3   5  -5   57.21   27.16
  -3  -5   6  103.41   70.07
   3   5  -6   93.80   69.84
  -3  -5   6  142.45   40.13
  -3  -5   7  249.22  179.17
  -3  -5   7  316.42   91.62
   3   5  -7  250.64  117.54
  -3  -5   8  122.56   27.13
  -3  -5   8   -1.38   36.90
   3   5  -8  101.39   36.87
  -3  -5   9    4.86    5.75
  -3  -5   9    8.42   23.29
   3   5  -9    2.01    4.55
  -3  -5  10    9.27   23.26
  -3  -4   1  179.00  117.94
   3   4  -1  173.28  117.82
  -3  -4   1  158.33   58.42
  -3  -4   1  185.16   59.38
  -3  -4   1  160.31   77.34
   3   4  -1  161.81   59.05
   3   4  -1  155.77   77.40
  -3  -4   2    1.15    2.63
  -3  -4   2    1.79    1.57
   3   4  -2    0.99    4.00
   3   4  -2    1.84    2.60
   3   4  -2   -0.33    1.52
  -3  -4   2   -0.40    9.83
  -3  -4   3  195.44  134.55
  -3  -4   3  201.12  134.41
   3   4  -3  169.14  134.52
   3   4  -3  189.77  134.40
  -3  -4   3  192.84   66.70
   3   4  -3  146.08   66.85
  -3  -4   4    2.28    2.87
   3   4  -4    1.49    1.65
  -3  -4   4    8.58    9.99
  -3  -4   4   -0.01    1.74
   3   4  -4    1.56    7.57
   3   4  -4    1.02    2.87
  -3  -4   5    3.31    5.78
  -3  -4   5    1.45    3.13
   3   4  -5    1.72    2.01
  -3  -4   5    2.76    2.16
   3   4  -5    2.40   10.33
   3   4  -5    0.17    3.14
  -3  -4   6    2.25    3.70
   3   4  -6    3.41    2.65
  -3  -4   6    0.83    9.70
  -3  -4   7  181.51  113.82
   3   4  -7  109.67  113.48
  -3  -4   7  750.88   63.32
  -3  -4   8  101.62   31.48
  -3  -4   8   96.35   48.18
   3   4  -8  105.42   47.94
  -3  -4   9  114.63   27.84
  -3  -4   9   -0.60   37.52
   3   4  -9  104.32   37.49
  -3  -4  10    5.66   15.28
  -3  -3   1   27.80   61.32
  -3  -3   1  289.94   32.36
  -3  -3   1   34.78   40.14
   3   3  -1  154.30   31.51
   3   3  -1   90.75   40.30
  -3  -3   2    7.15    5.25
  -3  -3   2    3.58    3.60
  -3  -3   2    4.25    2.44
   3   3  -2    2.47    6.29
   3   3  -2    3.84    3.45
   3   3  -2    3.76    2.46
  -3  -3   3  106.38   72.40
   3   3  -3   99.71   72.25
  -3  -3   3  113.58   36.49
  -3  -3   3  105.84   47.43
   3   3  -3   83.42   36.41
   3   3  -3   97.72   47.48
   3   3  -4  115.57   34.32
  -3  -3   4  134.60   44.86
  -3  -3   4  128.92   58.13
  -3  -3   4  116.55   58.01
   3   3  -4  118.59   58.10
   3   3  -4  134.20   58.02
  -3  -3   5  220.58   28.32
  -3  -3   5   94.32   43.99
  -3  -3   5   72.56   43.77
   3   3  -5   73.02   34.72
   3   3  -5   78.72   43.82
   3   3  -5  111.84   43.83
  -3  -3   6    9.86    5.56
   3   3  -6    1.42    6.93
   3   3  -6    6.47    4.57
  -3  -3   6   10.48    9.50
  -3  -3   6    3.80    3.63
   3   3  -6    5.72    6.05
  -3  -3   7  121.37   42.05
  -3  -3   7  107.55   51.62
   3   3  -7  111.21   51.42
  -3  -3   8   70.20   26.15
  -3  -3   8   89.92   38.76
   3   3  -8   79.89   38.16
   3   3  -9   42.90   41.01
  -3  -3   9  236.26   33.41
  -3  -3   9   58.26   28.10
  -3  -3  10    1.75   24.32
  -3  -3  10   41.51   26.23
   3   3 -10   42.77   16.00
  -3  -2   1  185.82  136.61
  -3  -2   1  209.62   67.35
  -3  -2   1  188.27   67.19
  -3  -2   1  195.10   89.59
   3   2  -1  186.46   67.15
   3   2  -1  194.41   89.63
   3   2  -1  193.60   89.59
   3   2  -2   19.59   14.99
  -3  -2   2   22.06    8.76
  -3  -2   2   18.07   10.17
  -3  -2   2   23.56    9.95
   3   2  -2   14.02    8.71
   3   2  -2   22.49   10.06
  -3  -2   3  884.91  634.38
   3   2  -3  848.90  634.48
  -3  -2   3  957.06  309.90
  -3  -2   3  854.85  416.57
   3   2  -3  892.31  309.80
   3   2  -3  945.26  416.55
  -3  -2   4  748.87  503.86
  -3  -2   4  661.35  246.36
  -3  -2   4  724.95  330.87
   3   2  -4  656.03  330.85
   3   2  -4  709.39  330.83
  -3  -2   5  904.42  222.80
  -3  -2   5  912.00  398.70
  -3  -2   5  811.07  398.65
   3   2  -5  832.68  296.82
   3   2  -5  933.24  373.59
   3   2  -5  852.56  398.65
  -3  -2   6  248.07  172.47
  -3  -2   6  229.26  172.37
   3   2  -6  246.01   32.67
   3   2  -6  261.02  172.34
  -3  -2   6  284.04   85.65
   3   2  -6  137.78   85.24
  -3  -2   7  174.21   46.57
  -3  -2   7  129.29   58.56
   3   2  -7  120.40   58.43
  -3  -2   8  152.45  104.10
   3   2  -8  143.96  103.91
  -3  -2   8  159.57   55.41
  -3  -2   9  371.04  248.72
   3   2  -9  341.63  248.51
  -3  -2   9  389.33  124.27
   3   2 -10    6.35    3.44
  -3  -2  10  -14.92   16.82
  -3  -2  10   -2.24    6.30
  -3  -1   1   47.21   35.54
  -3  -1   1   46.96   35.41
  -3  -1   1   58.28   17.87
   3   1  -1   52.76   23.32
   3   1  -1   52.22   23.22
  -3  -1   2  429.33  300.01
  -3  -1   2  419.80  299.90
   3   1  -2  421.00  299.91
  -3  -1   2  448.27  146.71
   3   1  -2  360.18  146.63
   3   1  -2  455.71  196.91
  -3  -1   3  319.51  112.06
  -3  -1   3  311.97  150.05
  -3  -1   3  309.35  150.01
   3   1  -3  312.68  112.09
   3   1  -3  352.63  150.05
   3   1  -3  332.10  150.02
  -3  -1   4 1037.92  326.12
  -3  -1   4  888.85  438.38
  -3  -1   4  892.45  438.36
   3   1  -4  974.71  326.11
   3   1  -4 1007.89  438.37
  -3  -1   5  242.89   66.79
  -3  -1   5  257.59  177.84
  -3  -1   5  251.13  116.68
   3   1  -5  244.32   87.97
   3   1  -5  241.92  109.51
   3   1  -5  257.33  116.67
  -3  -1   6  522.22  391.55
   3   1  -6  485.09   74.87
  -3  -1   6  738.56  192.16
  -3  -1   6  643.47  257.14
   3   1  -6  547.99  192.17
   3   1  -6  566.47  257.07
  -3  -1   7   43.20   11.82
  -3  -1   7   32.90   13.42
  -3  -1   7   19.09   13.02
   3   1  -7   19.58   12.82
   3   1  -7   34.64   13.03
  -3  -1   8  921.97  578.79
   3   1  -8  791.34  578.61
  -3  -1   8  724.34  283.43
  -3  -1   9    9.12   15.06
  -3  -1   9   -1.37    5.26
   3   1  -9    1.82    2.96
  -3  -1  10   -1.46    5.99
   3   1 -10    7.91    5.16
  -3   0   1  516.52  374.12
  -3   0   1  531.97  374.03
  -3   0   1  520.41  182.56
   3   0  -1  499.15  182.55
   3   0  -1  517.84  245.56
   3   0  -1  543.07  245.57
  -3   0   2   75.01   55.31
  -3   0   2   79.05   55.21
   3   0  -2   84.40   55.31
   3   0  -2   76.70   55.21
  -3   0   2   78.65   27.57
   3   0  -2   68.77   27.61
  -3   0   3 3148.16 2179.76
  -3   0   3 3111.00 2179.68
   3   0  -3 3032.17 2179.68
  -3   0   3 3073.87 1062.50
   3   0  -3 3265.65 1062.55
  -3   0   4 1577.17 1049.82
   3   0  -4 1442.28  201.69
  -3   0   4 1748.83  512.26
  -3   0   4 1462.25  689.36
   3   0  -4 1851.51  512.38
   3   0  -4 1389.22  689.34
  -3   0   5  449.29  335.67
  -3   0   5  480.88  164.55
  -3   0   5  515.49  220.41
   3   0  -5  445.21  164.65
   3   0  -5  473.85  206.54
   3   0  -5  480.77  220.37
  -3   0   6   34.86   23.53
  -3   0   6   41.37   15.38
  -3   0   6   30.22   15.41
   3   0  -6   17.88   15.80
   3   0  -6   35.18   14.90
   3   0  -7   74.58   12.26
  -3   0   7  122.53   34.98
  -3   0   7  113.99   43.46
  -3   0   7   70.40   43.31
   3   0  -7  109.64   43.32
  -3   0   8  180.70   31.19
  -3   0   8  104.30   74.71
   3   0  -8   97.25   74.55
  -3   0   9    1.15   12.01
  -3   0   9    1.30    4.34
   3   0  -9    2.00    3.03
  -3   0  10   97.01   36.52
  -3   0  10   -2.08   32.88
   3   0 -10   94.70   32.88
  -3   1   1  219.09  159.12
  -3   1   1  225.74   77.97
  -3   1   1  211.97  104.42
   3  -1  -1  226.96   77.94
   3  -1  -1  240.19  104.43
   3  -1  -1  230.30  104.43
  -3   1   2  104.87  229.87
   3  -1  -2  192.78  229.80
  -3   1   2  173.92  150.84
   3  -1  -2  189.47  112.42
   3  -1  -2  233.57  141.49
  -3   1   3  358.82  132.81
  -3   1   3  385.71  178.02
  -3   1   3  382.39  178.01
   3  -1  -3  376.62  132.81
   3  -1  -3  385.60  166.85
   3  -1  -3  388.44  178.00
  -3   1   4    2.81    4.90
  -3   1   4    5.22    3.35
  -3   1   4    4.65    2.85
   3  -1  -4    6.77    6.51
   3  -1  -4    2.79    3.20
   3  -1  -4    4.69    2.61
  -3   1   5  425.89  284.00
   3  -1  -5  375.64   54.11
   3  -1  -5  402.84  283.91
  -3   1   5  430.57  139.42
  -3   1   5  407.86  186.41
   3  -1  -5  383.51  139.57
  -3   1   6    3.46   12.57
  -3   1   6   24.24   12.14
  -3   1   6   32.19    8.92
   3  -1  -6    0.48   12.32
   3  -1  -6    3.35    8.34
   3  -1  -6   31.52    8.52
  -3   1   7 1089.58  784.49
   3  -1  -7 1123.29  784.39
  -3   1   8  350.36  232.42
   3  -1  -8  314.87  232.28
  -3   1   8  365.79  115.33
  -3   1   9    6.54   15.60
  -3   1   9    0.47    3.51
   3  -1  -9    2.58    2.93
   3  -1 -10  246.76  172.40
  -3   1  10  263.82   92.11
  -3   1  10  234.30  113.41
  -3   2   1    6.47    3.81
  -3   2   1    3.70    2.55
  -3   2   1    3.34    2.25
   3  -2  -1    8.28    3.51
   3  -2  -1   12.44    5.81
   3  -2  -1    3.73    2.53
   3  -2  -1    4.30    2.14
  -3   2   2 1244.08  318.57
   3  -2  -2 1159.28  318.48
  -3   2   2 1344.27  572.72
  -3   2   2 1298.48  572.71
   3  -2  -2 1150.78  536.35
   3  -2  -2 1204.77  572.71
  -3   2   3  271.70  170.86
   3  -2  -3  241.75   32.26
  -3   2   3  236.78   84.10
  -3   2   3  242.51  105.24
   3  -2  -3  241.80   84.11
   3  -2  -3  220.95  112.12
  -3   2   4   95.51   11.61
   3  -2  -4   81.48   63.63
  -3   2   4  127.21   33.49
  -3   2   4   83.21   41.78
   3  -2  -4  100.80   32.79
   3  -2  -4   96.62   39.35
  -3   2   5   12.23    9.05
   3  -2  -5   11.32    1.81
  -3   2   5    7.85   12.98
  -3   2   5   14.09    6.79
   3  -2  -5   15.85    9.59
   3  -2  -5   12.49    6.06
  -3   2   6   88.32   13.18
  -3   2   6   89.60   71.16
   3  -2  -6  114.64   71.14
  -3   2   6  135.38   38.65
   3  -2  -6   63.96   37.05
  -3   2   7   42.34   26.34
   3  -2  -7   48.25   22.28
  -3   2   8  132.90   44.62
  -3   2   8  110.30   48.41
   3  -2  -8   97.58   48.16
  -3   2   9   -0.84    4.08
   3  -2  -9    0.29    2.02
  -3   2   9    6.24   19.34
  -3   2  10    2.92    4.26
   3  -2 -10    3.28    3.49
  -3   2  10    1.23   23.37
  -3   3   1  367.27  257.77
  -3   3   1  355.66  158.59
   3  -3  -1  342.61  126.21
   3  -3  -1  424.76  126.39
   3  -3  -1  366.89  158.53
   3  -3  -1  364.04  169.17
   3  -3  -2   32.77   21.73
  -3   3   2   34.40   12.65
  -3   3   2   26.67   13.68
  -3   3   2   33.55   14.26
   3  -3  -2   30.26   12.71
   3  -3  -2   35.47   12.88
   3  -3  -2   28.32   13.51
  -3   3   3 2095.44  458.54
  -3   3   3 1756.63 1256.44
  -3   3   3 1709.83  772.63
   3  -3  -3 2019.79  612.96
   3  -3  -3 1785.03  825.03
  -3   3   4  351.20   45.42
  -3   3   4  320.76  238.94
   3  -3  -4  342.18  238.92
  -3   3   4  362.64  117.61
   3  -3  -4  326.10  117.51
  -3   3   5  153.03   12.61
  -3   3   5  136.55   66.52
   3  -3  -5  158.42   66.49
  -3   3   5  133.57   34.92
   3  -3  -5  141.14   35.34
   3  -3  -6   74.80   38.65
  -3   3   6  152.69   50.60
  -3   3   6  172.59   61.20
  -3   3   6   79.47   64.85
   3  -3  -6  166.13   64.88
  -3   3   7 1311.66  132.63
  -3   3   7  325.32  161.05
   3  -3  -7  305.05  171.52
  -3   3   8  118.05   15.34
   3  -3  -8  112.85   80.92
  -3   3   8  113.41   44.92
  -3   3   9    7.58    6.87
   3  -3  -9    7.73    5.87
  -3   3   9    3.33   23.48
  -3   3  10    8.73   21.50
  -3   3  10    9.53    5.37
   3  -3 -10    3.94    4.02
  -3   4   1 4165.75  565.02
  -3   4   1 4260.23 1926.67
   3  -4  -1 4324.68 1430.10
   3  -4  -1 4383.63 1430.20
   3  -4  -1 4038.05 1926.66
  -3   4   2   51.82   33.55
   3  -4  -2   44.05   14.35
   3  -4  -2   48.23   33.48
  -3   4   2   43.70   18.14
  -3   4   2   45.85   20.84
   3  -4  -2   32.56   18.51
  -3   4   3    0.28    5.19
  -3   4   3    2.93    1.64
   3  -4  -3    6.69    6.02
  -3   4   3    1.62    3.17
   3  -4  -3    3.59    7.74
   3  -4  -3    3.18    2.49
  -3   4   4    5.80    6.75
  -3   4   4    4.43    5.14
  -3   4   4    5.80    4.48
   3  -4  -4   15.00   10.08
   3  -4  -4    6.16    3.75
  -3   4   5   24.02   13.28
  -3   4   5   19.75    9.44
  -3   4   5   14.18    9.41
   3  -4  -5    4.38   12.16
   3  -4  -5   23.32    9.28
  -3   4   6   15.39   10.83
  -3   4   6    3.00    5.52
   3  -4  -6    6.43    4.07
  -3   4   7  348.77   42.52
   3  -4  -7  292.42  222.86
  -3   4   7  334.73  111.92
  -3   4   8   -3.92    3.78
   3  -4  -8   -0.76    2.59
  -3   4   8   -6.90   21.94
  -3   4   9   21.94    4.61
   3  -4  -9   19.64   13.99
  -3   4   9   -5.80   28.09
  -3   5   1  278.41  127.64
  -3   5   1  290.45  136.13
   3  -5  -1  310.27  102.18
   3  -5  -1  298.68  102.36
   3  -5  -1  306.84  136.12
  -3   5   2  339.74   43.97
   3  -5  -2  327.96   86.19
   3  -5  -2  338.42   86.49
  -3   5   2  311.79  151.85
   3  -5  -2  327.83  151.85
  -3   5   3  332.38   85.23
  -3   5   3  316.64  140.08
  -3   5   3  305.41  149.37
   3  -5  -3  305.54  112.09
   3  -5  -3  340.83  149.36
   3  -5  -4  206.67   56.03
   3  -5  -4  307.80  146.83
  -3   5   4  357.15   74.10
  -3   5   4  268.04   96.43
   3  -5  -4  338.91   74.03
   3  -5  -5   41.31   28.33
  -3   5   5   42.53   19.40
  -3   5   5   35.89   18.07
   3  -5  -5   52.78   25.65
  -3   5   6  243.65   30.00
   3  -5  -6  207.83  157.70
  -3   5   6  305.23   80.85
   3  -5  -6  125.79   82.19
  -3   5   7    0.49   21.00
  -3   5   7   -2.14    5.61
   3  -5  -7   11.87   30.24
   3  -5  -7    1.81    3.53
  -3   5   8  -10.47   24.50
  -3   5   8    2.93    6.44
   3  -5  -8    0.19   37.12
   3  -5  -8    0.80    3.48
  -3   5   9   53.04   27.26
  -3   5   9   29.80    5.60
   3  -5  -9    3.76   32.74
   3  -5  -9   42.72   27.14
  -3   6   1   60.42    7.16
  -3   6   1   51.97   26.42
   3  -6  -1   70.10   22.30
   3  -6  -1   52.55   22.81
   3  -6  -1   59.79   26.14
   3  -6  -1   51.89   26.14
   3  -6  -2  284.35   47.21
   3  -6  -2  167.23  117.77
  -3   6   2  180.22   72.68
  -3   6   2  160.28   77.35
   3  -6  -2  388.70   61.63
   3  -6  -2  129.35   77.26
  -3   6   3  190.01  177.88
  -3   6   3  273.09  109.63
   3  -6  -3  269.49   88.28
   3  -6  -3  177.05   88.32
   3  -6  -3  284.94  116.78
  -3   6   4   52.48   23.59
  -3   6   4   50.67   22.80
   3  -6  -4   72.32   25.47
   3  -6  -4   48.52   23.88
  -3   6   5   71.75   30.39
  -3   6   5   62.03   30.45
   3  -6  -5   78.98   32.30
   3  -6  -5   72.99   32.13
  -3   6   6  515.51  116.81
  -3   6   6  285.95  142.15
   3  -6  -6  462.94  117.36
   3  -6  -6  327.08  151.48
  -3   6   7   49.36   22.11
   3  -6  -7   51.52   24.14
  -3   6   7   50.62   21.95
   3  -6  -7   45.25   22.58
  -3   6   8   -0.68   17.78
   3  -6  -8   11.09   23.84
  -3   6   8    3.23    6.41
   3  -6  -8    2.33    4.01
  -3   7   1  239.78   26.10
   3  -7  -1  152.22  137.50
  -3   7   1  154.56   90.30
   3  -7  -1  239.54   69.11
   3  -7  -1  236.25   90.33
  -3   7   2  263.19  116.51
   3  -7  -2  252.11   93.85
   3  -7  -2  273.90  124.11
  -3   7   3    9.41    2.17
   3  -7  -3   30.74   15.29
   3  -7  -3   10.20    6.15
  -3   7   4  271.29   37.36
   3  -7  -4  305.31   98.64
   3  -7  -4  279.85  128.81
  -3   7   5   25.40    4.26
   3  -7  -5   14.43   15.84
   3  -7  -5   32.27   20.34
  -3   7   6   47.31   19.34
  -3   7   6   45.13    6.50
   3  -7  -6   49.08   21.10
   3  -7  -6   46.62   32.99
  -3   7   7    2.89   15.13
  -3   7   7    9.97    3.33
   3  -7  -7    6.60   15.55
   3  -7  -7   15.13    9.23
  -3   8   1  632.96  269.58
   3  -8  -1  621.26  214.94
   3  -8  -1  610.86  287.55
   3  -8  -2   99.55   73.02
  -3   8   2  105.85   45.48
   3  -8  -2  113.67   38.96
  -3   8   3  622.30  273.37
   3  -8  -3  611.69  218.17
   3  -8  -3  637.78  291.58
  -3   8   4  170.95   69.03
   3  -8  -4  133.85   58.20
   3  -8  -4  149.27   73.25
  -3   8   5   37.63    5.77
   3  -8  -5   46.53   24.16
   3  -8  -5   41.16   19.20
   3  -8  -6   30.82   20.96
  -3   8   6   28.36   14.32
   3  -8  -6   30.87   14.55
   3  -9  -1  222.64   31.93
  -3   9   1  164.51   38.40
   3  -9  -1   -0.65   39.59
  -3   9   2    2.85    3.50
   3  -9  -2    6.09   13.58
   3  -9  -2   -0.97    4.11
  -3   9   3  103.39    8.26
   3  -9  -3    0.27   35.00
   3  -9  -3   75.26   24.03
  -3   9   4    0.38    3.83
   3  -9  -4    0.48    3.96
   3  -9  -4   -6.82   15.33
   3  -9  -5    1.43   16.48
  -3  10   1   -1.23    8.07
   3 -10  -1   -6.16   21.86
   3 -10  -1    5.29    5.53
   3 -10  -2   59.35   28.92
   3 -10  -3  105.62   45.79
  -2  -9   1    2.89   12.30
  -2  -9   1   -1.16    3.97
  -2  -9   2   34.57   14.11
  -2  -9   2    1.92    6.52
  -2  -9   3  457.17   38.96
  -2  -9   3    0.32   39.75
  -2  -9   4   66.62   13.01
  -2  -9   4   -0.86    6.32
  -2  -9   5    3.91   10.83
  -2  -9   6   13.51   20.72
  -2  -8   1    2.10    4.26
  -2  -8   1    7.22   12.17
  -2  -8   2    4.25    5.08
  -2  -8   2    8.24   12.14
  -2  -8   3   15.09   14.23
  -2  -8   3    7.47    5.71
  -2  -8   4   96.42   35.26
  -2  -8   4   87.67   41.70
  -2  -8   5  129.30   31.78
  -2  -8   5   -0.76   34.09
   2   8  -5  106.07   34.15
  -2  -8   6   18.65   12.46
  -2  -8   6    2.12    7.55
   2   8  -6    9.93    6.88
  -2  -8   7   38.63   27.63
  -2  -7   1    5.51   12.15
  -2  -7   1   17.70    8.30
  -2  -7   2  375.02  133.72
  -2  -7   2  387.03  178.28
  -2  -7   3 1373.73  356.69
  -2  -7   3 1304.15  640.68
   2   7  -3 1424.92  640.64
  -2  -7   4  870.35  106.55
  -2  -7   4  283.66  138.57
   2   7  -4  244.70  138.43
  -2  -7   5   64.88   28.30
  -2  -7   5   56.58   31.59
   2   7  -5   72.32   31.53
  -2  -7   6   12.52   15.85
  -2  -7   6   -2.78    4.68
   2   7  -6   -0.44    4.03
  -2  -7   7   15.47   23.81
  -2  -7   7    6.06    6.32
   2   7  -7    7.19    5.58
  -2  -7   8  204.58   78.98
  -2  -6   1   41.72   15.38
  -2  -6   1   32.50   18.76
  -2  -6   1   36.65   16.99
   2   6  -1   24.84   18.03
  -2  -6   2  294.79  164.50
   2   6  -2  304.49  164.39
  -2  -6   2  349.97   82.33
  -2  -6   2  274.65   83.15
  -2  -6   2  160.47  107.88
   2   6  -2  239.98   82.93
   2   6  -2  134.35  107.91
  -2  -6   3  186.04   60.07
  -2  -6   3  175.17   78.92
   2   6  -3  165.98   78.82
  -2  -6   4   63.94   16.07
  -2  -6   4   47.13   33.27
   2   6  -4   44.63   33.07
  -2  -6   5   16.61    9.25
  -2  -6   5   13.43    9.35
   2   6  -5    9.83    6.05
  -2  -6   6  395.29   84.28
  -2  -6   6  225.72  107.82
   2   6  -6  221.84  107.60
   2   6  -7   11.56    9.81
  -2  -6   7   36.09   23.18
  -2  -6   7   13.96    8.19
  -2  -6   8   29.60   25.99
  -2  -6   8    2.97    7.50
   2   6  -8   11.71    5.90
  -2  -6   9   15.06   24.11
  -2  -5   1   32.72   28.11
   2   5  -1   38.43   28.28
  -2  -5   1   53.60   16.36
  -2  -5   1   39.08   17.03
  -2  -5   1   40.56   18.66
   2   5  -1   39.54   17.28
   2   5  -1   45.51   18.48
  -2  -5   2   -0.24    6.81
  -2  -5   2    0.61    1.40
   2   5  -2   -2.14    4.28
   2   5  -2    0.18    2.50
  -2  -5   2   -0.13    3.03
   2   5  -2    0.79    1.76
  -2  -5   3  137.64   91.16
   2   5  -3  131.28   91.02
  -2  -5   3  129.74   45.80
  -2  -5   3  131.10   59.76
   2   5  -3  125.51   46.31
   2   5  -3  108.36   59.80
  -2  -5   4   91.84   19.70
   2   5  -4   46.27   20.21
  -2  -5   4   78.19   30.46
  -2  -5   4   65.05   30.29
   2   5  -4   48.37   30.35
   2   5  -4   65.70   30.26
   2   5  -5  763.62  470.84
  -2  -5   5  871.21  231.17
  -2  -5   5  775.49  309.26
  -2  -5   5  506.36  309.15
   2   5  -5  646.36  309.25
  -2  -5   6  112.73   35.00
  -2  -5   6   84.44   39.53
   2   5  -6   82.54   39.33
  -2  -5   7  192.53   39.22
   2   5  -7  126.57   92.25
  -2  -5   7  129.37   60.76
  -2  -5   8   61.55   17.79
  -2  -5   8    0.51   18.31
   2   5  -8   47.91   18.04
  -2  -5   9    9.75   23.84
  -2  -5   9    1.61   10.93
   2   5  -9   23.72    9.72
  -2  -5  10   26.82   17.98
  -2  -4   1  430.62  144.11
  -2  -4   1  447.13  144.33
  -2  -4   1  428.23  193.02
  -2  -4   1  408.17  192.99
   2   4  -1  432.83  144.20
   2   4  -1  407.90  193.02
   2   4  -1  418.34  192.99
  -2  -4   2  747.50  470.32
  -2  -4   2  613.75  470.19
   2   4  -2  683.94  470.32
   2   4  -2  676.49  470.20
  -2  -4   2  742.77  230.06
   2   4  -2  656.87  230.02
  -2  -4   3   17.10   14.09
   2   4  -3    7.77   13.69
  -2  -4   3    5.43    9.15
   2   4  -3    4.57    9.24
  -2  -4   4   39.85   14.95
  -2  -4   4   43.77   17.01
  -2  -4   4   35.40   16.77
   2   4  -4   27.25   14.93
   2   4  -4   18.96   16.96
   2   4  -4   40.67   16.76
  -2  -4   5   12.51    6.90
  -2  -4   5   12.56    7.59
  -2  -4   5    9.91    7.19
   2   4  -5   -0.13   10.16
   2   4  -5   10.09    6.64
   2   4  -5    9.45    4.83
  -2  -4   6  814.29  176.85
   2   4  -6  736.40  478.90
  -2  -4   6  615.43  314.46
   2   4  -6  628.30  294.79
  -2  -4   7  537.09  247.89
   2   4  -7  396.23  247.72
  -2  -4   8    2.98    5.54
  -2  -4   8   19.72   17.25
   2   4  -8    4.44    4.10
  -2  -4   9  352.73   82.28
  -2  -4   9   -0.16  103.73
   2   4  -9  288.79  103.89
  -2  -4  10   79.88   28.20
  -2  -3   1 1912.00  511.14
  -2  -3   1 2068.30 1402.64
   2   3  -1 2061.85 1402.65
   2   3  -1 1900.26  683.94
   2   3  -1 1949.12  921.00
  -2  -3   2  626.22  454.63
  -2  -3   2  676.31  454.53
   2   3  -2  631.27  454.53
  -2  -3   2  621.79  222.25
   2   3  -2  629.54  222.20
   2   3  -2  623.30  298.45
  -2  -3   3 2055.29  718.47
  -2  -3   3 2076.90  967.39
  -2  -3   3 2165.29  967.38
   2   3  -3 2015.64  718.46
   2   3  -3 1986.91  967.39
   2   3  -3 2068.93  967.38
   2   3  -4  239.86   72.02
  -2  -3   4  278.46  126.60
  -2  -3   4  263.59  126.54
   2   3  -4  271.70  126.58
   2   3  -4  284.35  126.55
  -2  -3   5  137.90   33.75
   2   3  -5  121.35   15.36
  -2  -3   5  146.22   53.28
  -2  -3   5   79.65   53.10
   2   3  -5  203.49   42.50
   2   3  -5  117.71   53.10
  -2  -3   6   27.94    8.42
   2   3  -6   14.05    9.08
   2   3  -6    9.98    2.26
  -2  -3   6   14.46    8.37
  -2  -3   6   14.39    7.74
   2   3  -6   19.79    7.63
  -2  -3   7   27.75   11.08
  -2  -3   7   14.78    8.98
   2   3  -7   17.08    8.17
  -2  -3   8   84.15   62.46
  -2  -3   8   89.73   36.09
   2   3  -8   89.27   40.99
  -2  -3   9    0.73   72.77
  -2  -3   9  156.75   43.62
   2   3  -9  134.50   47.85
  -2  -3  10   -3.46   20.28
  -2  -2   1  855.59  616.01
  -2  -2   1  857.96  615.91
   2   2  -1  883.21  615.91
  -2  -2   1  860.40  300.60
   2   2  -1  857.30  300.60
   2   2  -1  914.33  404.42
  -2  -2   2 1599.46 1208.33
   2   2  -2 1687.79 1208.33
   2   2  -2 1771.12 1208.25
  -2  -2   2 1667.32  589.23
   2   2  -2 1710.03  589.24
  -2  -2   3 1668.00 1193.24
  -2  -2   3 1660.59 1193.15
   2   2  -3 1699.53 1193.23
   2   2  -3 1715.27 1193.15
  -2  -2   3 1748.12  582.02
   2   2  -3 1763.10  582.01
  -2  -2   4 1750.95  623.13
  -2  -2   4 1732.11  838.82
  -2  -2   4 1795.22  838.81
   2   2  -4 1922.58  623.16
   2   2  -4 1890.34  838.82
   2   2  -4 1816.08  838.81
  -2  -2   5  410.86  285.98
   2   2  -5  375.44  105.92
  -2  -2   5  442.85  140.43
  -2  -2   5  403.19  187.68
   2   2  -5  403.31  175.97
  -2  -2   6  363.33  249.31
   2   2  -6  389.01  249.19
  -2  -2   6  368.65  122.82
  -2  -2   6  341.54  163.62
   2   2  -6  233.87  122.54
   2   2  -6  322.92  153.41
  -2  -2   7    4.84    3.98
  -2  -2   7    1.50    3.50
   2   2  -7    3.38    2.02
   2   2  -7    4.30    3.19
  -2  -2   7   13.80   12.14
  -2  -2   8   46.62   25.55
  -2  -2   8   45.74   21.84
   2   2  -8   45.43   21.41
  -2  -2   9   95.08   36.17
  -2  -2   9   88.97   40.92
   2   2  -9   85.50   40.52
  -2  -2  10   -7.80   17.27
  -2  -2  10    3.89    7.08
   2   2 -10    8.18    4.64
  -2  -1   1 3219.80 1739.27
  -2  -1   1 1908.08 1739.16
  -2  -1   1 3255.90  847.77
   2   1  -1 3340.64  847.77
   2   1  -1 2573.26 1142.06
  -2  -1   2  138.51   30.81
  -2  -1   2   16.40   30.50
   2   1  -2   17.91   30.51
   2   1  -2   18.55   30.51
   2   1  -3  228.28   57.69
   2   1  -3  217.35  153.57
  -2  -1   3  211.89   75.55
  -2  -1   3  212.78  100.81
  -2  -1   3  211.64  100.79
   2   1  -3  234.16  100.80
  -2  -1   4  482.41  373.19
  -2  -1   4  505.56  373.13
   2   1  -4  545.30  373.11
  -2  -1   4  573.57  182.64
   2   1  -4  654.93  182.78
   2   1  -4  537.23  229.57
  -2  -1   5  931.15  294.70
  -2  -1   5  816.95  395.81
  -2  -1   5  858.92  395.80
   2   1  -5  819.91  294.64
   2   1  -5  893.99  370.79
   2   1  -5  838.09  395.79
  -2  -1   6   18.63   12.73
   2   1  -6   10.89    2.29
  -2  -1   6   23.80   12.22
  -2  -1   6   17.57    8.39
   2   1  -6   31.86   13.73
   2   1  -6   18.70    8.23
  -2  -1   7   34.87   35.57
  -2  -1   7   63.63   21.63
  -2  -1   7   57.67   23.57
   2   1  -7   39.68   22.27
   2   1  -7   63.49   23.40
  -2  -1   8  158.85  111.01
  -2  -1   8  175.42   56.94
   2   1  -8  154.07   72.79
   2   1  -9   20.65   12.84
  -2  -1   9   12.68   16.76
  -2  -1   9   10.79    9.82
  -2  -1  10   -0.58   78.84
  -2  -1  10  170.28   46.52
   2   1 -10  146.26   51.96
  -2   0   1  159.66  151.72
  -2   0   1  227.46  151.64
   2   0  -1  222.12  151.64
  -2   0   1  224.56   74.26
   2   0  -1  217.22   99.51
  -2   0   2  360.76  294.25
  -2   0   2  417.62  294.18
   2   0  -2  416.25  294.24
   2   0  -2  436.45  294.18
  -2   0   2  454.59  143.86
   2   0  -2  426.57  143.85
  -2   0   3  180.62   49.44
  -2   0   3  182.28   86.20
  -2   0   3  191.15   86.19
   2   0  -3  189.22   64.83
   2   0  -3  195.44   80.91
   2   0  -3  178.40   86.19
  -2   0   4  259.71  217.93
  -2   0   4  240.64  217.87
   2   0  -4  209.46  217.85
  -2   0   4  962.05  108.01
   2   0  -4 1160.21  108.42
   2   0  -4  311.19  134.08
  -2   0   5  123.04   82.33
  -2   0   5  112.01   82.27
   2   0  -5  111.11   15.24
   2   0  -5  122.66   82.24
  -2   0   5  109.64   41.61
   2   0  -5  101.51   41.88
  -2   0   6  524.97  170.94
  -2   0   6  506.97  228.78
  -2   0   6  441.55  228.75
   2   0  -6  457.16  171.15
   2   0  -6  497.20  214.39
   2   0  -6  523.57  228.75
  -2   0   7  194.13  120.24
  -2   0   7  194.35   60.54
  -2   0   7  134.79   78.87
   2   0  -7  145.23   74.04
   2   0  -7  205.54   78.86
  -2   0   8  759.76  515.95
   2   0  -8  667.76  515.80
  -2   0   8 1161.83  253.65
  -2   0   9    7.46    6.69
  -2   0   9   15.18   20.55
   2   0  -9    6.14    5.02
  -2   0  10  124.59   35.52
  -2   0  10   -1.87   72.01
   2   0 -10  140.29   47.50
  -2   1   1 2199.52 1244.91
   2  -1  -1 1012.99 1244.84
  -2   1   1 2011.75  606.90
  -2   1   1 2094.33  817.43
   2  -1  -1 2077.36  606.90
   2  -1  -1 2115.26  765.48
  -2   1   2  577.52  395.81
   2  -1  -2  575.38   75.56
   2  -1  -2  512.64  395.79
  -2   1   2  591.52  193.38
  -2   1   2  598.31  243.49
   2  -1  -2  573.10  193.37
  -2   1   3    3.09    1.48
   2  -1  -3    3.81    4.13
   2  -1  -3    0.98    2.15
  -2   1   3    8.51    5.90
  -2   1   3    2.69    2.03
   2  -1  -3    2.10    2.71
  -2   1   4  417.81  144.11
  -2   1   4  397.46  180.97
  -2   1   4  411.56  193.05
   2  -1  -4  424.17  144.16
   2  -1  -4  411.03  180.92
   2  -1  -4  436.69  193.05
  -2   1   5   58.19   19.94
  -2   1   5   48.95   22.39
  -2   1   5   49.98   23.47
   2  -1  -5   44.60   20.19
   2  -1  -5   49.53   22.20
   2  -1  -5   52.00   23.44
  -2   1   6  262.76  186.30
  -2   1   6  259.91   92.19
  -2   1   6  281.34  114.86
   2  -1  -6  207.14   92.39
   2  -1  -6  253.69  114.64
   2  -1  -6  274.37  122.28
  -2   1   7  926.37  300.15
   2  -1  -7  862.12  402.36
  -2   1   8  180.05  130.73
   2  -1  -8  184.03  130.60
  -2   1   8  218.61   68.59
  -2   1   9    6.10    6.37
   2  -1  -9    7.33    5.26
  -2   1   9    1.64   26.75
  -2   1  10  -14.31   25.63
  -2   1  10    1.56    5.90
   2  -1 -10    6.31    4.94
  -2   2   1 2515.01 1624.24
  -2   2   1 2495.07  791.85
  -2   2   1 2488.94  998.71
   2  -2  -1 2429.61  791.78
   2  -2  -1 2372.04  791.82
   2  -2  -1 2564.61  998.70
   2  -2  -1 1682.82 1066.54
  -2   2   2 2057.83  282.32
   2  -2  -2 2082.56 1467.99
  -2   2   2 1956.93  715.76
  -2   2   2 2169.47  963.95
   2  -2  -2 2105.60  715.77
   2  -2  -2 2041.14  902.64
  -2   2   3   28.85    9.93
  -2   2   3   30.54   21.04
   2  -2  -3   33.15   10.08
   2  -2  -3   28.53    3.58
  -2   2   3   31.09   13.31
   2  -2  -3   28.25   13.83
   2  -2  -4  277.73   65.51
  -2   2   4  269.86   86.38
  -2   2   4  244.94  107.40
  -2   2   4  234.87  114.47
   2  -2  -4  244.96  107.31
   2  -2  -4  254.48  114.47
  -2   2   5    1.80   12.28
  -2   2   5    0.10    3.80
  -2   2   5    1.52    2.27
   2  -2  -5   -2.41    9.11
   2  -2  -5    0.72    2.13
   2  -2  -5    4.68    2.49
   2  -2  -6  123.94   78.81
  -2   2   6  137.00   42.17
  -2   2   6  115.48   48.85
  -2   2   6   95.47   51.76
   2  -2  -6   56.69   40.56
  -2   2   7   15.50   14.26
  -2   2   7   19.63    9.35
   2  -2  -7   14.85    8.14
  -2   2   8  140.85   55.43
  -2   2   8  145.81   65.35
   2  -2  -8  151.05   69.06
  -2   2   9   16.81   14.89
  -2   2   9   14.33   12.12
   2  -2  -9   16.49   11.53
  -2   2  10   -0.98   14.64
   2  -2 -10   30.06   14.72
  -2   2  10   34.26   27.23
   2  -3  -1 1831.28  448.86
   2  -3  -1 1699.30  449.06
  -2   3   1 1628.67  600.51
  -2   3   1 1734.17  757.13
  -2   3   1 1815.64  808.52
   2  -3  -1 1714.72  808.52
  -2   3   2   25.99   16.32
  -2   3   2   24.31   10.52
  -2   3   2   20.59   10.34
   2  -3  -2   17.10   10.50
   2  -3  -2   28.77   10.69
   2  -3  -2   22.12   10.67
  -2   3   3   47.65    9.65
  -2   3   3   17.94   11.70
  -2   3   3   22.55   12.23
   2  -3  -3   68.57   12.15
   2  -3  -3   25.84   12.08
  -2   3   4   29.58    3.77
   2  -3  -4   31.56   10.78
   2  -3  -4   32.52   21.19
  -2   3   4   35.87   12.36
  -2   3   4   24.81   14.11
  -2   3   5  197.38   68.85
  -2   3   5  204.81   84.97
  -2   3   5  192.26   90.49
   2  -3  -5  173.73   68.83
   2  -3  -5  191.82   90.44
   2  -3  -6    0.78    2.58
  -2   3   6   -6.63   10.94
  -2   3   6    4.53    4.26
  -2   3   7   41.00    5.88
   2  -3  -7   36.84   30.11
  -2   3   7  105.83   23.53
  -2   3   8   -7.80   20.54
  -2   3   8    0.69    6.09
   2  -3  -8    0.14    2.99
  -2   3   9   19.31   11.33
   2  -3  -9   18.44    9.29
  -2   4   1  194.50  239.32
  -2   4   1  249.60  147.19
   2  -4  -1  213.55  117.39
   2  -4  -1  408.05  157.09
  -2   4   2    3.17    4.37
  -2   4   2    1.50    2.62
   2  -4  -2    0.03    3.96
  -2   4   2    3.54    2.69
   2  -4  -2    1.60    6.81
   2  -4  -2    2.09    2.13
   2  -4  -3   39.83   14.08
  -2   4   3   50.23   17.99
  -2   4   3   46.21   19.69
  -2   4   3   46.99   20.70
   2  -4  -3   41.00   18.36
   2  -4  -3   40.92   20.62
  -2   4   4  617.42  452.38
   2  -4  -4  565.19  166.40
  -2   4   4  748.70  221.84
  -2   4   4  685.95  278.32
   2  -4  -4  618.31  296.99
  -2   4   5   40.99    5.00
  -2   4   5   23.68   26.16
   2  -4  -5   40.81   26.13
  -2   4   5   76.01   18.97
   2  -4  -5   17.74   16.61
  -2   4   6   50.11   20.25
  -2   4   6   56.07   25.90
   2  -4  -6   60.53   27.23
  -2   4   7  346.44   90.22
  -2   4   7  328.02   45.08
   2  -4  -7  338.77  236.21
  -2   4   8   18.65   16.53
  -2   4   8   15.14    9.44
   2  -4  -8   16.47    8.39
  -2   4   9    8.69   35.55
  -2   4   9    1.39    6.63
   2  -4  -9    6.64    3.91
   2  -5  -1   94.75   21.70
   2  -5  -1   79.34   21.91
  -2   5   1   76.17   32.51
  -2   5   1   76.03   34.57
   2  -5  -1   73.64   34.54
   2  -5  -1   69.91   34.51
  -2   5   2    2.03    2.07
   2  -5  -2    0.91    5.56
  -2   5   2    0.29    2.58
   2  -5  -2    4.64    6.91
   2  -5  -2    0.55    2.10
  -2   5   3  773.28  533.76
   2  -5  -3  715.59  533.71
  -2   5   3  873.22  261.38
   2  -5  -3  846.38  261.26
   2  -5  -3  771.42  261.29
  -2   5   4    9.02    7.97
  -2   5   4   14.44    2.32
   2  -5  -4   13.46    7.47
   2  -5  -4    6.42    7.86
   2  -5  -4    9.85    7.74
  -2   5   4    6.96    5.41
  -2   5   5  456.01   97.00
   2  -5  -5  422.84   97.21
  -2   5   5  348.39  157.84
   2  -5  -5  359.66  168.29
  -2   5   6   18.74   20.84
  -2   5   6   16.90   10.17
   2  -5  -6   14.31   26.98
   2  -5  -6   23.29   10.17
  -2   5   7  -12.65   14.01
  -2   5   7    0.59    2.98
   2  -5  -7   -0.48   19.60
   2  -5  -7    0.98    2.82
  -2   5   8   51.56    7.33
   2  -5  -8   55.64   37.05
  -2   5   8   47.93   33.94
   2  -5  -8    8.38   42.56
  -2   6   1   24.52    2.81
   2  -6  -1   22.45    9.49
   2  -6  -1   23.91   16.04
  -2   6   1   23.06   11.40
   2  -6  -1   18.07   13.18
   2  -6  -1   19.66   10.62
  -2   6   2  255.23   31.50
   2  -6  -2  262.95   63.44
   2  -6  -2  230.27  165.81
  -2   6   2  228.30  108.92
   2  -6  -2  366.64   83.87
   2  -6  -2  211.74  108.82
  -2   6   3  156.50   16.09
  -2   6   3   79.31   85.11
   2  -6  -3  159.16   85.12
   2  -6  -3   86.01   85.02
   2  -6  -3  157.18   43.74
  -2   6   4  329.79  115.56
  -2   6   4  329.19  143.29
   2  -6  -4  420.49  116.11
   2  -6  -4  318.41  152.73
  -2   6   5    4.23    2.08
   2  -6  -5    3.81    4.22
  -2   6   5   -3.28   16.69
   2  -6  -5   17.73   20.57
   2  -6  -6  125.43   24.24
  -2   6   6  136.12   29.98
  -2   6   6    0.64   22.88
   2  -6  -6   79.64   24.42
  -2   6   7    6.70    2.98
   2  -6  -7   11.09    7.27
  -2   6   7   16.78   25.07
   2  -6  -7   -8.32   29.00
  -2   6   8   40.67   27.98
  -2   6   8   73.02    9.39
   2  -6  -8   35.39   31.94
  -2   7   1  331.46   36.51
  -2   7   1  195.74  191.39
   2  -7  -1  301.15  191.35
   2  -7  -1  309.13   95.02
   2  -7  -1  231.09  125.60
   2  -7  -2  144.80   35.82
  -2   7   2  128.28   55.46
   2  -7  -2  123.14   58.90
  -2   7   3   21.98   10.73
   2  -7  -3   22.63   16.39
   2  -7  -3   20.78   10.54
  -2   7   4  648.33  301.00
   2  -7  -4 1153.41  241.30
   2  -7  -4  670.44  321.17
  -2   7   5    1.77    2.35
   2  -7  -5   -4.07   12.91
   2  -7  -5    0.73    2.88
  -2   7   6   26.48   15.17
   2  -7  -6   15.68   26.38
   2  -7  -6   39.19   15.68
   2  -7  -7   -3.57   14.85
  -2   7   7    6.28   23.05
  -2   7   7    1.05    4.95
   2  -7  -7    0.39    4.29
   2  -8  -1  155.44   42.13
   2  -8  -1  154.26  107.14
  -2   8   1  148.46   66.19
  -2   8   2  133.75   59.20
   2  -8  -2  124.64   49.31
   2  -8  -2  137.52   62.74
  -2   8   3    7.37    2.47
   2  -8  -3    0.88    8.76
   2  -8  -3    8.32    6.11
  -2   8   4   24.96    3.87
   2  -8  -4   24.99   18.73
   2  -8  -4   39.26   20.60
  -2   8   5    3.53    3.19
   2  -8  -5    3.01    4.43
   2  -8  -5    5.94   19.40
  -2   8   6   21.32   14.05
   2  -8  -6   33.82   31.94
   2  -8  -6   37.35   14.72
  -2   9   1    2.01    3.22
   2  -9  -1   -1.41   13.39
  -2   9   2    1.82    3.36
   2  -9  -2    0.10    3.18
   2  -9  -2    4.34   13.67
  -2   9   3   24.67   12.04
   2  -9  -3   17.78   16.85
   2  -9  -3   20.60   10.74
  -2   9   4    7.16    3.68
   2  -9  -4    2.08    4.75
   2  -9  -4    7.37   16.11
  -2  10   1    5.44    7.53
   2 -10  -1    9.25   13.51
   2 -10  -1    0.45    4.75
   2 -10  -2   -2.64    9.41
  -1 -10   2    1.04    6.48
  -1 -10   3   16.33   15.96
  -1  -9   1  217.90   25.50
  -1  -9   1    3.48   24.27
  -1  -9   2    0.60    7.75
  -1  -9   2    0.99    5.18
  -1  -9   3  338.66   25.64
  -1  -9   3    1.06   49.35
  -1  -9   4   56.47   16.89
  -1  -9   4    2.14    7.54
  -1  -9   5    5.31   12.04
  -1  -9   6   19.86   20.11
  -1  -8   1  248.41   79.39
  -1  -8   1  314.11  212.09
  -1  -8   2   27.20   19.12
  -1  -8   2   22.76   14.98
  -1  -8   3  167.17  122.35
  -1  -8   3  199.97   62.14
  -1  -8   4  247.04   74.94
  -1  -8   4  202.46   97.54
  -1  -8   5   51.28   16.53
  -1  -8   5    0.18    6.25
  -1  -8   6   -4.16   17.15
  -1  -8   6    3.11    6.90
   1   8  -6    6.23    4.38
  -1  -8   7   21.71   24.04
  -1  -7   1    0.92    6.76
  -1  -7   1    1.94    2.51
  -1  -7   2  429.67  138.12
  -1  -7   2  389.73  184.26
  -1  -7   3   68.60   23.65
  -1  -7   3   54.85   27.08
   1   7  -4   61.19   44.00
  -1  -7   4   65.66   25.65
  -1  -7   4   62.86   29.22
  -1  -7   5  162.62   28.33
   1   7  -5   85.26   65.29
  -1  -7   5   92.74   43.05
  -1  -7   6  147.88   85.98
  -1  -7   6  230.31   47.14
   1   7  -6  101.33   56.30
  -1  -7   7   45.19   24.21
  -1  -7   7    5.99    9.06
   1   7  -7   19.39    9.13
  -1  -7   8  359.47   98.15
  -1  -6   1   32.43   13.62
  -1  -6   1   25.20   13.14
  -1  -6   1   42.07   14.17
  -1  -6   1   26.73   13.93
   1   6  -1   29.69   15.47
   1   6  -1   21.99   14.12
  -1  -6   2  247.61  185.12
   1   6  -2  241.82  185.26
   1   6  -2  272.76  185.14
  -1  -6   2  281.06   91.44
  -1  -6   2  244.39   91.92
  -1  -6   2  304.14  121.62
   1   6  -2  188.36   91.46
  -1  -6   3  111.19   33.83
  -1  -6   3  107.73   42.17
  -1  -6   3   86.57   42.06
   1   6  -3   75.81   34.33
   1   6  -3   64.82   42.14
   1   6  -3   96.23   42.06
  -1  -6   4   92.96   23.60
  -1  -6   4   96.25   37.83
  -1  -6   4   77.60   37.69
   1   6  -4   54.76   37.73
   1   6  -4   86.87   37.67
  -1  -6   5  895.17  274.34
  -1  -6   5  819.02  367.68
   1   6  -5  774.49  367.60
   1   6  -6  864.16  663.52
  -1  -6   6 1381.49  325.73
  -1  -6   6 1054.97  435.85
  -1  -6   7  534.18  126.68
  -1  -6   7  388.32  165.19
   1   6  -7  332.54  164.94
  -1  -6   8   17.40   23.24
  -1  -6   8    0.00    6.94
   1   6  -8    5.87    5.36
  -1  -6   9  243.88   89.53
  -1  -5   1  624.22  442.03
   1   5  -1  626.09  162.74
  -1  -5   1  669.56  216.31
  -1  -5   1  673.46  216.54
  -1  -5   1  599.70  290.17
   1   5  -1  592.01  290.20
   1   5  -1  664.72  290.18
  -1  -5   2  191.33   51.25
  -1  -5   2  196.45  135.68
   1   5  -2  195.94  135.71
   1   5  -2  196.00  135.58
  -1  -5   2  188.34   88.99
   1   5  -2  165.23   67.31
  -1  -5   3  326.25  210.56
   1   5  -3  288.03  210.56
  -1  -5   3  282.98  103.62
  -1  -5   3  303.73  138.28
   1   5  -3  256.05  103.86
   1   5  -3  262.39  138.26
  -1  -5   4 1735.94  578.52
  -1  -5   4 1786.87  778.39
  -1  -5   4 1596.27  778.34
   1   5  -4 1242.51  578.38
   1   5  -4 1837.77  778.40
   1   5  -4 1697.75  778.34
  -1  -5   5   20.98   19.02
  -1  -5   5   12.92   15.11
  -1  -5   5   27.35   12.98
   1   5  -5   10.72   12.78
   1   5  -5   32.16   13.40
   1   5  -5   31.47   12.60
  -1  -5   6    8.66   10.96
  -1  -5   6    2.75    4.71
  -1  -5   6    5.95    4.66
   1   5  -6    4.69    4.79
   1   5  -6    8.28    3.61
  -1  -5   7    9.62   20.24
  -1  -5   7    2.81    4.07
   1   5  -7    2.59    2.80
  -1  -5   8    5.56   11.95
  -1  -5   8    0.41    5.07
   1   5  -8    3.17    3.15
  -1  -5   9   16.86   23.72
  -1  -4   1  276.03  178.82
   1   4  -1  249.14  178.72
  -1  -4   1  266.34   87.99
  -1  -4   1  250.05  117.31
   1   4  -1  230.77   87.92
   1   4  -1  250.46  117.34
  -1  -4   2  449.39  157.17
  -1  -4   2  470.07  210.61
  -1  -4   2  442.26  210.58
   1   4  -2  457.54  157.20
   1   4  -2  460.72  210.61
   1   4  -2  460.00  210.58
  -1  -4   3   11.58    9.08
  -1  -4   3   49.04    8.92
  -1  -4   3   16.54    6.40
   1   4  -3   17.54    8.29
   1   4  -3    6.59    6.20
   1   4  -3    9.77    5.95
   1   4  -4  515.08  142.66
   1   4  -4  567.36  387.08
  -1  -4   4  523.37  189.58
  -1  -4   4  540.34  254.17
  -1  -4   4  544.98  254.15
   1   4  -4  535.77  254.17
  -1  -4   5   -2.72    2.80
   1   4  -5    0.16    5.30
  -1  -4   5   -5.67    8.29
  -1  -4   5    0.77    1.87
   1   4  -5   -1.86    4.59
   1   4  -5    0.18    1.61
  -1  -4   6    7.59    9.02
   1   4  -6   16.41    9.09
  -1  -4   6   21.38   10.90
  -1  -4   6   16.61    7.83
   1   4  -6    6.28    6.33
  -1  -4   7 1277.83  345.88
  -1  -4   7 1020.73  463.48
   1   4  -7  973.08  463.38
  -1  -4   8    1.96   17.86
  -1  -4   8   -2.60    6.96
   1   4  -8    1.64    3.52
  -1  -4   9   -1.46    7.91
  -1  -4   9   17.01   20.84
   1   4  -9   11.06    5.81
  -1  -4  10    1.31   23.23
  -1  -3   1  470.16  219.71
  -1  -3   1  474.09  219.70
   1   3  -1  489.11  163.74
   1   3  -1  464.09  219.71
   1   3  -1  479.05  219.70
  -1  -3   2 1220.84  853.99
   1   3  -2 1222.57  311.95
   1   3  -2 1255.99  854.08
  -1  -3   2 1269.59  416.79
  -1  -3   2 1181.11  560.76
   1   3  -2 1188.32  560.76
  -1  -3   3   54.52   40.51
   1   3  -3   56.23   40.49
   1   3  -3   56.69   40.39
  -1  -3   3   63.15   21.08
  -1  -3   3   58.47   26.48
   1   3  -3   54.58   21.25
  -1  -3   4  412.46  321.71
  -1  -3   4  485.46  157.81
  -1  -3   4  487.23  211.23
   1   3  -4  468.76  157.74
   1   3  -4  446.97  211.21
   1   3  -4  480.59  211.20
  -1  -3   5  292.64  232.59
   1   3  -5  285.35   44.10
   1   3  -5  327.37  232.56
  -1  -3   5  672.69  115.32
  -1  -3   5  316.12  152.72
   1   3  -5  544.86  115.32
  -1  -3   6   61.25   16.05
  -1  -3   6   50.06   23.07
  -1  -3   6   50.78   23.00
   1   3  -6   36.21   20.85
   1   3  -6   38.16   21.77
   1   3  -6   55.03   22.93
  -1  -3   7    0.03    3.80
  -1  -3   7    0.60   13.91
  -1  -3   7   -1.47    2.32
   1   3  -7    1.11    3.71
   1   3  -7    0.21    2.81
  -1  -3   8   28.36   13.06
  -1  -3   8   18.30    9.61
   1   3  -8   14.84    8.37
  -1  -3   9   75.48   29.19
  -1  -3   9   -3.21   24.27
   1   3  -9   66.73   23.63
  -1  -3  10   39.17   23.26
  -1  -2   1  214.88  167.08
  -1  -2   1  247.33  166.99
   1   2  -1  201.87  167.09
   1   2  -1  243.82  166.99
  -1  -2   1  260.78   81.97
   1   2  -1  245.67   81.95
  -1  -2   2  165.06  117.30
  -1  -2   2  167.46  117.19
   1   2  -2  175.74   44.25
   1   2  -2  160.96  117.27
  -1  -2   2  166.03   57.81
  -1  -2   3  122.42   86.68
  -1  -2   3  125.56   43.16
  -1  -2   3  115.78   56.89
   1   2  -3  127.75   43.68
   1   2  -3  124.88   56.87
   1   2  -3  124.13   56.86
   1   2  -4  818.72  101.31
  -1  -2   4  747.21  347.72
  -1  -2   4  760.12  347.71
   1   2  -4  728.20  258.84
   1   2  -4  713.68  347.71
  -1  -2   5  142.60  104.69
  -1  -2   5  144.03  104.62
   1   2  -5  135.18   40.23
   1   2  -5  155.63   19.53
   1   2  -5  149.57  104.59
  -1  -2   5  152.92   52.39
  -1  -2   6    9.08    6.72
  -1  -2   6    5.78    6.15
   1   2  -6    8.76    1.71
  -1  -2   6    8.06    4.07
   1   2  -6    7.92    9.85
   1   2  -6    7.88    3.98
  -1  -2   7  229.92  228.59
  -1  -2   7  495.94  113.90
  -1  -2   7  438.11  150.23
   1   2  -7  235.12  140.70
   1   2  -7  392.65  150.09
  -1  -2   8   47.69   36.67
   1   2  -8   52.11   36.37
  -1  -2   8   56.48   26.92
  -1  -2   9   42.44   21.82
  -1  -2   9    1.96   19.00
   1   2  -9   52.89   18.82
  -1  -2  10   14.96   13.18
  -1  -1   1    0.32    0.95
   1   1  -1    1.06    1.63
   1   1  -1   -0.13    1.77
  -1  -1   1    1.87    4.63
  -1  -1   1    1.64    2.55
   1   1  -1    1.18    1.42
  -1  -1   2    8.24   14.77
   1   1  -2   16.68    7.52
   1   1  -2    7.73   14.65
  -1  -1   2    7.95    9.60
   1   1  -2    7.17    9.65
  -1  -1   3    5.91    3.79
  -1  -1   3    4.05    4.01
   1   1  -3    6.75    0.85
   1   1  -3    4.69    4.02
  -1  -1   3    6.64    3.26
   1   1  -3    9.24    7.04
   1   1  -4   39.82    9.80
  -1  -1   4   37.88   11.70
  -1  -1   4   36.40   12.76
  -1  -1   4   35.06   12.67
   1   1  -4    3.18   11.96
   1   1  -4   30.79   12.63
   1   1  -5   79.46   10.51
   1   1  -5   86.36   57.59
  -1  -1   5   92.38   30.11
  -1  -1   5   78.99   37.84
  -1  -1   5   75.91   37.80
   1   1  -5   89.02   29.59
  -1  -1   6  268.76  206.96
  -1  -1   6  912.81  104.07
  -1  -1   6  246.14  135.80
   1   1  -6  599.36  103.25
   1   1  -6  262.62  127.34
   1   1  -6  260.89  135.78
  -1  -1   7  948.05  566.34
   1   1  -7  687.38  108.76
  -1  -1   7  951.05  277.36
  -1  -1   7  580.24  371.77
   1   1  -7 1003.85  371.82
   1   1  -8  121.52   86.06
  -1  -1   8  111.24   45.33
  -1  -1   8  125.13   56.76
  -1  -1   9    8.36   12.42
  -1  -1   9   -4.61    5.65
   1   1  -9    4.75    4.05
  -1  -1  10   -3.85   26.72
  -1   0   1  293.66  209.78
  -1   0   1  292.14  209.73
   1   0  -1  309.29  209.78
  -1   0   1  290.36  102.55
   1   0  -1  315.48  102.56
  -1   0   2 2546.55  343.68
   1   0  -2 2572.80 1787.33
  -1   0   2 2749.62 1173.67
   1   0  -2 3159.85  871.28
   1   0  -2 2086.71 1098.98
  -1   0   3 1792.67  591.47
  -1   0   3 1666.50  745.78
  -1   0   3 1721.64  796.36
   1   0  -3 1922.01  591.51
   1   0  -3 1730.10  745.75
   1   0  -3 1707.77  796.36
  -1   0   4  504.37   74.30
  -1   0   4  562.38  389.72
   1   0  -4  556.11  389.70
  -1   0   4  582.58  190.70
   1   0  -4  573.10  190.75
   1   0  -4  564.52  239.72
  -1   0   5  841.09  300.80
  -1   0   5  870.39  378.68
  -1   0   5  924.22  404.19
   1   0  -5  897.89  300.97
   1   0  -5  862.67  378.58
   1   0  -5  847.15  404.17
  -1   0   6   78.32    7.83
   1   0  -6   39.19   18.89
  -1   0   6   69.77   23.65
  -1   0   6   55.83   28.02
   1   0  -6   50.79   26.36
   1   0  -6   67.77   28.00
  -1   0   7  172.29   65.13
  -1   0   7  200.92   85.16
  -1   0   7  136.95   85.16
   1   0  -7  204.38   85.09
  -1   0   8  251.90   44.58
  -1   0   8  101.00   52.05
   1   0  -8  101.39   51.96
  -1   0   9  -11.36   14.55
   1   0  -9   -0.64    2.56
  -1   0   9   -1.02    4.18
  -1   0  10   -0.49   27.23
  -1   1   1 1761.91  235.16
  -1   1   1 1868.91 1223.63
   1  -1  -1 1617.93  235.18
  -1   1   1 2615.68  596.62
   1  -1  -1 2441.95  596.61
   1  -1  -1 1473.66  803.47
  -1   1   2 2365.88  337.59
  -1   1   2 2508.44 1754.61
   1  -1  -2 2483.82  337.67
  -1   1   2 3250.79  855.41
   1  -1  -2 2365.74  855.29
  -1   1   3 1654.27  439.88
  -1   1   3   69.37  554.20
  -1   1   3 1676.35  591.89
   1  -1  -3 1654.82  439.91
   1  -1  -3 1491.47  554.28
   1  -1  -3 1632.57  591.89
   1  -1  -4    3.57    4.35
   1  -1  -4    3.88    2.69
  -1   1   4    5.63    7.15
  -1   1   4    2.62    2.56
  -1   1   4    2.01    2.21
   1  -1  -4    2.49    2.33
  -1   1   5 1172.33  827.80
   1  -1  -5 1022.63  302.88
  -1   1   5 1110.14  404.18
  -1   1   5 1206.04  509.12
   1  -1  -5 1178.38  543.54
   1  -1  -6  585.44  400.10
  -1   1   6  599.43  196.26
  -1   1   6  597.59  246.26
  -1   1   6  534.85  262.71
   1  -1  -6  402.08  196.16
  -1   1   7   17.92    3.00
   1  -1  -7   19.59   14.04
  -1   1   7   25.99   19.58
   1  -1  -8  315.09  236.99
  -1   1   8  383.69  119.53
  -1   1   8  368.99  146.32
   1  -1  -9    0.62    2.56
  -1   1   9  -15.21   30.00
  -1   1   9    2.28    3.97
  -1   1  10  -13.89   25.50
  -1   2   1  267.86  192.38
  -1   2   1  254.62   94.32
  -1   2   1  283.12  118.33
   1  -2  -1  267.61   94.28
   1  -2  -1  281.17   94.29
   1  -2  -1  264.19  126.24
  -1   2   2  712.52  444.93
   1  -2  -2  612.14  163.29
  -1   2   2  614.89  217.39
  -1   2   2  636.02  273.63
   1  -2  -2  566.18  292.08
  -1   2   3 1122.01  141.41
  -1   2   3 1030.09  737.00
   1  -2  -3  815.91  269.41
   1  -2  -3 1025.09  736.97
  -1   2   4    1.08    6.95
  -1   2   4   -0.67    3.15
  -1   2   4   -1.06    2.96
   1  -2  -4    5.76    7.90
   1  -2  -4    3.52    2.15
  -1   2   5  347.45  193.00
  -1   2   5  622.14   96.88
  -1   2   5    9.48  118.61
   1  -2  -5  310.05   95.55
   1  -2  -5  398.85  126.68
  -1   2   6  508.71  434.74
  -1   2   6  713.59  213.70
  -1   2   6  647.46  267.53
   1  -2  -6  316.62  212.85
   1  -2  -6  693.18  285.44
  -1   2   7   -7.18   14.51
  -1   2   7   -1.36    5.13
   1  -2  -7   -1.99    3.43
  -1   2   8   18.84   13.54
  -1   2   8   14.77    9.79
   1  -2  -8   17.90    8.45
  -1   2   9    9.84   15.20
  -1   2   9   -1.50    3.02
   1  -2  -9   10.85    6.05
  -1   3   1  134.13   19.68
  -1   3   1  130.77   47.83
   1  -3  -1  131.55   19.44
  -1   3   1    1.48   29.39
   1  -3  -1  137.90   24.81
   1  -3  -1  121.02   31.34
  -1   3   2   41.23   29.00
   1  -3  -2   40.95   28.96
  -1   3   2   42.83   16.14
   1  -3  -2   40.32   16.06
   1  -3  -2   36.66   16.09
  -1   3   3  995.28  465.62
  -1   3   3 1002.72  497.15
   1  -3  -3 3122.74  370.71
   1  -3  -3  883.51  497.13
  -1   3   4  123.28   16.17
   1  -3  -4  130.45   86.84
  -1   3   4  117.88   43.87
  -1   3   4  111.60   57.01
   1  -3  -4  130.67   43.96
  -1   3   5   61.27   47.63
   1  -3  -5   46.71   20.42
  -1   3   5   58.61   25.74
  -1   3   5   68.40   29.64
   1  -3  -5   74.15   31.26
  -1   3   6   22.86    3.26
   1  -3  -6   22.42   16.07
  -1   3   6   17.24   15.68
  -1   3   7  309.53  147.63
   1  -3  -7  259.28  157.27
  -1   3   8   11.35   15.12
  -1   3   8    6.97    3.17
   1  -3  -8    8.94    6.67
  -1   3   9    7.00   28.05
  -1   3   9    5.00    6.20
   1  -3  -9    2.58    4.40
   1  -4  -1  884.26  649.13
  -1   4   1  925.71  426.21
   1  -4  -1  866.76  316.98
   1  -4  -1  971.00  317.14
   1  -4  -1  940.94  426.20
   1  -4  -2   29.98   10.08
   1  -4  -2   29.19   19.87
  -1   4   2   28.50   12.23
  -1   4   2   25.37   13.11
   1  -4  -2   28.48   11.99
  -1   4   3  450.62  134.37
  -1   4   3  386.05  167.97
  -1   4   3  389.31  179.22
   1  -4  -3  451.40  134.35
   1  -4  -3  378.51  134.14
   1  -4  -3  370.23  179.20
  -1   4   4  547.18   66.57
   1  -4  -4  502.45  348.04
  -1   4   4  608.92  171.23
  -1   4   4  492.43  228.52
   1  -4  -4   10.98  170.23
   1  -4  -4  418.18  170.69
  -1   4   5  190.85   26.73
   1  -4  -5  180.99  141.06
  -1   4   5  437.53   72.50
  -1   4   6   25.30   20.89
  -1   4   6   29.69   14.08
   1  -4  -6   30.48   14.45
  -1   4   7   43.35    5.90
  -1   4   7   28.71   26.49
  -1   4   8    7.38   25.57
  -1   4   8   12.36    7.49
   1  -4  -8    8.41    6.09
  -1   5   1    8.10    5.03
   1  -5  -1    9.97    8.27
   1  -5  -1    4.80    8.65
   1  -5  -1    6.99    3.47
   1  -5  -1    3.42    3.41
   1  -5  -2   80.41   26.97
  -1   5   2  101.22   41.33
  -1   5   2   84.07   43.93
   1  -5  -2   99.48   34.28
   1  -5  -2  104.64   43.93
   1  -5  -2   86.46   43.87
  -1   5   3  242.75   82.05
  -1   5   3  272.84  101.69
  -1   5   3  212.66  108.38
   1  -5  -3  259.44   82.02
   1  -5  -3  218.59   82.09
   1  -5  -3  233.55  108.37
   1  -5  -3  210.01  108.34
  -1   5   4  553.15   69.66
   1  -5  -4  468.68  363.96
  -1   5   4  607.53  179.11
   1  -5  -4  529.56  178.87
  -1   5   5  215.88   49.99
  -1   5   5  183.58   77.25
   1  -5  -5  219.21   66.32
   1  -5  -5  163.22   82.15
  -1   5   6  508.16   69.23
   1  -5  -6  511.06  361.61
  -1   5   6  561.81  179.51
   1  -5  -6  514.63  180.08
  -1   5   7   34.61   31.26
  -1   5   7   46.23   21.96
   1  -5  -7   34.39   37.12
   1  -5  -7   52.38   22.87
  -1   5   8   29.86    4.97
   1  -5  -8   32.94   22.72
  -1   5   8   34.06   33.60
   1  -5  -8   27.02   43.65
  -1   6   1  688.48  326.02
   1  -6  -1  741.78  325.96
   1  -6  -1  746.63  325.87
   1  -6  -1  742.50  160.52
   1  -6  -1  661.58  160.73
  -1   6   2   87.04   34.57
  -1   6   2   71.47   36.92
   1  -6  -2  108.13   30.38
   1  -6  -2   99.93   32.04
   1  -6  -2   78.89   36.62
   1  -6  -2   68.50   36.59
  -1   6   3  360.68  156.71
   1  -6  -3  377.04  125.62
   1  -6  -3  358.59  167.14
  -1   6   4  135.50   16.17
   1  -6  -4  102.23   85.04
  -1   6   4  122.96   45.36
   1  -6  -4  150.74   46.20
  -1   6   5  601.48  208.62
  -1   6   5  612.94  260.64
   1  -6  -5  708.87  209.22
   1  -6  -5  577.14  278.01
  -1   6   6   18.28   23.22
  -1   6   6   33.64   14.99
   1  -6  -6   39.47   28.18
   1  -6  -6   30.88   15.37
  -1   6   7    5.55    2.16
   1  -6  -7    6.57    5.31
  -1   6   7   -9.07   22.96
   1  -6  -7    3.15   29.61
  -1   7   1  152.77   82.69
   1  -7  -1  285.60   67.84
   1  -7  -1  246.39   88.19
   1  -7  -2   56.34   40.06
   1  -7  -2   56.99   23.42
  -1   7   3   -0.42    2.86
   1  -7  -3   -0.15    9.44
   1  -7  -3    0.94    3.03
  -1   7   4  122.89   18.88
   1  -7  -4  126.52   97.86
   1  -7  -4  339.52   53.82
  -1   7   5   84.17   11.39
   1  -7  -5   85.79   60.66
   1  -7  -5   93.28   38.02
  -1   7   6   10.26    3.22
   1  -7  -6    3.77   15.96
   1  -7  -6   12.04    8.65
  -1   8   1  100.99   43.49
   1  -8  -1  101.47   37.39
   1  -8  -1   95.41   46.04
  -1   8   2   93.16   39.93
   1  -8  -2   60.80   34.69
   1  -8  -2   91.54   42.23
  -1   8   3   14.31    3.54
   1  -8  -3   11.89    9.69
   1  -8  -3    7.40   14.74
   1  -8  -4   87.30   32.05
   1  -8  -4  106.88   74.14
   1  -8  -5   75.74   28.85
  -1   8   5   74.09   33.22
   1  -8  -5   74.16   34.74
  -1   9   1   10.35    3.26
   1  -9  -1   11.19   14.22
   1  -9  -1  134.62   28.17
  -1   9   2   31.57    5.17
   1  -9  -2   37.31   25.08
   1  -9  -2   40.21   19.44
  -1   9   3    1.03    3.80
   1  -9  -3    1.20    3.23
   1  -9  -3    0.71   15.53
  -1   9   4    8.67    6.77
   1  -9  -4   17.88   16.98
   1  -9  -4    0.43    4.53
   1 -10  -1    0.88   13.91
  -1  10   1   34.60   10.97
   1 -10  -1   43.60   13.39
   1 -10  -2    8.99   15.72
   0 -10   1   59.14    9.79
   0 -10   1    2.83    8.09
   0 -10   2  171.82   61.26
   0 -10   3   28.91   17.51
   0 -10   4   25.44   17.70
   0  -9   1   -0.56   23.84
   0  -9   1  157.32   19.62
   0  -9   2   99.08   16.32
   0  -9   2   -0.44   10.61
   0  -9   3   16.50    9.02
   0  -9   3   -2.15    4.74
   0  -9   4   -3.55   14.20
   0  -9   4   -0.73    5.80
   0  -9   5   17.48   17.88
   0  -9   6   -6.91   18.16
   0  -8   1  156.69   60.90
   0  -8   1  174.96   79.47
   0  -8   2    6.09    7.30
   0  -8   2    6.06    5.63
   0  -8   3  227.19   77.96
   0  -8   3  219.05  102.40
   0  -8   4   21.18    9.99
   0  -8   4   12.46    7.35
   0  -8   5  104.40   25.70
   0  -8   5   45.20   25.40
   0  -8   6   67.89   23.21
   0  -8   7  137.67   54.58
   0  -7   1  238.35   71.38
   0  -7   1  188.41   92.00
   0  -7   2    2.96    2.49
   0  -7   2    0.71    2.00
   0   7  -2    0.45    3.33
   0  -7   2    6.68    9.88
   0  -7   3   25.91   11.46
   0  -7   3   24.03   12.14
   0  -7   3   11.26    7.56
   0   7  -3   11.12    7.99
   0  -7   4 1192.25  330.18
   0  -7   4  905.11  442.93
   0  -7   5    1.22   13.09
   0  -7   5    1.57    4.56
   0   7  -5    0.38    3.81
   0  -7   6  194.84   42.54
   0  -7   6   98.96   49.01
   0   7  -6  100.72   48.97
   0  -7   7   -8.52   14.41
   0  -7   8  128.03   55.84
   0  -6   1  330.64  142.54
   0  -6   1  290.59  142.49
   0   6  -1  328.09  107.29
   0   6  -1  319.84  142.57
   0  -6   2   23.99   17.15
   0   6  -2   21.70   17.27
   0  -6   2   31.30   11.51
   0  -6   2   24.47   11.21
   0   6  -2   15.30   11.63
   0  -6   3   16.91    8.87
   0   6  -3   15.71    8.50
   0   6  -3   12.56    8.16
   0  -6   3   13.34    6.45
   0  -6   3    9.16    5.53
   0   6  -3    8.22    5.91
   0   6  -4  381.47  253.88
   0  -6   4  411.97  125.11
   0  -6   4  400.84  166.72
   0  -6   4  326.81  166.67
   0   6  -4  326.44  166.73
   0  -6   5  164.04   40.81
   0  -6   5  133.91   50.59
   0  -6   5   90.54   50.47
   0   6  -5  100.71   47.94
   0   6  -5  111.01   50.45
   0  -6   6   29.95   39.53
   0   6  -6   39.91   39.29
   0  -6   7  483.47   82.27
   0  -6   7  231.97  102.44
   0   6  -7  197.66  102.18
   0  -6   8   18.04   15.00
   0  -6   9   20.77   26.62
   0  -5   1  145.86   98.88
   0  -5   1  150.31   49.43
   0  -5   1  153.20   49.73
   0  -5   1  138.75   64.82
   0   5  -1  134.90   49.42
   0   5  -1  131.23   64.86
   0  -5   2 2040.82 1364.55
   0   5  -2 1949.87  497.62
   0  -5   2 1769.11  665.58
   0  -5   2 1890.28  896.06
   0   5  -2 1887.34  896.07
   0   5  -2 1880.25  896.05
   0   5  -3  235.58   66.35
   0  -5   3  238.22   87.00
   0  -5   3  259.12  115.79
   0  -5   3  260.06  115.76
   0   5  -3  232.85  115.78
   0   5  -3  245.04  115.76
   0   5  -4   82.41   35.23
   0  -5   4  116.06   45.76
   0  -5   4  141.98   59.69
   0  -5   4  116.57   59.57
   0   5  -4  150.12   59.72
   0   5  -4  130.96   59.59
   0  -5   5    0.85    2.82
   0  -5   5    3.06   11.65
   0  -5   5    0.44    2.06
   0   5  -5    2.51    8.15
   0   5  -5    1.29    3.13
   0   5  -5    2.77    2.03
   0  -5   6  121.62   29.44
   0  -5   6   77.63   29.92
   0  -5   6   53.25   29.75
   0   5  -6   44.06   28.10
   0   5  -6   71.89   29.72
   0  -5   7   20.09   21.17
   0  -5   7    6.25    5.95
   0   5  -7    7.28    4.34
   0  -5   8   40.15   14.68
   0  -5   8   19.32   10.45
   0   5  -8   15.23    8.58
   0  -5   9    7.44   15.13
   0  -4   1   89.82   65.59
   0  -4   1  109.60   33.18
   0  -4   1   98.02   43.07
   0   4  -1   96.30   33.01
   0   4  -1   95.79   43.06
   0   4  -1   90.13   43.03
   0  -4   2  315.71  220.36
   0  -4   2  301.16  108.30
   0  -4   2  313.89  144.66
   0   4  -2  307.42  108.30
   0   4  -2  300.19  144.66
   0   4  -2  315.08  144.65
   0  -4   3    6.72    6.31
   0  -4   3    6.91    2.86
   0  -4   3    4.11    2.31
   0   4  -3    6.31    6.40
   0   4  -3    3.73    2.74
   0   4  -3    3.65    2.29
   0  -4   4   22.91    8.14
   0  -4   4   17.85   11.04
   0  -4   4   15.43    7.16
   0   4  -4    7.96    9.47
   0   4  -4   14.09    7.10
   0  -4   5  981.09  244.90
   0   4  -5  614.56  244.34
   0  -4   5 1040.11  438.30
   0  -4   5  941.66  438.27
   0   4  -5  837.14  410.52
   0   4  -5 1012.91  438.26
   0  -4   6   60.80   23.88
   0  -4   6   77.88   28.20
   0  -4   6   45.01   27.77
   0   4  -6   48.00   26.39
   0   4  -6   68.86   27.84
   0  -4   7  451.14  111.41
   0  -4   7  333.28  146.20
   0   4  -7  299.09  146.04
   0  -4   8   -8.20   19.85
   0  -4   8   -1.04    7.11
   0   4  -8    0.79    3.51
   0  -4   9   44.10   30.30
   0   3  -1  472.69  337.86
   0  -3   1  632.49  165.39
   0  -3   1  469.45  221.80
   0  -3   1  449.20  221.80
   0   3  -1  637.18  165.40
   0   3  -1  494.56  221.80
   0  -3   2   67.96   45.83
   0  -3   2   67.56   24.17
   0  -3   2   66.52   29.97
   0   3  -2   61.48   23.33
   0   3  -2   62.17   29.98
   0   3  -2   62.69   29.97
   0  -3   3  649.36  224.46
   0  -3   3  652.60  301.41
   0  -3   3  663.79  301.41
   0   3  -3  701.70  224.51
   0   3  -3  636.80  301.41
   0   3  -3  639.53  301.41
   0  -3   4  109.79   36.30
   0  -3   4   98.46   46.70
   0  -3   4  103.38   46.67
   0   3  -4   95.25   36.23
   0   3  -4  102.35   43.92
   0   3  -4   98.45   46.65
   0  -3   5  336.51   70.80
   0   3  -5  275.02   35.45
   0  -3   5  262.89  123.11
   0  -3   5  245.74  123.09
   0   3  -5  293.97   93.18
   0   3  -6   39.94    6.05
   0   3  -6   62.71   33.97
   0  -3   6   48.79   20.16
   0  -3   6   59.80   22.60
   0  -3   6   32.39   22.28
   0   3  -6   17.30   20.61
   0  -3   7   40.27   13.49
   0   3  -7   13.56    3.06
   0  -3   7   36.20   11.65
   0  -3   7   11.47   10.74
   0   3  -7   31.40   10.91
   0   3  -8    6.35    5.00
   0  -3   8   -8.15   19.83
   0  -3   8    7.77    6.58
   0  -3   9   41.14   23.07
   0  -3   9    1.21    7.78
   0   3  -9    6.69    5.50
   0  -3  10   -2.23   18.66
   0   2  -1   73.53   19.58
   0   2  -1   64.93   49.38
   0  -2   1   79.26   24.83
   0  -2   1   70.96   32.37
   0  -2   1   72.83   32.36
   0   2  -1   69.64   32.37
   0  -2   2  335.74  123.30
   0  -2   2  355.85  165.27
   0  -2   2  358.83  165.28
   0   2  -2  334.10  123.27
   0   2  -2  347.63  165.27
   0   2  -2  364.23  165.29
   0  -2   3   24.62    9.96
   0  -2   3   20.62    9.28
   0  -2   3   17.56    9.19
   0   2  -3   24.18   11.45
   0   2  -3   20.92    8.87
   0   2  -3   19.64    9.19
   0  -2   4 1249.66  427.58
   0  -2   4 1277.11  575.15
   0  -2   4 1245.21  575.15
   0   2  -4 1172.52  427.52
   0   2  -4 1232.26  575.15
   0   2  -5  574.13  386.03
   0  -2   5  569.49  189.24
   0  -2   5  567.80  253.47
   0  -2   5  508.42  253.45
   0   2  -5  493.33  189.09
   0   2  -5  543.15  237.48
   0  -2   6  112.65   36.02
   0  -2   6   96.19   44.68
   0  -2   6   81.86   44.62
   0   2  -6   46.05   34.97
   0   2  -6   94.61   41.98
   0   2  -6  112.15   44.62
   0  -2   7  730.54  427.28
   0  -2   7  540.43  210.28
   0  -2   7  423.52  280.44
   0   2  -7  661.53  280.46
   0  -2   8   18.99   12.49
   0  -2   8   15.32   20.64
   0   2  -8   15.30    7.97
   0  -2   9    2.50    4.88
   0  -2   9   -2.41   16.50
   0   2  -9    1.32    4.12
   0  -2  10   16.10   32.88
   0   1  -1 4069.13 3408.50
   0   1  -1 3095.05 3408.44
   0  -1   1 6136.09 1660.96
   0  -1   1 2349.82 2238.23
   0  -1   1 7451.68 2238.28
   0   1  -1 7919.38 1661.02
   0  -1   2  735.77  197.90
   0   1  -2  768.89  197.90
   0  -1   2  788.04  354.84
   0   1  -2  770.95  332.37
   0   1  -2  756.27  354.86
   0  -1   3 4326.98 2619.60
   0  -1   3 5322.42 1276.98
   0   1  -3 5719.67 1277.04
   0   1  -3 3670.32 1610.69
   0   1  -3 2870.74 1720.21
   0   1  -4  499.14   67.23
   0   1  -4  491.52  352.05
   0  -1   4  501.75  172.39
   0  -1   4  507.39  216.62
   0  -1   4  494.25  231.13
   0   1  -4  554.67  172.46
   0  -1   5 1278.87  402.55
   0  -1   5 1175.79  541.16
   0   1  -5 1110.85  402.47
   0   1  -5 1143.55  506.79
   0   1  -5 1187.25  541.16
   0  -1   6  177.82  140.64
   0   1  -6  204.10  140.59
   0  -1   6  248.87   70.49
   0  -1   6  211.75   92.34
   0   1  -6  160.18   70.57
   0  -1   7   47.96   20.65
   0   1  -7   42.73   20.22
   0  -1   8  101.16   35.31
   0  -1   8  122.52   57.36
   0   1  -8  126.00   57.18
   0  -1   9   59.62   30.95
   0  -1   9    0.35   27.33
   0   1  -9   81.63   27.33
   0  -1  10   -2.13   27.40
   0   0   1 1688.74 1093.30
   0   0  -1 1092.49  210.05
   0   0   1 1945.01  533.02
   0   0   1 1957.40  672.24
   0   0  -1 1477.63  717.88
   0   0   2 1917.28  272.95
   0   0   2 2245.27 1419.59
   0   0  -2 2226.27 1419.58
   0   0   2 2292.86  692.11
   0   0  -2 2401.84  692.12
   0   0  -2 1664.68  872.84
   0   0   3  650.74  166.17
   0   0   3    0.28   86.29
   0   0   3  787.71  297.10
   0   0  -3  888.30  221.28
   0   0  -3  776.65  278.28
   0   0  -3  839.45  297.10
   0   0   4  945.11  868.09
   0   0   4 2754.79  424.30
   0   0   4  957.40  533.82
   0   0  -4 2807.58  424.42
   0   0   5   30.55    3.70
   0   0   5   36.97   13.98
   0   0   5   30.16   14.30
   0   0  -5   27.20   14.65
   0   0  -5   29.35   14.13
   0   0   6  652.48  522.22
   0   0  -6  808.48  522.18
   0   0   6  724.75  255.59
   0   0   6  765.26  321.31
   0   0  -6  539.07  255.73
   0   0  -7   38.43   28.55
   0   0   7   52.85   22.12
   0   0   7   40.46   18.39
   0   0   8    4.24    6.70
   0   0  -8    8.85    6.47
   0   0   8   24.17   21.02
   0   0   9   10.18   29.79
   0   0   9   -1.69    4.43
   0   0  -9    2.46    3.45
   0   1   0   87.52   26.13
   0  -1   0   81.18   26.31
   0   1   0   90.68   44.86
   0   1   0   95.49   44.88
   0  -1   0   93.32   33.73
   0  -1   0  103.53   44.87
   0  -1   0  101.56   44.88
   0  -1  -1 1596.43 1091.28
   0   1   1 1483.46  716.54
   0  -1  -1 1596.81  532.07
   0   1   2    9.24    1.58
   0  -1  -2   12.15    5.02
   0  -1  -2    8.84    6.88
   0   1   2    9.74    4.66
   0   1   3 2778.77  379.15
   0  -1  -3 2813.08 1969.82
   0   1   3 2725.89  960.28
   0   1   3 2768.16 1293.51
   0  -1  -3 2958.02  960.33
   0   1   4  132.23   93.54
   0  -1  -4  115.13   36.08
   0  -1  -4  127.93   93.50
   0   1   4  136.62   46.87
   0   1   4  139.47   57.69
   0   1   5 1129.47  175.50
   0   1   5 1284.62  312.14
   0  -1  -5 1170.64  233.28
   0   1   6   21.14    2.64
   0  -1  -6   15.61   11.30
   0   1   6   21.39   16.28
   0   1   6   10.46    7.80
   0  -1  -6    3.95   13.31
   0   1   7  906.41  403.24
   0  -1  -7  944.96  430.34
   0   1   8   28.54   28.33
   0   1   8   10.50    8.53
   0  -1  -8   15.91    7.81
   0   1   9   24.29   25.00
   0   1   9   -0.87   11.37
   0  -1  -9   37.31   11.63
   0   2   0 1097.03  768.95
   0  -2   0 1102.85  768.89
   0   2   0 1042.42  504.85
   0  -2   0 1157.44  504.85
   0   2   1 1557.01 1091.73
   0  -2  -1 1575.46  398.15
   0   2   1 1567.15  532.43
   0  -2  -1 1603.37  532.37
   0  -2  -1 1520.40  716.84
   0   2   2 5239.26 1957.70
   0  -2  -2 5741.31  713.12
   0   2   2 5798.15  954.78
   0   2   2   13.38 1203.58
   0  -2  -2 5304.04 1285.56
   0   2   3  288.67   97.37
   0   2   3  297.64  121.78
   0   2   3  257.84  129.90
   0  -2  -3  308.48   97.34
   0  -2  -3  270.04  129.90
   0   2   4  180.04   24.31
   0   2   4  196.26   64.30
   0   2   4  186.33   84.84
   0  -2  -4  165.67   64.31
   0  -2  -4  184.20   84.82
   0   2   5  107.61   12.14
   0  -2  -5   97.45   65.15
   0   2   5   91.76   34.02
   0   2   5   74.77   42.76
   0  -2  -5   52.82   33.71
   0   2   6  702.05  159.23
   0   2   6    0.98  197.91
   0  -2  -6  827.72  211.50
   0   2   7   15.10   22.32
   0   2   7   46.78   19.07
   0  -2  -7   40.02   19.61
   0   2   8  112.89   59.19
   0   2   8  153.53   68.46
   0  -2  -8  161.84   72.55
   0  -2  -9   89.53   43.67
   0   2   9  105.58   44.03
   0   2   9   -0.08   27.33
   0   3   0  843.83  572.17
   0  -3   0  729.05  209.44
   0  -3   0  806.91  572.15
   0  -3   0  814.22  572.08
   0   3   0  790.26  279.31
   0  -3   0  789.12  279.39
   0   3   1  223.86   60.94
   0   3   1  206.14  162.58
   0  -3  -1  181.22   60.74
   0  -3  -1  251.08   60.99
   0  -3  -1  218.48  106.67
   0  -3  -1  251.97  106.66
   0  -3  -2    2.16    4.79
   0  -3  -2    0.74    2.76
   0   3   2    3.73    6.38
   0   3   2   -0.67    2.69
   0  -3  -2    5.80    7.04
   0  -3  -2   10.51    2.86
   0  -3  -3 1816.25  443.86
   0  -3  -3 1658.45 1216.69
   0   3   3 2077.92  593.84
   0   3   3 1725.43  798.95
   0   3   4  414.55  131.97
   0   3   4  396.33  164.97
   0   3   4  394.54  175.99
   0  -3  -4  320.96  131.71
   0  -3  -4  357.31  175.95
   0   3   5  311.89   36.96
   0   3   5  304.38   96.54
   0   3   5  209.27  127.54
   0  -3  -5  184.06   96.63
   0  -3  -5  302.83  127.57
   0   3   6   26.30   13.24
   0   3   6   19.16    9.94
   0  -3  -6   20.17   10.02
   0   3   7  967.09  145.70
   0   3   7  510.44   72.79
   0  -3  -7  520.10  379.36
   0   3   8  102.55   13.88
   0   3   8   77.42   49.88
   0  -3  -8  105.13   47.94
   0   4   0    3.76    4.38
   0   4   0    3.00    3.19
   0  -4   0    3.40    2.95
   0  -4   0    2.71    2.71
   0  -4   0    4.82    6.40
   0  -4   0    3.90    6.03
   0   4   1 3153.28 1360.10
   0  -4  -1 4141.81 1010.03
   0  -4  -1 1201.02 1009.55
   0  -4  -1 2796.58 1360.08
   0  -4  -1 2954.62 1360.07
   0   4   2  319.08  244.58
   0  -4  -2  325.30  244.53
   0  -4  -2  377.64  244.48
   0   4   2  318.81  120.16
   0  -4  -2  316.20  120.08
   0   4   3    0.18    1.99
   0  -4  -3   -0.47    2.05
   0   4   3    3.56    6.25
   0   4   3    0.89    2.57
   0  -4  -3    5.04    8.75
   0  -4  -3    1.26    8.25
   0  -4  -3    1.39    1.77
   0  -4  -4  114.18   64.21
   0   4   4  102.56   34.41
   0   4   4   99.62   39.73
   0   4   4   76.51   42.15
   0  -4  -4  105.23   34.61
   0  -4  -4   65.50   33.55
   0  -4  -4   76.14   42.10
   0   4   5  458.78  104.04
   0   4   5  308.11  127.70
   0  -4  -5   59.71  102.69
   0  -4  -5  287.24  136.08
   0   4   6   91.52   27.57
   0   4   6   79.28   36.38
   0  -4  -6    5.80   39.59
   0  -4  -6   91.30   38.47
   0   4   7   10.23    2.98
   0  -4  -7    8.66    7.56
   0   4   7    8.10   23.51
   0  -4  -7    6.38   34.49
   0   4   8   34.19   46.50
   0  -4  -8  -12.50   63.84
   0   5   0  194.96  126.20
   0  -5   0  180.88  126.16
   0  -5   0  164.72  126.07
   0   5   0  206.00   63.00
   0  -5   0  201.44   62.85
   0  -5   0  196.21   62.91
   0   5   1  483.95  325.65
   0  -5  -1  376.84  325.60
   0  -5  -1  482.51  325.53
   0  -5  -1  557.39  159.86
   0  -5  -1  516.41  159.99
   0   5   2  103.50   71.34
   0  -5  -2  116.47   28.51
   0  -5  -2  104.66   71.22
   0  -5  -2   95.92   71.15
   0  -5  -2   97.89   37.09
   0   5   3    3.92    2.13
   0   5   3    3.85    4.83
   0  -5  -3    3.16    3.55
   0  -5  -3    4.23    3.43
   0   5   3    6.53    9.24
   0  -5  -3   -5.40    9.05
   0  -5  -3    8.56    9.38
   0   5   4    3.36   10.29
   0   5   4   -2.37    4.75
   0  -5  -4    3.82   10.09
   0  -5  -4    0.24    3.87
   0  -5  -5    6.06   13.50
   0   5   5    7.87   19.48
   0   5   5   -3.03    4.89
   0  -5  -5    1.55    3.69
   0   5   6  282.97   37.36
   0  -5  -6  272.09   76.77
   0  -5  -6  278.12  196.12
   0   5   6  238.86  100.00
   0   5   7    0.80    2.60
   0  -5  -7    1.70    3.97
   0   5   7   16.69   25.00
   0  -5  -7    1.61   31.19
   0  -6   0    4.03    5.98
   0  -6   0    2.22    1.66
   0   6   0    0.00    7.21
   0   6   0    1.09    3.04
   0  -6   0   -2.11    9.00
   0  -6   0   -2.36    3.08
   0  -6  -1  160.36   84.27
   0   6   1   95.26   55.28
   0  -6  -1  144.39   43.28
   0  -6  -1   99.34   43.52
   0  -6  -1  107.23   55.25
   0   6   2   -0.06    2.54
   0  -6  -2   51.25   13.19
   0  -6  -2   53.59   13.80
   0  -6  -3   35.31   27.06
   0  -6  -3   55.75   20.95
   0   6   4   40.08    5.82
   0  -6  -4   42.52   29.19
   0  -6  -4   34.56   23.64
   0   6   5   78.69   30.61
   0   6   5  110.40   13.25
   0  -6  -5  105.74   31.71
   0  -6  -5   91.37   70.22
   0   6   6   -9.84   16.99
   0   6   6    5.04    2.42
   0  -6  -6    4.78   15.63
   0  -6  -6    9.96    5.81
   0   6   7   -0.50    9.03
   0  -6  -7  143.86   53.35
   0  -7   0    7.04   10.42
   0  -7   0    2.59    3.41
   0  -7  -1   88.87   61.93
   0  -7  -1   79.31   33.24
   0   7   2  152.55   75.32
   0  -7  -2  222.13   62.30
   0  -7  -2  204.80   80.25
   0  -7  -3  168.36  119.07
   0  -7  -3  169.57   61.47
   0   7   4   27.50   14.75
   0  -7  -4   49.70   21.77
   0  -7  -4   30.55   14.75
   0   7   5   46.98   20.52
   0  -7  -5   29.25   25.93
   0  -7  -5   45.17   21.23
   0   7   6   48.76    7.50
   0  -7  -6   56.63   37.86
   0  -8   0   42.99   32.75
   0  -8   0   58.47   26.57
   0  -8  -1   87.96   15.23
   0  -8  -1  104.55   26.14
   0   8   2   88.03   39.50
   0  -8  -2   77.27   35.25
   0  -8  -2   94.69   41.89
   0   8   3    4.54    3.03
   0  -8  -3    5.33    4.62
   0  -8  -3   -7.52   15.06
   0   8   4   22.45    4.37
   0  -8  -4   16.42   13.15
   0  -8  -4   20.49   15.46
   0  -8  -5   90.38   64.11
   0  -9   0   93.05   17.80
   0  -9   0   88.79   23.28
   0   9   1   19.92    4.18
   0  -9  -1   44.42   19.08
   0  -9  -1   26.42   17.36
   0  -9  -2   -1.46    9.23
   0   9   2    1.37    5.49
   0  -9  -2   -0.07    4.57
   0   9   3   25.22    4.65
   0  -9  -3   26.69   17.81
   0  -9  -3    0.82   29.84
   0 -10   0    1.36   12.04
   1 -10   0   78.47   18.51
   1 -10   0   -0.94   15.48
  -1  10   0   54.20   15.84
   1 -10   1    2.58    7.75
  -1  10  -1    3.49    3.77
   1 -10   1   -0.57    4.25
   1 -10   2    1.72   12.41
   1 -10   3   39.61   14.93
   1 -10   4    1.15   14.38
   1  -9   0    8.74   21.08
   1  -9   0   10.23    6.53
  -1   9   0   12.42    7.30
   1  -9   1    5.76   11.69
   1  -9   1   -1.17    3.93
  -1   9  -1    1.48    4.64
   1  -9   2   21.94   10.08
  -1   9  -2   -0.51    9.62
   1  -9   3   14.74    9.29
   1  -9   3    6.08    7.25
   1  -9   4   -0.65   14.30
   1  -9   4    1.84    5.65
   1  -9   5    3.73   16.15
   1  -9   6    4.99   19.03
   1  -8   0  133.15   29.62
   1  -8   0  119.08   27.38
  -1   8   0   20.97   25.62
   1  -8   1   38.69   17.64
   1  -8   1   37.67   17.91
   1  -8   2    7.64    7.50
   1  -8   2    3.55    3.74
   1  -8   3   29.02   13.85
   1  -8   3   14.31    8.69
   1  -8   4    6.22   13.65
   1  -8   4    4.43    3.89
   1  -8   5   61.22   19.07
   1  -8   5   18.32   12.60
   1  -8   6   -0.99   19.72
   1  -8   7    3.29   15.05
   1  -7   0  283.88   34.36
   1  -7   0   40.33   75.62
   1  -7   0  225.21   49.94
  -1   7   0   74.22   49.77
   1  -7   1  120.70   24.66
   1  -7   1  114.27   60.07
   1  -7   1   68.85   59.91
  -1   7  -1   79.57   39.50
   1  -7   2  394.08  115.06
   1  -7   2  432.53  153.11
   1  -7   2  290.01  152.99
  -1   7  -2  293.90  153.06
   1  -7   3   -1.07   10.82
   1  -7   3   -0.54    3.31
   1  -7   3    0.57    1.97
  -1   7  -3    0.52    2.66
   1  -7   4  475.88  174.48
   1  -7   4  154.93  174.33
  -1   7  -4  356.07  174.50
   1  -7   5  192.06   31.56
   1  -7   5   89.38   48.85
   1  -7   6   24.34   22.58
   1  -7   7  182.69   53.12
   1  -7   8  261.11   95.55
   1  -6   0   50.85   35.56
  -1   6   0   39.89   35.70
   1  -6   0   68.13   20.45
   1  -6   0   48.13   20.38
   1  -6   0   55.17   23.43
  -1   6   0   36.08   20.83
   1  -6   1    5.00    5.58
  -1   6  -1    4.28    5.13
   1  -6   1    4.44    9.12
   1  -6   1    6.98    3.82
   1  -6   1    6.57    3.24
  -1   6  -1    8.70    9.00
   1  -6   2   10.10    5.28
   1  -6   2    9.35    3.51
   1  -6   2    4.73    3.15
  -1   6  -2    4.29    7.42
  -1   6  -2    4.30    3.92
  -1   6  -3   64.26   20.26
   1  -6   3   76.24   24.48
   1  -6   3   66.17   30.19
   1  -6   3   68.01   30.16
  -1   6  -3   52.56   30.19
   1  -6   4   -2.61    5.97
   1  -6   4    1.38    2.35
   1  -6   4   -0.35    1.52
   1  -6   5  511.21  100.10
   1  -6   5  347.87  131.05
   1  -6   5  253.82  130.98
  -1   6  -5   95.23  122.75
  -1   6  -5  360.00  131.01
   1  -6   6  198.09   22.97
   1  -6   6   50.03   22.78
   1  -6   6   38.91   22.65
  -1   6  -6   41.72   22.59
   1  -6   7  407.85  144.11
   1  -6   8    9.09   14.95
  -1   5   0 2249.04 1543.21
   1  -5   0 2221.42  752.78
   1  -5   0 2048.55 1013.31
   1  -5   0 2218.47 1013.31
  -1   5   0 2372.65  752.75
   1  -5   1  293.67   70.77
  -1   5  -1  249.81   70.45
   1  -5   1  286.11   92.84
   1  -5   1  265.53  123.64
   1  -5   1  266.46  123.63
  -1   5  -1  262.74  123.65
   1  -5   2  117.68   38.80
   1  -5   2  107.34   50.51
   1  -5   2  109.85   50.49
  -1   5  -2  107.55   39.11
  -1   5  -2  106.30   50.53
   1  -5   3   41.39   17.68
   1  -5   3   49.58   21.11
   1  -5   3   41.50   21.02
  -1   5  -3   44.60   18.47
  -1   5  -3   45.62   21.17
  -1   5  -3   47.58   21.07
   1  -5   4  229.64   71.66
   1  -5   4  206.09   94.43
   1  -5   4  224.02   94.43
  -1   5  -4  127.01   71.32
  -1   5  -4  217.96   88.69
  -1   5  -4  184.91   94.41
   1  -5   5   -1.85   10.94
   1  -5   5   -0.39    2.84
  -1   5  -5    0.19    2.58
  -1   5  -5    0.96    1.50
   1  -5   6   30.81   19.42
   1  -5   6   14.79    5.29
   1  -5   6    4.12    3.71
  -1   5  -6    3.75    3.94
   1  -5   7   -1.27   17.63
   1  -5   7   -1.81    4.03
   1  -5   8   25.84   25.09
   1  -5   9    8.97   29.62
   1  -4   0  719.58  209.51
  -1   4   0  788.76  209.34
  -1   4   0  831.64  571.46
   1  -4   0  774.11  279.10
   1  -4   0  816.99  375.16
   1  -4   1  584.77  433.61
   1  -4   1  644.59  433.55
   1  -4   1  596.48  211.98
  -1   4  -1  566.47  211.96
  -1   4  -1  594.14  284.64
   1  -4   2    5.38    8.91
   1  -4   2    1.21    1.44
   1  -4   2    1.98    1.01
  -1   4  -2   -0.25    6.45
  -1   4  -2    0.72    1.62
  -1   4  -2    1.19    1.04
  -1   4  -3   40.89   13.34
   1  -4   3   37.80   16.55
   1  -4   3   38.46   19.87
   1  -4   3   47.60   19.87
  -1   4  -3   43.09   19.86
  -1   4  -3   41.00   19.84
   1  -4   4  481.35  231.83
   1  -4   4  508.51  231.83
  -1   4  -4  438.83  173.05
  -1   4  -4  493.27  217.23
  -1   4  -4  513.83  231.84
   1  -4   5   73.43   24.54
   1  -4   5   61.52   29.13
   1  -4   5   60.88   29.15
  -1   4  -5   59.86   27.45
  -1   4  -5   65.47   29.10
   1  -4   6  197.81   44.79
   1  -4   6  195.69   75.00
   1  -4   6  101.01   74.82
  -1   4  -6  176.50   74.85
   1  -4   7  834.04  170.39
   1  -4   7  697.33  301.28
  -1   4  -7  621.21  301.17
   1  -4   8    4.40   20.45
   1  -4   8   12.72    9.03
  -1   4  -8    6.67    5.80
   1  -4   9    7.22   29.31
   1  -3   0   75.96   27.50
   1  -3   0   84.05   27.61
   1  -3   0   75.89   35.72
   1  -3   0   73.93   35.70
  -1   3   0   85.21   27.47
  -1   3   0   82.21   35.72
   1  -3   1  257.36  134.77
   1  -3   1  259.12  134.78
  -1   3  -1  710.72  101.27
  -1   3  -1  292.02  134.77
   1  -3   2 1270.76  432.09
   1  -3   2 1210.41  581.38
   1  -3   2 1273.72  581.40
  -1   3  -2 1234.21  432.05
  -1   3  -2 1232.68  581.38
  -1   3  -2 1266.75  581.40
   1  -3   3  394.44  135.82
   1  -3   3  391.38  181.75
   1  -3   3  391.23  181.77
  -1   3  -3  394.73  135.80
  -1   3  -3  419.71  170.33
  -1   3  -3  377.65  181.77
   1  -3   4  310.06  105.83
   1  -3   4  311.93  141.05
   1  -3   4  304.65  141.06
  -1   3  -4  257.94  105.72
  -1   3  -4  322.81  132.22
  -1   3  -4  294.30  141.05
   1  -3   5  188.96   33.31
   1  -3   5  139.14   53.86
   1  -3   5  104.34   53.78
  -1   3  -5  140.31   43.00
  -1   3  -5   77.39   50.48
  -1   3  -5  145.41   53.81
   1  -3   6  297.97   99.56
   1  -3   6  333.81  131.62
   1  -3   6  221.65  131.54
  -1   3  -6  140.44   99.00
  -1   3  -6  311.33  131.54
   1  -3   7   93.44   33.92
   1  -3   7   73.14   37.62
  -1   3  -7   81.91   37.38
   1  -3   8   13.98   22.86
   1  -3   8   21.96    9.49
  -1   3  -8   12.17    7.71
   1  -3   9   14.39   18.97
   1  -2   0 8665.43 2150.51
   1  -2   0 8380.79 2882.93
   1  -2   0 8573.87 3885.48
  -1   2   0 9999.00 2882.95
  -1   2   0 7643.44 3885.47
   1  -2   1 4647.01  816.48
   1  -2   1 2530.72 1473.17
   1  -2   1 3389.15 1473.20
  -1   2  -1 4719.60 1093.57
  -1   2  -1 2515.79 1473.16
   1  -2   2    2.13    2.61
   1  -2   2    0.68    0.61
  -1   2  -2   -0.54    3.40
  -1   2  -2   -0.06    0.78
  -1   2  -2    0.83    0.48
   1  -2   3  880.15  299.98
   1  -2   3  881.02  403.24
   1  -2   3  851.21  403.25
  -1   2  -3  962.57  300.07
  -1   2  -3  867.55  377.68
   1  -2   4  277.66   92.21
   1  -2   4  278.07  122.77
   1  -2   4  268.17  122.76
  -1   2  -4  289.27   92.24
  -1   2  -4  235.64  115.05
  -1   2  -4  290.51  122.77
   1  -2   5  576.93  148.32
   1  -2   5  591.15  263.68
   1  -2   5  559.91  263.67
  -1   2  -5  485.02  196.66
  -1   2  -5  573.49  263.66
   1  -2   6   51.81   18.71
   1  -2   6   47.73   18.67
   1  -2   6   32.60   18.46
  -1   2  -6   10.78   16.78
  -1   2  -6   41.46   18.32
   1  -2   7   50.65   26.47
   1  -2   7   55.85   24.33
  -1   2  -7   49.42   23.90
   1  -2   8   10.78   19.28
   1  -2   8   29.71   15.54
  -1   2  -8   33.05   14.50
   1  -2   9   12.73   26.47
   1  -1   0  348.49  120.93
   1  -1   0  356.19  152.19
   1  -1   0  358.16  162.43
  -1   1   0  341.54  120.91
  -1   1   0  345.48  152.20
  -1   1   0  343.60  162.42
   1  -1   1 4875.41 1534.99
   1  -1   1 5289.24 1936.72
   1  -1   1 4178.96 2068.46
  -1   1  -1 6960.38 1535.07
  -1   1  -1 3471.38 2068.48
   1  -1   2  997.77  309.58
   1  -1   2  681.66  390.00
   1  -1   2  984.62  416.43
  -1   1  -2 1002.93  309.57
  -1   1  -2 1002.35  416.43
   1  -1   3  129.45   16.78
   1  -1   3  125.26   45.45
   1  -1   3  127.02   59.95
  -1   1  -3  134.98   45.62
  -1   1  -3  131.09   59.95
   1  -1   4  594.92  204.61
   1  -1   4  559.22  257.16
   1  -1   4  610.43  274.48
  -1   1  -4  606.75  204.61
  -1   1  -4  603.40  274.47
   1  -1   5    2.00    2.80
  -1   1  -5    2.60    6.92
   1  -1   5    4.93    9.12
   1  -1   5    4.27    3.13
  -1   1  -5    2.32    2.08
   1  -1   6  285.18   71.39
   1  -1   6  296.07  116.38
   1  -1   6  204.17  123.87
  -1   1  -6  144.63   93.91
  -1   1  -6  304.27  123.89
   1  -1   7  195.36   97.24
   1  -1   7  267.69  128.34
  -1   1  -7  291.74  128.29
   1  -1   8   55.79   40.67
   1  -1   8   22.30   28.87
  -1   1  -8   61.34   26.69
   1  -1   9   -3.45   18.03
  -1   0   0 3555.92 1881.71
  -1   0   0 2243.57 1881.63
   1   0   0 4036.98 1235.59
   1   0   0 2239.34 1235.60
   1   0   1 1074.42  714.15
   1   0   1  965.88  348.27
  -1   0  -1  998.95  348.28
  -1   0  -1 1002.67  468.86
  -1   0  -1  997.43  468.87
   1   0   2 1514.47  510.18
   1   0   2 1480.11  643.25
   1   0   2 1507.53  686.93
  -1   0  -2 1431.40  510.17
  -1   0  -2 1473.13  686.93
   1   0   3  593.58  210.39
   1   0   3  617.49  264.75
   1   0   3  614.66  282.59
  -1   0  -3  638.86  210.46
  -1   0  -3  598.38  282.59
  -1   0  -4  936.01  861.51
   1   0   4 2608.20  421.13
   1   0   4  969.64  565.68
  -1   0  -4 2928.18  421.42
   1   0   5 1289.22  158.64
   1   0   5 1059.88  403.34
   1   0   5 1006.17  542.33
  -1   0  -5  939.67  403.41
  -1   0  -5 1243.18  542.34
  -1   0  -6 2447.73 1452.23
   1   0   6 2028.99  708.71
   1   0   6 2281.62  893.13
   1   0   6 1402.54  953.58
  -1   0  -6 1717.61  708.85
   1   0   7  343.53   48.78
   1   0   7  343.57  127.54
  -1   0  -7  377.01  168.14
   1   0   8   24.03   34.76
  -1   0  -8   69.80   30.90
   1   0   9   -3.79   29.50
   1   1   0  502.73  370.52
  -1  -1   0  531.72  370.45
   1   1   0  492.80  180.83
   1   1   0  519.97  243.20
  -1  -1   0  504.34  180.85
  -1  -1   0  523.47  180.90
  -1  -1   0  560.45  243.20
   1   1   1   50.09   19.98
   1   1   1   59.36   26.06
  -1  -1  -1   56.66   20.04
  -1  -1  -1   54.45   26.08
  -1  -1  -1   56.28   26.03
   1   1   2 2567.20 1767.48
  -1  -1  -2 2456.44 1767.46
  -1  -1  -2 2505.49 1767.42
   1   1   2 2608.40  861.64
  -1  -1  -2 2424.01  861.59
   1   1   3 1739.96 1211.15
  -1  -1  -3 1665.22 1211.11
   1   1   3 1740.37  744.70
   1   1   4 3366.48  431.86
   1   1   4 3319.43 1093.52
   1   1   4 2951.32 1472.73
  -1  -1  -4 2762.39 1093.41
  -1  -1  -4 3204.82 1472.73
   1   1   5    1.82    1.87
   1   1   5    2.60   13.18
   1   1   5    1.43    2.44
  -1  -1  -5    4.47   10.41
  -1  -1  -5   -1.37    2.23
   1   1   6  107.24   40.98
   1   1   6  101.02   45.37
  -1  -1  -6  105.26   48.09
   1   1   7   -3.05   10.54
   1   1   7   -0.20    4.89
  -1  -1  -7    0.73    3.72
   1   1   8    0.99   17.21
   1   1   8   72.73   52.90
  -1  -1  -8  225.38   63.24
   1   1   9   -7.21   33.34
   1   2   0 1952.77 1732.76
  -1  -2   0 2836.29 1732.85
   1   2   0 2584.70  844.65
   1   2   0 2658.88 1137.85
  -1  -2   0 2593.81  844.67
  -1  -2   0 2664.32 1137.86
   1   2   1 2301.48  780.10
   1   2   1 2203.52 1050.67
  -1  -2  -1 2181.54  780.02
  -1  -2  -1 2293.44  780.07
  -1  -2  -1 2154.86 1050.66
  -1  -2  -1 2360.21 1050.67
   1   2   2  137.82   91.46
   1   2   2  126.72   45.57
  -1  -2  -2  136.96   45.45
  -1  -2  -2  121.00   59.97
  -1  -2  -2  129.85   59.95
   1   2   3   50.70   18.68
   1   2   3   51.67   22.83
  -1  -2  -3   41.29   18.76
  -1  -2  -3   46.58   22.81
  -1  -2  -3   49.92   22.75
   1   2   4    1.14    1.41
   1   2   4    1.53    2.31
   1   2   4    2.51    7.78
  -1  -2  -4    6.95    9.41
  -1  -2  -4    0.10    2.40
  -1  -2  -4    2.07    1.85
   1   2   5    5.13    2.27
  -1  -2  -5    2.73    2.47
   1   2   5    0.61   10.70
   1   2   5    1.34    2.72
  -1  -2  -5   -8.53   12.29
  -1  -2  -5    2.93    2.80
   1   2   6   73.29   31.94
   1   2   6   80.22   36.07
  -1  -2  -6   84.19   38.14
   1   2   7  546.13  196.71
   1   2   7  594.76  245.02
  -1  -2  -7  538.72  261.28
   1   2   8   63.48   38.90
   1   2   8    1.19   22.21
  -1  -2  -8   84.04   23.44
  -1  -3   0   -0.29    3.48
   1   3   0    2.84    5.17
   1   3   0    2.66    2.48
   1   3   0    2.17    1.72
  -1  -3   0    0.76    4.74
  -1  -3   0    3.28    2.69
  -1  -3   0    0.33    1.68
   1   3   1   22.70   10.81
  -1  -3  -1   23.74    9.59
  -1  -3  -1   22.87   10.05
  -1  -3  -1   21.77   10.70
  -1  -3  -1   22.57   10.60
  -1  -3  -2    9.03    5.29
   1   3   2   11.20    7.35
   1   3   2    5.91    5.25
  -1  -3  -2   10.12    6.34
  -1  -3  -2    5.76    7.70
  -1  -3  -2    5.11    3.80
   1   3   3 1563.62  747.70
   1   3   3 2447.57  366.29
   1   3   3    2.21  459.59
  -1  -3  -3 2144.82  365.76
  -1  -3  -3 1643.08  490.95
  -1  -3  -3 1611.34  490.92
  -1  -3  -4   17.09   11.03
  -1  -3  -4   29.17   20.00
  -1  -3  -4   24.98   19.91
   1   3   4   34.59   15.12
   1   3   4   31.62   12.82
   1   3   4   27.04   13.25
   1   3   5  467.85  168.96
   1   3   5  506.39  210.93
  -1  -3  -5  468.42  224.99
   1   3   6  151.23   65.53
   1   3   6  170.02   77.12
  -1  -3  -6  184.98   82.03
   1   3   7    2.71   38.92
   1   3   7    2.08    5.06
  -1  -3  -7    0.25    4.67
   1   3   8   12.55   49.18
   1   3   8    1.31   10.18
  -1  -3  -8   33.88   10.17
   1   4   0  509.22  173.20
   1   4   0  499.39  232.17
  -1  -4   0  490.50  173.12
  -1  -4   0  516.69  173.25
  -1  -4   0  484.30  232.17
  -1  -4   0  508.65  232.15
   1   4   1 1653.30  813.05
  -1  -4  -1 2376.22  604.29
  -1  -4  -1 1655.20  604.13
  -1  -4  -1 1815.44  813.05
  -1  -4  -1 1711.15  813.03
   1   4   2  558.16  140.67
  -1  -4  -2  583.07  140.57
  -1  -4  -2  531.67  380.73
   1   4   2  539.38  249.99
  -1  -4  -2  544.09  186.64
  -1  -4  -2  537.51  249.93
   1   4   3    7.21    5.93
   1   4   3    1.48    3.71
   1   4   3    2.74    5.36
  -1  -4  -3    3.00    8.22
  -1  -4  -3    9.73    9.54
  -1  -4  -3    5.73    3.42
  -1  -4  -3    6.26    3.16
   1   4   4   42.22    5.33
  -1  -4  -4   34.88   13.74
  -1  -4  -4   40.35   27.36
   1   4   4   28.42   18.14
  -1  -4  -4    4.56   17.00
   1   4   5  335.16   54.85
  -1  -4  -5  334.53  109.33
   1   4   5  287.34  142.64
  -1  -4  -5  490.62  187.95
   1   4   6    1.47    2.31
  -1  -4  -6    1.18    3.06
   1   4   6    9.66   22.18
  -1  -4  -6   -3.11   44.78
   1   4   7  172.44   21.53
  -1  -4  -7  165.93  112.63
   1   4   7  102.16   63.05
  -1  -4  -7    2.66   78.42
   1   5   0   74.41   21.69
  -1  -5   0   73.34   21.59
   1   5   0   64.65   33.82
  -1  -5   0   86.73   27.33
  -1  -5   0   76.05   33.80
  -1  -5   0   72.25   33.72
   1   5   1   82.64   45.90
  -1  -5  -1  115.64   36.13
  -1  -5  -1   98.52   36.31
  -1  -5  -1  112.15   45.91
  -1  -5  -1   96.57   45.82
   1   5   2  202.70  175.43
  -1  -5  -2  263.48  175.41
  -1  -5  -2  257.97  175.33
  -1  -5  -2  283.52   87.21
  -1  -5  -2  222.91   87.27
   1   5   3    0.38    9.09
  -1  -5  -3   48.70   12.89
  -1  -5  -3   51.89    9.39
   1   5   4  196.48   68.52
   1   5   4  190.23   82.65
  -1  -5  -4  244.79   69.39
  -1  -5  -4  180.78   87.97
   1   5   5   28.60    4.80
  -1  -5  -5   32.07   22.52
   1   5   5   36.37   26.10
  -1  -5  -5   41.73   25.98
   1   5   6   17.89   18.49
  -1  -5  -6   15.45   10.59
   1   5   6   16.83    7.97
  -1  -5  -6  -24.45   28.25
   1   5   7    4.79    4.54
  -1  -5  -7    1.85    4.57
  -1  -6   0    8.74    6.79
   1   6   0    1.80    3.42
  -1  -6   0   -0.73   10.04
  -1  -6   0    5.16    3.79
  -1  -6   0    4.05    2.62
  -1  -6  -1  449.57  322.16
  -1  -6  -1  493.29  158.53
  -1  -6  -2  319.40   66.20
  -1  -6  -2  222.50  109.90
  -1  -6  -3   25.85   17.68
  -1  -6  -3   22.49   10.96
   1   6   4    2.03    4.87
  -1  -6  -4   -0.36    4.27
   1   6   5  273.19   31.83
  -1  -6  -5  214.86  166.11
  -1  -6  -5  129.05   85.37
   1   6   6  160.02   60.50
  -1  -6  -6    1.14   54.45
  -1  -6  -6  135.63   63.91
  -1  -7   0  754.85  234.01
  -1  -7   0  934.25  636.59
  -1  -7  -1  791.83  200.50
  -1  -7  -1  767.39  544.15
  -1  -7  -2  275.60   30.11
  -1  -7  -2  280.60   66.07
  -1  -7  -3   57.43   21.05
   1   7   3   61.63   27.97
  -1  -7  -3   65.07   29.32
   1   7   4  194.29   81.56
  -1  -7  -4  155.57   70.11
  -1  -7  -4  182.70   86.68
   1   7   5   36.77   13.95
  -1  -7  -5    8.05   26.93
  -1  -7  -5   22.70   13.54
  -1  -8   0  378.02  256.44
  -1  -8   0  304.54  126.81
  -1  -8  -1   34.62   23.53
  -1  -8  -1   22.53   22.71
   1   8   2    1.18    5.03
  -1  -8  -2   -3.50   23.96
  -1  -8  -2    0.53    2.48
   1   8   3  564.81  240.64
  -1  -8  -3  540.54  256.69
   1   8   4  104.78   14.47
  -1  -8  -4  106.84   75.01
  -1  -9   0    9.07   12.96
  -1  -9   0    3.43    4.30
  -1  -9  -1    5.43    9.06
   1   9   1   -0.09    5.07
  -1  -9  -1    2.92    3.62
  -1  -9  -2   46.25   28.33
  -1  -9  -2    0.87   21.29
  -2  10   0   -0.84    3.62
   2 -10   0    8.61   12.24
   2 -10   0   -0.36    4.63
   2 -10   1   60.19   19.22
   2 -10   2   25.57   11.60
   2 -10   3    6.31   13.44
   2 -10   4    6.28   15.34
  -2   9   0   -0.53    2.72
   2  -9   0   -3.83   20.44
   2  -9   0    1.68    3.81
   2  -9   1    7.09   11.27
   2  -9   1    1.65    4.71
  -2   9  -1   -2.83    4.69
   2  -9   2   10.36   11.90
   2  -9   2    8.97    5.81
  -2   9  -2    4.70    5.74
   2  -9   3   19.23   14.27
   2  -9   3    6.96    5.42
  -2   9  -3    2.12    6.35
   2  -9   4   46.00   22.66
   2  -9   5   27.32   20.00
   2  -9   6    2.75   15.11
   2  -8   0  117.82   40.97
   2  -8   0  111.70   47.27
  -2   8   0   90.65   44.44
   2  -8   1   13.02   10.84
   2  -8   1    7.60    5.11
  -2   8  -1    1.98    5.28
   2  -8   2  447.90  110.98
   2  -8   2  445.58  196.35
  -2   8  -2  404.74  184.03
   2  -8   3  173.67   40.00
   2  -8   3  119.80   49.15
  -2   8  -3   83.12   46.10
   2  -8   4   24.11   16.82
   2  -8   5   31.82   14.71
   2  -8   6  290.59   79.85
   2  -8   7  198.79   60.10
  -2   7   0    0.00    2.35
   2  -7   0    1.10    9.83
   2  -7   0    0.44    4.09
   2  -7   0   -1.16    1.88
  -2   7   0   -0.51    3.21
   2  -7   1  816.71  197.22
   2  -7   1  905.38  352.57
   2  -7   1  614.42  352.48
  -2   7  -1  863.87  330.23
  -2   7  -1  671.74  352.54
   2  -7   2  201.97   46.87
   2  -7   2  217.11   79.74
   2  -7   2  142.72   79.59
  -2   7  -2  182.15   74.73
  -2   7  -2  146.76   79.64
   2  -7   3   60.63   18.42
  -2   7  -3   31.55   18.05
   2  -7   4  112.93   42.09
   2  -7   5  144.28   53.13
   2  -7   6   71.29   34.87
   2  -7   7    0.79   28.22
   2  -6   0  239.92   73.88
   2  -6   0  186.17   73.91
   2  -6   0  198.13   97.43
   2  -6   0  215.52   97.43
  -2   6   0  196.53   74.06
  -2   6   0  217.16   91.40
  -2   6   0  198.52   97.46
   2  -6   1  727.03  229.21
   2  -6   1  649.47  229.42
   2  -6   1  715.70  307.47
   2  -6   1  661.69  307.44
  -2   6  -1  700.22  229.40
  -2   6  -1  627.12  287.98
  -2   6  -1  672.77  307.47
   2  -6   2   39.08   13.63
   2  -6   2   17.19    7.15
   2  -6   2   14.31    6.82
  -2   6  -2    1.17    8.85
  -2   6  -2   12.41    6.80
  -2   6  -2   12.94    7.09
   2  -6   3  154.48   35.29
   2  -6   3  149.92   59.07
   2  -6   3  135.63   59.04
  -2   6  -3  118.90   46.53
  -2   6  -3  106.65   55.40
   2  -6   4   27.12   13.48
   2  -6   5  785.20  271.56
   2  -6   6    7.30   21.72
   2  -6   7    6.93   13.64
   2  -6   8   15.59   20.51
   2  -5   0 1283.18  427.78
   2  -5   0 1238.96  427.87
   2  -5   0 1222.68  575.31
   2  -5   0 1221.49  575.31
  -2   5   0 1271.08  427.83
  -2   5   0 1262.37  538.77
  -2   5   0 1262.26  575.33
  -2   5  -1  255.77   69.29
   2  -5   1  234.85   91.36
   2  -5   1  259.30  121.47
   2  -5   1  282.46  121.47
  -2   5  -1  233.87  113.84
  -2   5  -1  301.85  121.49
  -2   5  -2   41.76   12.84
   2  -5   2   51.10   17.34
   2  -5   2   45.13   17.84
   2  -5   2   40.33   17.77
  -2   5  -2   31.58   16.77
  -2   5  -2   38.54   17.80
  -2   5  -3    5.75    6.27
   2  -5   3    6.92    7.37
  -2   5  -4    4.04    5.40
   2  -5   4    1.00   10.76
   2  -5   5   50.06   21.14
   2  -5   6  101.01   41.70
   2  -5   7   19.92   20.73
   2  -5   8   21.10   29.27
   2  -4   0  192.11   49.44
  -2   4   0  194.92  130.87
   2  -4   0  180.68   64.72
   2  -4   0  180.04   85.82
   2  -4   0  182.71   85.82
  -2   4   0  189.57   64.66
  -2   4   0  186.99   80.49
  -2   4  -1  309.53   86.99
   2  -4   1  327.50  153.88
   2  -4   1  328.54  153.89
  -2   4  -1  338.56  144.20
  -2   4  -1  343.32  153.87
   2  -4   2 1849.96  611.66
  -2   4  -2 1701.75  611.62
   2  -4   3  220.95   72.53
  -2   4  -3  194.28   72.48
   2  -4   4  343.39  109.23
  -2   4  -4  287.83  108.96
   2  -4   5  103.16   30.41
  -2   4  -5   62.67   30.97
   2  -4   6   20.84   17.33
   2  -4   7    2.47   19.52
   2  -4   8    2.13   29.61
   2  -3   0 2067.50  728.61
   2  -3   0 2121.20  728.68
   2  -3   0 2072.48  981.28
  -2   3   0 2232.08  728.62
  -2   3   0 2104.78  918.87
  -2   3   0 2196.05  981.28
   2  -3   1   25.28   66.68
   2  -3   1  168.99   66.70
  -2   3  -1   41.58   62.56
  -2   3  -1  140.05   66.67
  -2   3  -2    1.77    3.27
   2  -3   2    2.80    4.63
   2  -3   3   51.01   17.31
  -2   3  -3   36.46   16.73
  -2   3  -4  135.13   42.69
   2  -3   4  165.16   55.80
   2  -3   4  160.40   73.10
   2  -3   4  169.59   73.11
  -2   3  -4  144.24   73.10
  -2   3  -4  168.46   73.11
   2  -3   5  142.01   82.95
   2  -3   5  230.20  109.80
   2  -3   5  237.68  109.80
  -2   3  -5   72.89   82.49
  -2   3  -5  261.97  109.79
  -2   3  -5  241.69  109.79
   2  -3   6    2.42   14.79
   2  -3   6   25.97    9.72
   2  -3   6   16.78    9.54
  -2   3  -6   22.66    9.39
  -2   3  -6   17.22    9.35
   2  -3   7    1.07   26.73
   2  -3   7   29.85   13.29
  -2   3  -7   27.78   12.76
   2  -3   8    1.06   17.71
   2  -2   0 1394.15  467.43
   2  -2   0 1402.96  589.29
   2  -2   0 1269.61  629.29
  -2   2   0 1346.30  467.36
  -2   2   0 1395.72  629.27
  -2   2   0 1400.23  629.28
   2  -2   1  105.98   37.39
  -2   2  -1  106.73   37.23
   2  -2   2  209.16   69.73
  -2   2  -2  192.53   69.58
   2  -2   3  664.89  191.39
   2  -2   3  754.04  342.27
  -2   2  -3  782.06  254.86
  -2   2  -3  739.13  342.28
  -2   2  -3  734.79  342.28
   2  -2   4  191.91   84.35
  -2   2  -4  131.20   63.96
  -2   2  -4  175.06   84.33
  -2   2  -4  190.07   84.34
   2  -2   5   21.63   15.90
   2  -2   5   31.48   15.83
   2  -2   5   35.16   15.94
  -2   2  -5   22.02   15.39
  -2   2  -5   36.50   15.77
  -2   2  -5   34.63   15.79
   2  -2   6    1.70   70.38
   2  -2   6  307.04  123.94
   2  -2   6  231.36  123.90
  -2   2  -6  304.38  123.88
  -2   2  -6  260.81  123.87
   2  -2   7    8.44   69.00
   2  -2   7  226.60   90.65
  -2   2  -7  202.33   90.45
   2  -2   8    3.63   25.41
   2  -2   8   16.34    9.71
  -2   2  -8   11.06    7.60
   2  -1   0   11.45    4.41
   2  -1   0   10.15    4.51
   2  -1   0    9.20    5.07
   2  -1   0   11.10    5.03
  -2   1   0   10.02    4.28
  -2   1   0   11.32    5.17
  -2   1   0   11.24    5.03
   2  -1   1  203.75   74.55
   2  -1   1  215.75   99.75
  -2   1  -1  223.25   74.55
  -2   1  -1  225.28   99.76
  -2   1  -1  211.67   99.77
   2  -1   2   66.47   24.76
   2  -1   2   70.20   30.31
   2  -1   2   65.94   32.22
  -2   1  -2   75.80   24.72
  -2   1  -2   71.60   32.22
  -2   1  -2   69.02   32.23
   2  -1   3  460.85  159.36
   2  -1   3  463.31  200.20
   2  -1   3  474.55  213.65
  -2   1  -3  486.39  159.42
  -2   1  -3  449.69  213.64
  -2   1  -3  459.99  213.65
   2  -1   4  835.09  455.33
   2  -1   4  742.63  222.90
   2  -1   4    3.98  279.89
  -2   1  -4  724.03  222.90
  -2   1  -4  849.27  298.91
  -2   1  -4  798.96  298.90
   2  -1   5    3.93    9.36
   2  -1   5    2.17    3.28
   2  -1   5    5.66    2.88
  -2   1  -5    5.75   10.94
  -2   1  -5    0.70    2.66
  -2   1  -5    1.54    2.19
   2  -1   6  192.84   20.84
  -2   1  -6  142.09  110.46
   2  -1   6   43.27   55.51
   2  -1   6  121.69   72.56
  -2   1  -6  190.90   72.58
   2  -1   7  -15.11   49.25
  -2   1  -7  142.04   58.62
   2  -1   8    3.73   27.71
   2  -1   8    0.05    5.09
  -2   1  -8    7.87    4.31
   2   0   0  531.26  222.16
   2   0   0  463.61  222.16
  -2   0   0  482.07  222.15
  -2   0   0  475.46  222.16
   2   0   1  664.90  476.55
   2   0   1  673.27  476.48
   2   0   1  698.18  232.57
  -2   0  -1  646.61  232.55
  -2   0  -1  697.91  312.82
  -2   0  -1  672.79  312.83
  -2   0  -2   35.52   23.53
   2   0   2   29.16   12.51
   2   0   2   34.30   15.40
  -2   0  -2   26.61   12.31
  -2   0  -2   32.47   15.35
  -2   0  -3    1.60    1.82
  -2   0  -3    1.22    1.78
   2   0   3   -0.75    5.81
   2   0   3    1.31    2.53
   2   0   3    3.44    2.83
  -2   0  -3    2.29    6.60
  -2   0  -4   81.39   61.39
   2   0   4  147.33   32.06
   2   0   4   84.24   37.94
   2   0   4   83.75   40.32
  -2   0  -4  144.82   32.40
  -2   0  -4   81.55   40.27
  -2   0  -5  267.32  188.05
   2   0   5  253.97   93.25
   2   0   5  283.26  115.84
   2   0   5  260.41  123.47
  -2   0  -5  208.47   93.38
  -2   0  -5  265.20  123.43
   2   0   6  252.53   33.15
   2   0   6  190.81   87.56
  -2   0  -6  248.06  114.13
   2   0   7    2.40   25.57
   2   0   7   19.21   10.17
  -2   0  -7   19.96    9.52
   2   0   8   -2.07   14.66
   2   0   8    1.76    6.46
  -2   0  -8    1.93    4.25
  -2  -1   0 1387.12  933.42
   2   1   0 1342.66  612.85
   2   1   0 1360.64  612.85
  -2  -1   0 1263.72  455.10
  -2  -1   0 1329.76  455.14
  -2  -1   0 1262.74  612.85
   2   1   1  734.90  258.09
   2   1   1  755.65  347.10
  -2  -1  -1  702.67  258.04
  -2  -1  -1  735.43  258.04
  -2  -1  -1  756.94  347.10
  -2  -1  -1  751.90  347.10
   2   1   2  698.79  261.71
   2   1   2  784.94  351.85
  -2  -1  -2  749.92  261.70
  -2  -1  -2  746.98  351.83
  -2  -1  -2  762.83  351.83
  -2  -1  -3  702.26  306.63
   2   1   3  670.58  150.62
   2   1   3    0.42  188.49
   2   1   3  678.68  201.40
  -2  -1  -3  628.54  150.53
  -2  -1  -3  655.40  201.35
   2   1   4    3.13    1.21
  -2  -1  -4    2.65    3.23
  -2  -1  -4    4.09    3.24
   2   1   4    2.03    7.81
   2   1   4    5.20    4.66
  -2  -1  -4    6.20    8.74
   2   1   5  525.48   58.59
  -2  -1  -5  209.70  113.77
  -2  -1  -5  391.41  306.04
   2   1   5  439.66  150.78
   2   1   5  377.37  200.99
  -2  -1  -5  485.42  200.98
   2   1   6  112.57   79.62
   2   1   6  248.77   98.36
  -2  -1  -6  216.84  104.46
   2   1   7    1.94    2.96
   2   1   7   -8.25   20.83
  -2  -1  -7    5.01    4.39
   2   1   8   -1.38    8.32
   2   1   8   -1.00   43.76
  -2  -1  -8  114.74   31.01
   2   2   0 2196.99 1644.50
  -2  -2   0 2416.77 1644.41
   2   2   0 2003.51  801.63
   2   2   0 2328.38 1079.83
  -2  -2   0 2270.33  801.65
  -2  -2   0 2346.56  801.72
  -2  -2   0 2352.91 1079.84
  -2  -2  -1 2985.81 2222.05
  -2  -2  -1 3276.32 2221.98
   2   2   1 2971.16 1083.13
   2   2   1 3088.12 1459.14
  -2  -2  -1 2992.78 1083.08
  -2  -2  -1 3241.58 1083.13
   2   2   2  842.84  543.96
  -2  -2  -2  800.18  543.92
  -2  -2  -2  711.82  543.85
   2   2   2  829.53  265.87
  -2  -2  -2  844.58  265.86
  -2  -2  -2  790.87  265.74
   2   2   3   75.62   49.02
  -2  -2  -3   74.52   48.90
   2   2   3   68.00   25.95
  -2  -2  -3   58.33   25.91
  -2  -2  -3   64.55   32.06
   2   2   4  210.92   70.30
   2   2   4  233.70   86.69
   2   2   4  190.80   92.46
  -2  -2  -4  150.04   70.25
  -2  -2  -4  212.89   92.35
  -2  -2  -4  166.28   92.31
   2   2   5  429.35   54.94
  -2  -2  -5  396.83  287.41
   2   2   5  307.49  141.69
   2   2   6  231.77   30.36
   2   2   6  242.94   83.45
  -2  -2  -6  219.21  104.75
   2   2   7   -0.67    5.86
  -2  -2  -7   83.34   31.82
   2   2   7   73.13   42.31
  -2  -3   0  754.67  567.96
   2   3   0  781.22  372.88
   2   3   0  822.28  372.87
  -2  -3   0  797.28  277.38
  -2  -3   0  861.90  277.49
  -2  -3   0  814.48  372.87
  -2  -3  -1  314.63  224.41
   2   3   1  315.81  147.31
  -2  -3  -1  358.98  110.26
  -2  -3  -1  371.05  110.31
  -2  -3  -1  311.36  147.28
   2   3   2 1562.55 1132.51
  -2  -3  -2 1698.28 1132.41
   2   3   2 1489.47  552.62
  -2  -3  -2 1509.29  552.57
  -2  -3  -2 1377.82  552.47
  -2  -3  -2 1550.33  743.62
   2   3   3   16.57   11.47
  -2  -3  -3   17.48   11.32
  -2  -3  -3   14.04   11.15
   2   3   3    8.39   10.63
  -2  -3  -3   15.58    9.96
  -2  -3  -3   19.87   11.57
  -2  -3  -4   77.75   54.14
   2   3   4   78.89   29.91
  -2  -3  -4   68.36   30.61
  -2  -3  -4   72.03   32.15
   2   3   5   75.57    9.78
  -2  -3  -5   78.95   51.34
   2   3   5   41.53   32.07
  -2  -3  -5    4.53   35.52
  -2  -3  -6    8.11    6.26
   2   3   6   15.66   30.89
   2   3   6   10.12    4.84
  -2  -3  -6  -31.95   48.80
   2   3   7   39.01   31.06
   2   3   7   -1.44    9.89
  -2  -3  -7   23.86   62.43
  -2  -3  -7   30.25    9.07
   2   4   0    7.18    5.50
  -2  -4   0    9.77    5.90
   2   4   0    6.75    4.26
  -2  -4   0    6.46    7.69
  -2  -4   0   10.68    7.53
  -2  -4   0    6.63    3.77
   2   4   1   86.48   73.18
  -2  -4  -1   99.62   73.06
  -2  -4  -1  193.63   37.94
  -2  -4  -1  111.63   37.53
  -2  -4  -1  104.86   48.04
   2   4   2   33.58   16.72
  -2  -4  -2   44.30   15.67
  -2  -4  -2   26.57   15.44
  -2  -4  -2   40.02   16.80
  -2  -4  -2   33.96   16.63
  -2  -4  -3  157.91  102.93
   2   4   3  134.84   52.10
  -2  -4  -3  133.83   52.01
  -2  -4  -3  104.65   53.13
  -2  -4  -4  101.49   69.30
   2   4   4   90.82   40.82
   2   4   4   96.89   42.97
  -2  -4  -4   90.90   39.96
  -2  -4  -5    5.52   15.51
   2   4   5    2.79   23.78
   2   4   5    6.24    6.16
  -2  -4  -5    7.29    5.21
   2   4   6   94.00   11.24
  -2  -4  -6   85.83   58.93
   2   4   6   51.77   40.51
  -2  -4  -6    1.96   41.47
   2   4   7   -0.09   41.32
  -2  -4  -7  595.23  145.50
  -2  -5   0   74.66   20.58
   2   5   0   54.82   30.78
  -2  -5   0   83.82   24.73
  -2  -5   0   82.11   30.84
  -2  -5   0   60.39   30.67
   2   5   1  577.55  450.85
  -2  -5  -1  580.01  450.72
  -2  -5  -1  762.75  221.08
  -2  -5  -1  780.96  221.86
  -2  -5  -1  759.99  296.03
  -2  -5  -2   62.30   43.96
  -2  -5  -2   59.31   24.97
  -2  -5  -3  319.53  117.62
  -2  -5  -3  338.15  155.51
   2   5   4  545.93  230.18
  -2  -5  -4  494.80  184.89
  -2  -5  -4  510.81  245.59
   2   5   5    3.01    3.27
  -2  -5  -5    2.32    3.69
  -2  -5  -5   -4.04   22.90
   2   5   6    5.39    2.66
  -2  -5  -6    3.48    4.58
  -2  -5  -6    7.20   27.60
  -2  -6   0 1730.14  638.65
  -2  -6   0 1880.82  859.32
  -2  -6  -1   66.54   19.72
  -2  -6  -1   60.46   43.69
  -2  -6  -2  422.26  298.67
  -2  -6  -2  428.42  148.44
   2   6   3   94.56  101.42
  -2  -6  -3  505.30   86.68
  -2  -6  -3  490.15  108.44
   2   6   4   17.50    9.07
  -2  -6  -4   11.27   22.95
  -2  -6  -4   15.04    8.51
   2   6   5    6.82    3.57
  -2  -6  -5    5.53    5.48
  -2  -6  -5    1.15   25.87
  -2  -7   0   11.01   10.85
  -2  -7   0   27.81   21.26
  -2  -7  -1   97.35   67.78
  -2  -7  -1   87.32   39.81
  -2  -7  -2    6.87   23.57
  -2  -7  -2   -0.20    4.81
   2   7   3  248.57  101.82
  -2  -7  -3    4.64   84.94
  -2  -7  -3  240.73  108.45
   2   7   4  131.85   53.20
  -2  -7  -4   14.38   51.62
  -2  -7  -4  122.36   56.36
  -2  -8   0   41.44   27.51
  -2  -8   0   26.17   22.14
  -2  -8  -1   -1.05   45.51
  -2  -8  -1  208.97   78.35
   2   8   2    0.84    4.50
  -2  -8  -2    6.65   14.46
  -2  -8  -2  103.39   23.45
   2   8   3   58.81   23.84
  -2  -8  -3   44.40   24.74
  -2  -9   0    9.24    7.60
  -2  -9   0    7.01   18.65
  -2  -9  -1   23.92   17.44
   3 -10   0    0.50   12.17
   3 -10   1   52.65   17.44
   3 -10   2   99.20   37.69
   3 -10   3   27.20   17.68
   3 -10   4   43.01   23.08
   3  -9   0  174.54   56.23
   3  -9   0  160.74   69.45
  -3   9   0  128.97   65.51
   3  -9   1  394.15  110.92
   3  -9   1  351.21  147.01
  -3   9  -1  255.51  137.99
   3  -9   2  209.93   27.68
   3  -9   2   85.80   29.64
  -3   9  -2    1.41   28.16
   3  -9   3   -0.64   14.07
   3  -9   4   77.35   32.66
   3  -9   5  122.81   52.12
   3  -8   0   18.79   13.05
   3  -8   0   10.80    9.17
  -3   8   0   12.48    7.35
   3  -8   1    6.99    7.88
   3  -8   1   12.95    5.93
  -3   8  -1    9.01    6.49
   3  -8   2   34.24   12.28
   3  -8   2   12.85    5.17
   3  -8   2    7.74    4.94
  -3   8  -2    6.21    7.06
  -3   8  -2    7.17    6.46
   3  -8   3    3.80    8.66
   3  -8   4  245.96   87.34
   3  -8   5  421.85  147.93
   3  -8   6   13.22   28.12
   3  -7   0  275.63  224.93
   3  -7   0  357.48  147.72
  -3   7   0  389.49  138.62
  -3   7   0  258.92  147.71
   3  -7   1   27.01   10.88
   3  -7   1   31.99    9.43
   3  -7   1   10.29    9.20
  -3   7  -1   22.94    9.29
  -3   7  -1   17.56    9.45
   3  -7   2  720.13  174.11
   3  -7   2  632.35  310.20
  -3   7  -2  703.30  290.62
  -3   7  -2  698.44  310.20
   3  -7   3   13.37    9.39
   3  -7   4  513.34  178.36
   3  -7   5   44.56   25.53
   3  -7   6  340.94  123.09
   3  -7   7   -4.01   15.60
   3  -6   0  236.93   78.06
   3  -6   0  219.24   78.27
   3  -6   0  224.20  103.18
   3  -6   0  219.29  103.17
  -3   6   0  181.30   78.23
  -3   6   0  234.73   96.84
  -3   6   0  216.54  103.19
   3  -6   1  147.97   57.46
   3  -6   1  121.81   57.89
   3  -6   1  172.22   75.73
   3  -6   1  160.85   75.73
  -3   6  -1  133.39   57.94
  -3   6  -1  172.67   71.13
  -3   6  -1  162.18   75.77
   3  -6   2  197.10   33.88
  -3   6  -2    4.37   39.11
   3  -6   3  290.20   88.80
  -3   6  -3  211.78   89.35
   3  -6   4   57.63   24.72
   3  -6   5  188.91   69.46
   3  -6   6   -9.54   27.87
   3  -6   7   18.56   24.42
   3  -5   0 1031.65  287.92
   3  -5   0 1144.90  384.05
   3  -5   0 1150.77  516.35
   3  -5   0 1071.54  516.34
  -3   5   0 1156.52  384.15
  -3   5   0 1134.42  483.61
  -3   5   0 1128.22  516.35
  -3   5  -1   68.48   20.69
   3  -5   1   69.76   25.80
   3  -5   1   57.15   26.37
   3  -5   1   70.30   32.74
   3  -5   1   70.91   32.74
  -3   5  -1   73.85   30.88
  -3   5  -1   70.67   32.75
   3  -5   2  167.91   56.97
  -3   5  -2  152.04   56.73
   3  -5   3  242.80   72.37
  -3   5  -3  166.92   72.63
   3  -5   4   62.42   20.32
  -3   5  -4   24.97   20.02
   3  -5   5   42.72   19.65
   3  -5   6    9.93   18.76
   3  -5   7    0.74   27.91
   3  -4   0  366.86  131.17
   3  -4   0  385.26  131.27
   3  -4   0  381.72  175.58
  -3   4   0  381.01  131.19
  -3   4   0  368.98  164.57
  -3   4   0  388.84  175.57
   3  -4   1 1082.71  369.63
  -3   4  -1 1064.15  369.65
   3  -4   2    5.35    5.68
  -3   4  -2    1.04    7.05
   3  -4   3  219.83   94.99
  -3   4  -3  323.96   95.42
   3  -4   4    6.92   37.33
  -3   4  -4  186.68   39.84
   3  -4   5   -5.72   11.18
   3  -4   6   -6.99   22.14
   3  -4   7   10.34   29.78
   3  -4   8   -0.62   20.52
   3  -3   0  559.22  189.45
   3  -3   0  562.89  189.50
  -3   3   0  579.75  189.43
  -3   3   0  538.26  254.38
  -3   3   0  547.87  254.38
   3  -3   1 3437.65 1014.53
  -3   3  -1 2460.68 1014.41
   3  -3   2   78.21   29.30
  -3   3  -2   84.01   29.01
   3  -3   3   10.37   77.20
  -3   3  -3  404.24   78.23
   3  -3   4    0.46    8.29
  -3   3  -4    5.59    7.68
   3  -3   5   -0.18   11.76
  -3   3  -5    1.41    9.46
   3  -3   6    3.67   14.30
   3  -3   6   29.47   11.41
   3  -3   7   -1.90   17.52
   3  -3   8   24.82   26.94
   3  -2   0 2365.16  739.39
   3  -2   0 2374.88  739.43
   3  -2   0 2371.74  932.61
   3  -2   0 1738.37  995.94
  -3   2   0 2418.03  739.39
  -3   2   0 2340.00  995.93
  -3   2   0 2342.18  995.94
   3  -2   1   75.00   30.20
   3  -2   1   87.55   39.71
  -3   2  -1   94.43   30.21
  -3   2  -1   84.64   39.70
   3  -2   2  120.74  139.76
   3  -2   2  414.81  175.81
   3  -2   2  424.85  187.62
  -3   2  -2  384.80  139.95
  -3   2  -2  400.75  187.64
  -3   2  -2  423.19  187.65
   3  -2   3   46.03   86.26
   3  -2   3  272.78  108.23
   3  -2   3  247.27  115.40
  -3   2  -3  183.14   86.48
  -3   2  -3  265.25  115.41
  -3   2  -3  250.38  115.41
   3  -2   4    5.36   22.97
   3  -2   4   61.95   25.68
   3  -2   4   54.54   27.18
  -3   2  -4   37.76   22.68
  -3   2  -4   57.55   27.15
  -3   2  -4   66.61   27.15
   3  -2   5    0.96    8.97
   3  -2   5    4.14    3.75
  -3   2  -5    7.33   11.52
  -3   2  -5    8.21    3.56
  -3   2  -5    5.59    3.26
   3  -2   6   -3.01   30.41
   3  -2   6   78.78   37.55
  -3   2  -6   91.32   37.46
   3  -2   7   -3.97   25.20
   3  -2   7    3.09    7.04
  -3   2  -7    2.49    3.70
   3  -2   8   -7.71   33.38
   3  -1   0  260.03  193.13
  -3   1   0  268.04  193.14
   3  -1   0  289.13  126.71
  -3   1   0  265.47  126.71
   3  -1   1   25.93    8.57
   3  -1   1   27.29   10.53
   3  -1   1   23.39   10.45
  -3   1  -1   22.10   10.49
  -3   1  -1   19.78   10.44
   3  -1   2  214.85   79.84
   3  -1   2  237.39  106.62
  -3   1  -2  196.41   79.80
  -3   1  -2  239.33  106.63
  -3   1  -2  228.31  106.62
   3  -1   3   42.40   21.62
   3  -1   3   60.59   25.67
   3  -1   3   59.76   27.27
  -3   1  -3   42.22   21.66
  -3   1  -3   57.38   27.24
  -3   1  -3   61.20   27.23
   3  -1   4    1.13    8.57
   3  -1   4   13.03    5.86
   3  -1   4    8.40    5.04
  -3   1  -4    5.95    8.94
  -3   1  -4   13.27    5.27
  -3   1  -4    7.81    4.78
   3  -1   5    7.12    9.84
   3  -1   5   20.78    8.37
   3  -1   5    9.28    6.95
  -3   1  -5   16.34    7.21
  -3   1  -5   10.94    6.69
   3  -1   6   -0.97   29.09
   3  -1   6   84.10   33.93
  -3   1  -6   80.72   35.68
   3  -1   7    4.61   45.90
   3  -1   7  105.47   46.82
  -3   1  -7  115.40   49.43
   3   0   0   23.01   15.35
   3   0   0   23.31    9.96
  -3   0   0   22.57   10.11
  -3   0   0   18.50    9.94
   3   0   1  218.85  171.13
   3   0   1  209.07   83.83
   3   0   1  267.02  112.33
  -3   0  -1  238.66   83.84
  -3   0  -1  255.46  112.33
  -3   0  -1  252.77  112.32
   3   0   2  321.80  111.78
   3   0   2  326.78  149.73
  -3   0  -2  292.83  111.79
  -3   0  -2  311.59  149.73
  -3   0  -2  330.96  149.72
   3   0   3  199.12   43.39
   3   0   3  178.08   55.91
  -3   0  -3  147.15   43.12
  -3   0  -3  176.64   55.88
  -3   0  -3  187.85   55.84
   3   0   4  217.96  162.90
   3   0   4  721.83   83.20
   3   0   4  227.18  100.27
  -3   0  -4  577.06   82.04
  -3   0  -4  201.08  106.86
  -3   0  -4  182.68  106.83
   3   0   5    0.85   20.76
   3   0   5    5.68    5.78
   3   0   5    0.00    3.43
  -3   0  -5    9.56    4.38
  -3   0  -5    1.21    2.65
   3   0   6   15.76   21.36
   3   0   6   51.14   20.70
  -3   0  -6   39.42   20.50
  -3   0  -7   12.21    6.17
   3   0   7    0.90   23.69
   3   0   7   -0.09    6.90
  -3  -1   0  585.07  398.56
   3   1   0  517.71  261.68
   3   1   0  569.97  261.68
  -3  -1   0  502.59  194.58
  -3  -1   0  601.12  194.65
  -3  -1   0  556.52  261.69
   3   1   1  144.53  108.89
  -3  -1  -1  148.66  108.88
   3   1   1  115.08   53.56
   3   1   1  156.80   71.39
  -3  -1  -1  136.35   53.57
  -3  -1  -1  162.72   53.67
  -3  -1  -1  161.72   71.39
  -3  -1  -2  909.70  599.24
   3   1   2  789.32  292.71
   3   1   2  850.82  393.48
  -3  -1  -2  261.00  292.44
  -3  -1  -2  771.89  292.65
  -3  -1  -2  858.41  393.48
  -3  -1  -3   70.64   46.66
   3   1   3   62.37   24.35
   3   1   3   60.85   30.69
  -3  -1  -3   41.10   25.01
  -3  -1  -3   67.74   30.59
   3   1   4   48.26   37.15
  -3  -1  -4   62.87   37.09
   3   1   4   55.10   23.29
  -3  -1  -4   30.41   22.30
  -3  -1  -4   49.09   24.30
  -3  -1  -5  349.23  265.78
   3   1   5  300.51  132.05
   3   1   5  415.67  163.73
  -3  -1  -6  151.23  111.12
   3   1   6  152.85   62.80
   3   1   6  164.39   68.85
   3   1   7   11.57   37.28
   3   1   7    0.00    7.21
  -3  -1  -7    9.69    5.50
   3   2   0   81.17   57.67
   3   2   0   84.27   57.56
  -3  -2   0   82.27   57.67
  -3  -2   0   78.86   57.55
  -3  -2   0   86.24   28.86
  -3  -2   0   72.90   28.84
   3   2   1  570.95  379.49
  -3  -2  -1  533.00  379.46
  -3  -2  -1  526.18  379.37
  -3  -2  -1  545.48  185.55
  -3  -2  -1  546.88  185.55
   3   2   2   36.08   25.18
  -3  -2  -2   39.36   25.15
   3   2   2   34.15   14.53
  -3  -2  -2   33.10   13.95
  -3  -2  -2   32.35   14.76
  -3  -2  -2   33.54   16.43
  -3  -2  -3    8.09    5.92
   3   2   3    7.94    8.78
   3   2   3    5.39    5.20
  -3  -2  -3    0.32   14.02
  -3  -2  -3    7.35   13.71
  -3  -2  -3   10.33    4.60
   3   2   4  107.61   43.25
  -3  -2  -4   84.76   40.31
  -3  -2  -4   33.40   36.70
  -3  -2  -4   94.71   45.93
   3   2   5   10.66   23.84
   3   2   5    7.22    6.04
  -3  -2  -5   25.21   32.04
  -3  -2  -5    5.95    6.59
   3   2   6    3.01    2.97
   3   2   6   -5.10   39.65
  -3  -2  -6    9.28   54.07
  -3  -2  -6    2.82    4.38
   3   2   7    1.39   57.90
  -3  -2  -7   13.45   86.68
  -3  -2  -7  263.36   61.91
   3   3   0  133.85  111.76
  -3  -3   0  167.08  111.65
   3   3   0  155.23   73.28
  -3  -3   0  162.90   55.44
  -3  -3   0  177.07   55.62
  -3  -3   0  159.33   73.34
  -3  -3  -1   22.22   14.81
   3   3   1   18.18    9.89
  -3  -3  -1   26.99   10.15
  -3  -3  -1   30.88   12.79
  -3  -3  -1   18.93    9.64
  -3  -3  -2  122.52   90.83
   3   3   2   99.89   59.68
  -3  -3  -2  167.36   47.34
  -3  -3  -2  139.24   46.64
  -3  -3  -2  153.81   59.73
   3   3   3  355.79   92.12
  -3  -3  -3  363.65   91.88
  -3  -3  -3  234.80   91.56
  -3  -3  -3  229.71  120.07
   3   3   4 1263.69  442.22
   3   3   4 1276.54  555.28
  -3  -3  -4 1420.01  441.98
  -3  -3  -4 1270.67  592.91
   3   3   5   49.56    6.17
  -3  -3  -5   39.47   30.08
   3   3   5   25.58   28.13
  -3  -3  -5   11.08   30.49
   3   3   6   30.00   31.44
   3   3   6    0.08   11.32
  -3  -3  -6   -0.67   34.23
  -3  -3  -6   41.68   11.59
  -3  -4   0  128.43   87.45
   3   4   0  120.38   57.40
   3   4   0  140.90   57.33
  -3  -4   0  100.28   43.93
  -3  -4   0  143.31   44.64
  -3  -4   0  108.69   57.32
   3   4   1  109.99   82.39
  -3  -4  -1  131.70   82.35
  -3  -4  -1  107.48   82.23
  -3  -4  -1  145.45   42.15
  -3  -4  -1  132.26   42.83
  -3  -4  -2   16.30   13.45
  -3  -4  -2   17.50   16.13
  -3  -4  -2   14.91    8.03
  -3  -4  -3  405.58  286.26
   3   4   4    0.64    2.70
  -3  -4  -4    0.68    2.44
  -3  -4  -4   -1.42   21.81
   3   4   5   14.98    3.51
  -3  -4  -5   15.61   10.75
  -3  -4  -5   -6.24   25.45
   3   4   6   -0.37    8.53
  -3  -4  -6   24.30    8.04
  -3  -5   0   12.41    9.77
  -3  -5   0   15.25   10.09
  -3  -5   0   14.31   12.67
  -3  -5  -1  233.26   85.55
  -3  -5  -1  244.58  112.58
  -3  -5  -2   86.26   35.76
  -3  -5  -2   87.52   40.80
  -3  -5  -3  124.27   86.06
  -3  -5  -3  105.63   48.97
   3   5   4   30.40    4.52
  -3  -5  -4    9.59   24.96
  -3  -5  -4   23.41   12.92
   3   5   5    0.73    6.15
  -3  -5  -5    1.71    4.53
  -3  -6   0   -0.65    3.34
  -3  -6   0   -2.25   12.46
  -3  -6  -1  133.77   69.56
  -3  -6  -1  205.44   89.62
  -3  -6  -2  131.64   31.26
  -3  -6  -2   33.13   23.20
   3   6   3    0.13    7.03
  -3  -6  -3   -2.88   27.02
  -3  -6  -3   41.44    7.20
   3   6   4   42.63    5.79
  -3  -6  -4   27.61   25.89
  -3  -7   0   50.34   31.15
  -3  -7   0   77.39   33.81
  -3  -7  -1   68.89   40.02
  -3  -7  -1    5.84   24.21
  -3  -7  -2   84.51   49.70
  -3  -7  -2   -0.13   29.71
   3   7   3   33.41   22.80
  -3  -7  -3   83.23   24.19
  -3  -8   0    6.51   47.76
  -3  -8   0  162.94   59.27
  -3  -8  -1  164.31  116.25
  -3  -8  -2   26.42   19.19
   4 -10   0   65.73   26.82
   4 -10   1    5.74    8.34
   4 -10   2    2.68    9.58
   4 -10   3   -1.23   17.50
   4  -9   0    4.23   11.96
  -4   9   0    2.70    7.71
   4  -9   1   19.34   14.10
   4  -9   2  167.79   60.59
   4  -9   3    0.06   16.41
   4  -9   4    7.92   25.57
   4  -8   0  175.00   54.88
  -4   8   0  139.61   64.08
   4  -8   1   79.83   16.07
   4  -8   1   53.58   21.55
   4  -8   1   36.46   21.50
   4  -8   2    9.08    8.35
   4  -8   3  414.76  144.79
   4  -8   4    9.45   23.81
   4  -8   5  163.04   64.31
   4  -7   0    6.43    9.09
   4  -7   0    1.09    2.39
   4  -7   0    0.31    1.67
  -4   7   0    4.27    6.02
  -4   7   0    0.84    2.63
   4  -7   1  325.84  119.05
   4  -7   1  344.99  158.65
   4  -7   2    3.90   11.31
   4  -7   3   33.74   18.70
   4  -7   4  296.65  106.02
   4  -7   5   -3.65   24.87
   4  -7   6   13.74   35.65
   4  -6   0   92.66   33.10
   4  -6   0   77.50   35.27
   4  -6   0   94.03   42.00
   4  -6   0   95.24   42.01
  -4   6   0   82.88   39.60
  -4   6   0   82.06   42.01
   4  -6   1   -1.33    6.98
   4  -6   1    0.98   11.36
  -4   6  -1    9.36   12.93
   4  -6   2   88.66   20.25
   4  -6   2   21.85   20.89
  -4   6  -2   19.87   20.10
   4  -6   3   12.73   10.51
   4  -6   4  377.85  133.02
   4  -6   5    2.19   26.87
   4  -6   6  -13.73   23.72
   4  -5   0  905.77  317.14
   4  -5   0  956.36  317.38
   4  -5   0  955.06  426.15
   4  -5   0  858.84  426.15
  -4   5   0  967.40  317.37
  -4   5   0  970.01  426.15
  -4   5   0  921.77  426.15
   4  -5   1   15.24    9.82
   4  -5   1    9.96   10.53
  -4   5  -1   14.61    9.74
   4  -5   2  769.61  271.76
  -4   5  -2  808.46  271.93
   4  -5   3   55.22   29.47
  -4   5  -3   98.58   29.85
   4  -5   4    2.83   11.34
   4  -5   5    5.94   18.09
   4  -5   6  -24.74   29.29
   4  -5   7   13.68   36.04
   4  -4   0  370.29  129.45
   4  -4   0  394.97  129.65
   4  -4   0  367.26  173.28
  -4   4   0  396.47  129.62
  -4   4   0  350.43  173.27
  -4   4   0  401.68  173.28
   4  -4   1 1017.24  367.77
   4  -4   1 1105.22  367.90
  -4   4  -1 1090.72  367.78
  -4   4  -2    3.72    9.10
   4  -4   3    1.54  239.93
  -4   4  -3 1328.42  241.68
   4  -4   4    3.87   12.33
  -4   4  -4   38.57   18.05
   4  -4   5    8.10   22.60
   4  -4   6   19.97   30.00
   4  -4   7   -5.53   20.92
   4  -3   0    7.61    5.32
   4  -3   0    8.23    5.50
   4  -3   0    7.39    3.76
   4  -3   0    8.46    3.79
  -4   3   0    7.11    4.01
  -4   3   0    8.71    3.77
   4  -3   1  352.20  126.43
  -4   3  -1  377.89  126.42
   4  -3   2   -0.16    5.25
  -4   3  -2    6.36    8.11
   4  -3   3   -3.24   54.72
  -4   3  -3  295.43   56.85
   4  -3   4    7.00   21.14
  -4   3  -4   34.64   13.67
   4  -3   5    9.97   11.21
   4  -3   7   12.16   30.46
   4  -2   0    2.21   24.57
   4  -2   0   83.46   24.82
   4  -2   0   74.45   32.54
   4  -2   0   73.72   32.54
  -4   2   0   68.11   32.55
  -4   2   0   71.85   32.53
   4  -2   1    4.93    5.07
   4  -2   1    9.30    4.80
   4  -2   1   10.49    4.72
  -4   2  -1   11.46    4.77
  -4   2  -1   10.91    4.80
  -4   2  -1   10.02    4.72
   4  -2   2  139.39  139.59
   4  -2   2  131.13  175.49
   4  -2   2  596.50  187.38
  -4   2  -2  532.38  139.95
  -4   2  -2  570.23  187.37
  -4   2  -2  549.86  187.37
   4  -2   3   47.34  116.04
   4  -2   3  380.81  145.89
   4  -2   3  334.27  155.61
  -4   2  -3  225.10  116.27
  -4   2  -3  384.32  155.62
  -4   2  -3  319.09  155.60
   4  -2   4    2.11   32.86
   4  -2   4   96.09   39.47
   4  -2   4   98.92   41.99
  -4   2  -4   25.97   32.54
  -4   2  -4  105.39   41.89
  -4   2  -4   89.86   41.87
   4  -2   5   -3.18  125.32
   4  -2   5  336.53  157.55
   4  -2   5  354.37  167.98
  -4   2  -5  450.66  167.96
  -4   2  -5  342.24  167.92
   4  -2   6    5.43   13.63
   4  -2   6    4.56    3.75
  -4   2  -6    2.44    2.69
   4  -2   7  -11.56   38.87
   4  -1   0  813.35  365.40
   4  -1   0  799.00  365.40
  -4   1   0  755.13  365.40
  -4   1   0  782.10  365.40
  -4   1  -1  284.00  207.76
   4  -1   1  317.29  136.34
   4  -1   1  300.12  136.32
  -4   1  -1  284.35  136.32
   4  -1   2  296.01   93.56
   4  -1   2  268.38  124.85
  -4   1  -2  200.80   93.40
  -4   1  -2  266.52  124.84
  -4   1  -2  276.51  124.84
   4  -1   3  142.06   48.38
   4  -1   3  138.02   58.70
   4  -1   3  136.17   62.57
  -4   1  -3   63.79   47.67
  -4   1  -3  142.35   62.54
  -4   1  -3  134.58   62.52
   4  -1   4  916.51  310.59
   4  -1   4 1052.12  389.97
   4  -1   4  835.75  416.23
  -4   1  -4  955.89  416.22
  -4   1  -4  803.03  416.19
   4  -1   5  295.84  125.12
   4  -1   5  377.00  152.34
  -4   1  -5  332.39  162.27
   4  -1   6    2.96   18.18
   4  -1   6   19.86   10.86
  -4   1  -6   18.52    9.49
   4   0   0  719.27  476.84
   4   0   0  673.05  476.74
  -4   0   0  675.82  313.03
  -4   0   0  662.89  313.01
   4   0   1   27.41   21.30
   4   0   1   28.79   13.87
  -4   0  -1   28.65   13.99
  -4   0  -1   32.14   13.91
   4   0   2  388.25  182.91
  -4   0  -2  374.33  136.45
  -4   0  -2  392.90  182.89
  -4   0  -2  400.31  182.87
   4   0   3  413.08  263.46
  -4   0  -3  415.82  263.39
   4   0   3  388.81  129.74
  -4   0  -3  220.44  129.23
  -4   0  -3  352.88  172.86
   4   0   4 1166.84  493.21
   4   0   4 1114.32  526.58
  -4   0  -4 2065.47  392.67
  -4   0  -4 1131.33  526.54
  -4   0  -4  730.39  526.48
   4   0   5   12.65    7.04
  -4   0  -5    9.88    6.84
   4   0   6    0.28    7.63
  -4   0  -6   15.32    5.80
  -4  -1   0  117.99   78.36
   4   1   0  105.74   51.42
  -4  -1   0  106.56   51.48
   4   1   1  117.82   89.46
   4   1   1  127.63   58.62
  -4  -1  -1  139.24   44.33
  -4  -1  -1  116.45   44.38
  -4  -1  -1  133.68   58.67
  -4  -1  -1  125.04   58.63
   4   1   2  443.85  299.27
  -4  -1  -2  444.65  299.22
   4   1   2  370.18  146.72
  -4  -1  -2  441.00  146.70
  -4  -1  -2  355.39  146.66
  -4  -1  -2  416.53  196.40
  -4  -1  -3   96.32   53.45
   4   1   3   31.43   27.78
   4   1   3   64.08   35.17
  -4  -1  -3   45.47   31.23
  -4  -1  -3   74.84   35.01
  -4  -1  -4  204.25  141.33
   4   1   4  132.70   72.74
   4   1   4  224.25   87.11
  -4  -1  -4   99.95   72.88
  -4  -1  -4   46.51   70.88
   4   1   5   37.75    5.28
   4   1   5    4.95   34.48
  -4  -1  -5   -0.47   31.59
  -4  -1  -5   36.43   16.60
  -4  -1  -6   -0.83    3.37
   4   1   6  -13.42   47.63
   4   1   6    0.56    6.57
  -4  -1  -6   29.79   80.42
  -4  -2   0   20.06   14.49
   4   2   0   20.50    9.70
   4   2   0   17.76    9.43
  -4  -2   0   23.68    9.87
  -4  -2   0   23.79   11.53
  -4  -2   0   21.09    9.49
   4   2   1  161.69  107.76
  -4  -2  -1  140.09  107.62
  -4  -2  -1  169.79   53.66
  -4  -2  -1  178.98   54.59
  -4  -2  -1  162.00   70.71
  -4  -2  -2  199.71  113.91
   4   2   2  160.32   74.81
  -4  -2  -2  161.90   56.82
  -4  -2  -2  128.16   57.15
  -4  -2  -2  146.64   74.69
  -4  -2  -3  124.79   41.63
  -4  -2  -3   33.95   40.08
  -4  -2  -3  120.22   51.32
   4   2   4   11.76    3.12
  -4  -2  -4   11.22    9.10
   4   2   4   23.67   21.59
  -4  -2  -4   12.73   20.41
   4   2   5   25.38   32.58
   4   2   5   46.32   18.27
  -4  -2  -5   -6.59   37.18
  -4  -2  -5   38.10   19.19
   4   2   6   -2.54    6.16
  -4  -2  -6    1.17    4.75
   4   3   0  424.19  325.29
   4   3   0  493.51  325.18
  -4  -3   0  447.94  325.27
  -4  -3   0  437.79  325.17
  -4  -3   0  488.30  159.44
  -4  -3   0  571.18  159.92
  -4  -3  -1  183.66  108.79
  -4  -3  -1  144.96  108.65
   4   3   1  127.82   71.38
  -4  -3  -1  192.16   54.64
  -4  -3  -1  168.28   55.05
  -4  -3  -2  183.59   69.70
  -4  -3  -2  118.76   69.05
  -4  -3  -2  211.39   90.34
  -4  -3  -3  158.24   52.25
  -4  -3  -3  135.21   64.47
   4   3   4   76.09   31.38
  -4  -3  -4   25.22   32.63
  -4  -3  -4   67.10   32.95
   4   3   5    1.29    5.93
  -4  -3  -5    1.53   29.41
  -4  -3  -5    6.99    6.71
  -4  -4   0  132.78   90.70
  -4  -4   0  118.75   46.08
  -4  -4   0  114.82   48.42
  -4  -4  -1  138.82   57.35
  -4  -4  -1   65.70   56.15
  -4  -4  -1  180.98   73.85
  -4  -4  -2  145.06   96.57
  -4  -4  -2   91.85   51.24
  -4  -4  -3   80.94   50.85
  -4  -4  -3   18.77   32.47
   4   4   4   37.67   16.71
  -4  -4  -4   32.79   17.05
   4   4   5   -1.99    6.21
  -4  -4  -5   -5.77    7.21
  -4  -5   0  130.14   50.61
  -4  -5   0  140.49   64.35
  -4  -5  -1   62.26   44.29
  -4  -5  -2   16.34   11.23
  -4  -5  -2    6.33   17.34
  -4  -5  -3   -7.90   28.23
  -4  -5  -3    6.75    4.81
  -4  -5  -4    2.63    3.22
   4   5   4    2.17    4.29
  -4  -6   0   -9.25   16.75
  -4  -6   0    4.18    4.38
  -4  -6  -1   32.58   17.16
  -4  -6  -1  -12.04   18.37
  -4  -6  -2  148.09   85.04
  -4  -6  -2    5.11   44.81
   4   6   3    0.84    2.48
  -4  -6  -3   39.52   10.20
  -4  -7   0   -1.82   22.02
  -4  -7   0   39.32   15.08
  -4  -7  -1   52.98   25.23
  -4  -7  -2    0.44    5.09
  -4  -8   0  227.50  160.83
   5 -10   0  164.35   61.10
   5 -10   1   72.61   29.72
   5  -9   0   14.18   19.16
   5  -9   1   12.53   13.98
   5  -9   2   20.23   12.48
   5  -9   3   22.80   21.81
   5  -8   0  107.30   18.68
  -5   8   0   10.39   16.57
   5  -8   1  257.46   90.61
   5  -8   2    9.68   15.06
   5  -8   3   28.23   25.38
   5  -8   4   13.68   29.58
   5  -7   0 1059.29  121.95
   5  -7   0  363.73  159.91
   5  -7   0  264.38  159.90
  -5   7   0  306.11  159.93
  -5   7   0  346.55  159.94
   5  -7   1    0.00   14.13
   5  -7   2  114.60   42.81
   5  -7   3    8.09   22.08
   5  -7   4   41.50   30.28
   5  -7   5   -9.94   36.08
   5  -6   0    5.73    7.78
   5  -6   0    0.94   12.31
   5  -6   0    2.92    1.53
  -5   6   0    1.80    2.33
  -5   6   0    0.56    2.27
   5  -6   1  736.95  249.61
   5  -6   1  712.04  250.29
  -5   6  -1  709.03  250.37
   5  -6   2  768.12  265.27
   5  -6   3   -3.14   14.47
   5  -6   4   18.27   28.07
   5  -6   5   -5.57   23.99
   5  -5   0    6.91    6.13
   5  -5   0   -1.84   11.85
   5  -5   0    0.86    1.00
   5  -5   0    0.01    0.91
  -5   5   0   -0.71    1.82
   5  -5   1  230.72   90.79
   5  -5   1  243.94   91.73
  -5   5  -1  318.33   91.96
   5  -5   2    7.61   10.27
   5  -5   2   19.07   14.44
  -5   5  -2   10.31   10.92
   5  -5   3    5.65   11.18
   5  -5   5    7.00   33.97
   5  -4   0    7.89    6.49
   5  -4   0    7.46    3.72
  -5   4   0    9.87    4.16
  -5   4   0    6.49    3.77
   5  -4   1   -2.41   18.49
   5  -4   1   80.40   20.03
  -5   4  -1   84.38   22.17
   5  -4   2   -2.57   10.36
   5  -4   2   31.43   12.25
   5  -4   4    8.94   25.25
   5  -4   6   -0.22   33.47
   5  -3   0    1.49  121.95
   5  -3   0  380.59  122.37
   5  -3   0  336.47  153.56
   5  -3   0  394.44  163.83
  -5   3   0  353.34  163.83
  -5   3   0  360.50  163.83
   5  -3   1 1268.23  127.67
   5  -3   1  285.68  158.68
  -5   3  -1 1195.06  127.60
  -5   3  -1  273.77  169.31
   5  -3   2   -0.05   19.70
  -5   3  -2  102.20   20.97
   5  -3   3   -5.43    8.46
   5  -3   4    7.45   12.27
   5  -3   5    4.88   11.93
   5  -2   0  361.48  176.63
   5  -2   0  383.35  176.62
  -5   2   0  386.63  176.64
  -5   2   0  386.65  176.63
   5  -2   1  374.67  172.56
   5  -2   1  361.69  172.54
  -5   2  -1  393.83  172.56
   5  -2   2   78.01   53.78
   5  -2   2  173.17   71.41
  -5   2  -2  100.49   53.98
  -5   2  -2  186.31   71.39
  -5   2  -2  142.49   71.35
   5  -2   3  190.23   67.76
   5  -2   3  161.90   72.12
  -5   2  -3  158.08   72.10
  -5   2  -3  130.57   72.06
   5  -2   4    8.21   21.98
   5  -2   4    0.67    3.64
   5  -2   4   -3.28    3.55
  -5   2  -4    7.20   13.24
  -5   2  -4    0.56    2.27
  -5   2  -4   -0.31    1.93
   5  -2   5   11.15   29.62
  -5   2  -5   16.67    7.90
   5  -1   0    7.50    5.55
   5  -1   0    8.94    5.33
  -5   1   0    5.68    4.03
  -5   1   0    6.24    3.64
   5  -1   1  450.81  207.47
   5  -1   1  451.72  207.44
  -5   1  -1  423.87  207.45
  -5   1  -1  454.26  207.44
   5  -1   2  730.86  354.49
  -5   1  -2  890.30  354.53
  -5   1  -2  718.76  354.46
   5  -1   3    9.73   14.19
   5  -1   3   16.18    7.87
   5  -1   3   14.08    8.34
  -5   1  -3    5.41    9.94
  -5   1  -3   24.46    8.24
  -5   1  -3   15.19    7.91
   5  -1   4    6.67    5.97
  -5   1  -4    1.45   13.19
  -5   1  -4    5.73    4.67
   5  -1   5   19.90   38.32
   5  -1   5   22.41   12.37
  -5   1  -5   18.79   10.35
   5   0   0  117.93   57.61
   5   0   0  128.47   57.56
  -5   0   0  136.43   57.64
  -5   0   0  117.69   57.58
   5   0   1   16.28   11.96
   5   0   1   19.51    7.73
  -5   0  -1   15.28    7.98
  -5   0  -1   13.74    7.74
   5   0   2    7.58    5.63
  -5   0  -2    8.30    6.44
  -5   0  -2    5.44    3.81
  -5   0  -3  338.65  162.19
   5   0   3  160.11   80.63
   5   0   3  206.92  106.47
  -5   0  -3   99.87   80.28
  -5   0  -3   57.35   79.88
  -5   0  -3  220.58  106.39
   5   0   4  125.82   23.83
   5   0   4   43.93   22.50
  -5   0  -4   53.73   29.82
  -5   0  -4   49.81   23.73
   5   0   5   15.03   31.10
   5   0   5   -2.35    9.20
  -5   0  -5    8.16   43.07
  -5   0  -5   20.84    7.57
   5   1   0  122.43   83.80
   5   1   0  116.42   83.66
  -5  -1   0  122.80   55.00
  -5  -1   0  117.14   54.92
   5   1   1   18.99   12.62
  -5  -1  -1   16.26   12.43
  -5  -1  -1   16.70    8.22
   5   1   2  102.85   56.52
  -5  -1  -2  161.53   56.50
  -5  -1  -2  111.23   56.41
  -5  -1  -3    1.89   14.72
  -5  -1  -3   15.01   13.84
  -5  -1  -3   32.98   13.11
   5   1   4  107.42   41.35
  -5  -1  -4   33.20   39.31
  -5  -1  -4   81.50   43.51
   5   1   5   -0.09    3.07
  -5  -1  -5   25.15    8.05
  -5  -2   0  317.02  200.48
   5   2   0  253.28  131.59
   5   2   0  315.43  131.55
  -5  -2   0  249.57   98.35
  -5  -2   0  254.91  131.54
   5   2   1  248.95  130.42
  -5  -2  -1  200.30   97.48
  -5  -2  -1  240.71   97.82
  -5  -2  -1  401.95  130.43
  -5  -2  -1  249.91  130.29
  -5  -2  -2   23.64   14.27
  -5  -2  -2   11.58   12.14
  -5  -2  -2    4.72   14.44
  -5  -2  -3    5.52   27.04
  -5  -2  -3   72.31   29.51
   5   2   4   -0.04    3.61
  -5  -2  -4    6.92   22.14
  -5  -2  -4   46.91    9.28
  -5  -2  -5    3.45    6.06
   5   2   5    3.60    6.93
   5   3   0  136.73   99.88
  -5  -3   0  131.19   50.12
  -5  -3   0  155.52   50.83
  -5  -3   0  150.08   65.65
  -5  -3  -1  435.80  215.80
  -5  -3  -1  521.55  216.58
  -5  -3  -1  686.23  289.54
  -5  -3  -2  131.48   93.04
  -5  -3  -3   45.84   29.74
  -5  -3  -3   16.21   30.51
   5   3   4   -0.29    3.56
  -5  -3  -4    0.19    2.64
  -5  -4   0 1007.31  680.77
  -5  -4   0  789.59  332.64
  -5  -4  -1    2.42    3.69
  -5  -4  -1   -6.13   17.20
  -5  -4  -2   11.47    7.34
  -5  -4  -3  206.42   95.99
  -5  -4  -4    9.54    4.58
   5   4   4    1.16    7.07
  -5  -5   0    2.57   16.78
  -5  -5   0   12.12    6.50
  -5  -5  -1   73.25   42.62
  -5  -5  -1   11.34   28.60
  -5  -5  -2   50.97   24.35
   5   5   3    1.63    2.92
  -5  -5  -3    3.68    4.55
  -5  -6   0   50.56   30.19
  -5  -6   0    8.05   25.24
  -5  -6  -1   28.00   14.12
  -5  -6  -2   79.65   37.48
  -5  -7   0    1.26    4.30
   6  -9   0   -7.45   13.54
   6  -9   1    3.42   16.26
   6  -9   2   -2.98   20.14
   6  -8   0  122.76   46.39
   6  -8   1    8.36   18.67
   6  -8   2  186.73   68.74
   6  -8   3   26.62   33.29
   6  -7   0   24.40   16.48
   6  -7   1  195.70   70.00
   6  -7   2    5.56   17.73
   6  -7   3    5.01   26.43
   6  -6   0   35.40   18.62
   6  -6   1  112.50   41.76
   6  -6   2   -3.36   18.13
   6  -6   3   -7.56   14.64
   6  -6   4  -11.72   38.20
   6  -5   0  152.25   80.86
   6  -5   0  346.89   81.54
   6  -5   1    0.49   11.94
   6  -5   2   -1.71   10.45
   6  -5   3   11.80   13.00
   6  -5   4   12.65   30.08
   6  -4   0    0.22   14.84
   6  -4   0   53.39   17.88
   6  -4   0   42.34   17.79
  -6   4   0   40.68   17.88
  -6   4   0   34.23   17.78
   6  -4   1   -5.65    7.29
   6  -4   1    3.88   11.40
   6  -4   2    5.49   12.01
   6  -4   2    0.71   14.29
  -6   4  -2    4.34   19.26
   6  -4   3  -11.09   11.07
   6  -4   4   -0.84   19.54
   6  -3   0    1.75    2.61
   6  -3   0    2.99    2.11
  -6   3   0   -0.09    2.66
  -6   3   0    0.99    1.62
   6  -3   1   65.09   25.82
  -6   3  -1   53.22   27.16
   6  -3   4   -3.25   18.89
   6  -2   0   63.96   40.72
   6  -2   0  104.98   40.72
  -6   2   0   91.99   40.82
  -6   2   0   78.06   40.69
   6  -2   1  306.84  140.88
  -6   2  -1  269.28  140.85
  -6   2  -1  321.21  140.85
   6  -2   2  166.66   79.15
  -6   2  -2  212.67   79.17
  -6   2  -2  149.48   79.09
   6  -2   3  427.24  157.98
   6  -2   3  336.33  168.44
  -6   2  -3  363.07  168.40
  -6   2  -3  334.60  168.37
   6  -2   4   -1.20    3.65
  -6   2  -4   -1.02    2.49
   6  -1   0   94.00   53.08
   6  -1   0  128.62   53.04
  -6   1   0  116.61   53.11
  -6   1   0  107.63   53.05
   6  -1   1    5.82    4.01
  -6   1  -1    4.70    3.90
  -6   1  -1    7.68    3.58
   6  -1   2    1.99    3.58
  -6   1  -2    1.69    5.15
  -6   1  -2    0.85    2.22
   6  -1   3   29.82   13.21
  -6   1  -3   26.95   13.83
   6  -1   4    6.91    6.89
  -6   1  -4    7.04    6.79
  -6   0   0  131.01   84.96
  -6   0   0  109.81   84.83
   6   0   0  105.42   55.78
   6   0   0  130.96   55.68
   6   0   1   49.28   22.55
  -6   0  -1   58.29   22.47
  -6   0  -1   42.19   22.32
  -6   0  -2    9.88    9.02
  -6   0  -3  182.71   39.72
   6   0   3   -0.27   24.20
   6   0   4    1.24   21.12
  -6   0  -4   90.29   23.00
   6   1   0  247.67  180.59
  -6  -1   0  158.23  180.42
   6   1   0  333.47  118.49
  -6  -1   0  302.68  118.56
  -6  -1  -1  534.60  377.21
  -6  -1  -2 1524.41  706.04
  -6  -1  -3    8.92    6.30
  -6  -1  -4  309.57  100.85
   6   1   4   -0.07   61.88
   6   2   0  286.96  132.63
  -6  -2   0  284.59  132.70
  -6  -2  -1  415.45  192.53
  -6  -2  -2   31.96   16.75
  -6  -2  -3   25.63   13.89
   6   2   4    1.55    9.01
  -6  -2  -4   28.36    8.89
  -6  -3   0    3.36    4.81
  -6  -3  -1  183.35   85.15
  -6  -3  -2   87.23   41.26
  -6  -3  -3   43.82   21.29
  -6  -4   0  103.49   73.33
  -6  -4  -1   -0.87    3.79
  -6  -4  -2   95.01   67.59
  -6  -5   0   34.55   24.90
  -6  -5  -1    8.20    6.52
  -6  -6   0   83.00   38.96
   7  -8   0   -3.57   19.00
   7  -7   0   71.68   30.34
   7  -7   1    7.70   16.00
   7  -6   0    4.80   15.62
   7  -6   1   -1.21   18.76
   7  -6   2   12.72   33.41
   7  -5   0   36.23   18.71
   7  -5   1    0.41   12.15
   7  -5   2   16.64   19.12
   7  -4   0    7.81    3.96
  -7   4   0    9.17    3.98
  -7   4   0    5.36    3.86
   7  -3   0   12.21    7.58
   7  -3   0   14.71    7.22
  -7   3   0   24.09    7.83
  -7   3   0   12.70    7.52
   7  -3   1  150.18   68.91
  -7   3  -1  225.87   73.30
  -7   3  -1  115.08   73.19
   7  -2   0  124.03   81.25
   7  -2   0  200.82   81.26
  -7   2   0  231.90   81.40
  -7   2   0  142.10   81.24
  -7   2  -1  303.39  140.64
   7  -2   2   -0.85    3.32
  -7   1   0   18.25   14.42
   7  -1   0   20.15    9.35
  -7   1  -1  159.97  113.07
  -7   1  -2  211.41   98.17
   7  -1   3   21.72   12.24
  -7   1  -3   26.51   12.75
   7   0   0  126.10   88.05
  -7   0   0  121.61   57.98
  -7   0  -1  123.35   87.27
  -7   0  -2  271.22  125.96
   7   0   3    2.69   20.96
  -7   0  -3  126.22   23.19
   7   1   0   31.38   23.27
  -7  -1   0   35.15   16.67
  -7  -1  -1   10.57    6.75
  -7  -1  -2   16.14   10.68
   7   1   3    1.99    6.59
  -7  -1  -3   -0.69    4.28
  -7  -2   0    8.07    6.84
  -7  -2  -1  117.44   55.07
  -7  -2  -2   49.02   35.47
  -7  -3   0    5.58    5.31
  -7  -3  -1   25.61   19.46
  -7  -3  -2   45.06   32.80
  -7  -4   0   52.01   24.70
  -7  -4  -1   85.72   61.09
  -8   3   0    3.83    3.68
   8  -2   0  120.53   57.64
  -8   2   0  131.16   57.82
  -8   2  -1   45.44   22.18
  -8   1   0  161.40  119.59
   8  -1   0  173.14   78.47
  -8   1  -1   30.52   16.83
  -8   0   0    1.42    6.09
  -8   0  -1  334.83  155.51
  -8  -1   0  119.28   84.49
  -8  -1  -1    3.98    9.16
  -8  -2   0    9.55    6.55
  -8  -3   0    5.39    5.66
  -9   1   0   46.23   22.54
   0   0   0    0.00    0.00
_computing_structure_solution     'SHELXT 2014/5 (Sheldrick, 2014)'
;
_shelx_hkl_checksum              21171
_shelx_res_file
;
TITL IIa in P-1
CELL 0.96990  8.4700  8.5100  8.5900  94.044 111.12 105.168
ZERR    2.00  0.0017  0.0017  0.0017   0.030   0.030  0.030
LATT 1
SFAC C H N O
DISP C 0.007 0.003 25.571
DISP H -0 0 0.636
DISP N 0.013 0.007 47.42
DISP O 0.021 0.012 81.964
UNIT 24 26 2 8
TEMP -173.0
SIZE 0.10 0.10 0.15
L.S. 12
BOND $H
ACTA
CONF
WGHT    0.060000
EXTI    0.138004
FVAR       1.48442
C1    1    0.177947    0.006790    0.226415    11.00000    0.03519    0.02444 =
         0.02940   -0.00319    0.01316   -0.00160
AFIX  23
H1A   2    0.073322   -0.033081    0.117112    11.00000   -1.20000
H1B   2    0.253085   -0.066827    0.237410    11.00000   -1.20000
AFIX   0
C2    1    0.121503    0.016883    0.376487    11.00000    0.03643    0.02542 =
         0.03114    0.00301    0.01578   -0.00031
AFIX  23
H2A   2    0.089973   -0.093210    0.408108    11.00000   -1.20000
H2B   2    0.018082    0.059164    0.348647    11.00000   -1.20000
AFIX   0
C3    1    0.287411    0.139203    0.522246    11.00000    0.03650    0.02338 =
         0.02900    0.00190    0.02007    0.00353
AFIX  23
H3A   2    0.252900    0.208946    0.593438    11.00000   -1.20000
H3B   2    0.362825    0.079734    0.594907    11.00000   -1.20000
AFIX   0
N4    3    0.378792    0.238642    0.428477    11.00000    0.03081    0.02143 =
         0.02461   -0.00139    0.01521    0.00116
C5    1    0.553147    0.319895    0.483232    11.00000    0.03165    0.01585 =
         0.02630   -0.00277    0.01312    0.00452
O5    4    0.659825    0.352986    0.635125    11.00000    0.03640    0.02812 =
         0.02052   -0.00332    0.01301    0.00166
C5A   1    0.595008    0.361901    0.329705    11.00000    0.02839    0.01772 =
         0.02271   -0.00052    0.01305    0.00224
AFIX  13
H5A   2    0.594915    0.476918    0.312662    11.00000   -1.20000
AFIX   0
C6    1    0.757439    0.324149    0.314180    11.00000    0.03548    0.01641 =
         0.02321    0.00049    0.01654    0.00427
AFIX  13
H6    2    0.814986    0.275414    0.414035    11.00000   -1.20000
AFIX   0
C7    1    0.659272    0.181801    0.150335    11.00000    0.03350    0.01922 =
         0.02773   -0.00476    0.01690   -0.00037
AFIX  13
H7    2    0.733772    0.113821    0.133281    11.00000   -1.20000
AFIX   0
C8    1    0.572183    0.254789   -0.002663    11.00000    0.03726    0.01989 =
         0.02094   -0.00263    0.01576    0.00254
AFIX  43
H8    2    0.610754    0.277460   -0.092070    11.00000   -1.20000
AFIX   0
C9    1    0.429159    0.280468    0.015239    11.00000    0.03676    0.02105 =
         0.02287   -0.00006    0.01178    0.00288
AFIX  43
H9    2    0.343116    0.322264   -0.059789    11.00000   -1.20000
AFIX   0
C9A   1    0.435836    0.227631    0.182553    11.00000    0.03439    0.01681 =
         0.02387   -0.00001    0.01284    0.00426
C9B   1    0.284023    0.187454    0.241421    11.00000    0.03268    0.02135 =
         0.02400   -0.00213    0.01340    0.00325
AFIX  13
H9B   2    0.202204    0.254140    0.194969    11.00000   -1.20000
AFIX   0
O10   4    0.511456    0.093412    0.185438    11.00000    0.03367    0.01635 =
         0.02767   -0.00086    0.01653    0.00332
C11   1    0.896690    0.465699    0.298996    11.00000    0.03164    0.02266 =
         0.02044   -0.00448    0.01261    0.00242
O11   4    0.884157    0.602811    0.278541    11.00000    0.03754    0.02285 =
         0.03903    0.00311    0.01702    0.00418
O12   4    1.040708    0.422329    0.311238    11.00000    0.03088    0.02321 =
         0.04034    0.00152    0.01891    0.00404
AFIX   3
H12   2    1.135518    0.509268    0.316288    11.00000   -1.50000
AFIX   0
HKLF 4
REM IIa in P-1
REM R1 =  0.0988 for    1402 Fo > 4sig(Fo)  and  0.1278 for all    2104 data
REM    155 parameters refined using      0 restraints
END
WGHT      0.0000      0.0000
REM Highest difference peak  0.454,  deepest hole -0.359,  1-sigma level  0.086
Q1    1   0.3994  0.1189 -0.0867  11.00000  0.05    0.32
Q2    1   0.5512  0.0930  0.3416  11.00000  0.05    0.31
Q3    1   0.5263  0.3206  0.2864  11.00000  0.05    0.31
Q4    1   0.4695  0.0244  0.0640  11.00000  0.05    0.28
Q5    1   0.4806  0.0802  0.0146  11.00000  0.05    0.27
Q6    1   0.3555 -0.0580  0.1145  11.00000  0.05    0.26
Q7    1   0.6154  0.2679  0.7188  11.00000  0.05    0.26
Q8    1   0.6241  0.6202  0.3539  11.00000  0.05    0.26
Q9    1   0.1014 -0.1010  0.1161  11.00000  0.05    0.26
Q10   1   0.4758  0.1811  0.4011  11.00000  0.05    0.26
Q11   1   0.3986  0.4803  0.1910  11.00000  0.05    0.25
Q12   1   0.4062  0.3941  0.4672  11.00000  0.05    0.25
Q13   1   0.7326  0.3341  0.1523  11.00000  0.05    0.25
Q14   1   0.5593  0.1425  0.1128  11.00000  0.05    0.24
Q15   1   0.5633  0.4848  0.5823  11.00000  0.05    0.24
Q16   1   0.8934  0.3251  0.1868  11.00000  0.05    0.23
Q17   1   0.7630  0.3803  0.0394  11.00000  0.05    0.23
Q18   1   0.3718  0.3338  0.3882  11.00000  0.05    0.22
Q19   1   0.3462  0.4669 -0.1356  11.00000  0.05    0.22
Q20   1   0.3740 -0.0018  0.3554  11.00000  0.05    0.21
;
_shelx_res_checksum              93228
_shelxl_version_number           2014/6
loop_
_space_group_symop_operation_xyz
'x, y, z'
'-x, -y, -z'
loop_
_atom_site_type_symbol
_atom_site_label
_atom_site_fract_x
_atom_site_fract_y
_atom_site_fract_z
_atom_site_U_iso_or_equiv
_atom_site_adp_type
_atom_site_calc_flag
_atom_site_occupancy
C C1 0.1779(3) 0.0068(2) 0.2264(2) 0.0322(5) Uani d 1
H H1A 0.0733 -0.0331 0.1171 0.039 Uiso calc 1
H H1B 0.2531 -0.0668 0.2374 0.039 Uiso calc 1
C C2 0.1215(3) 0.0169(2) 0.3765(2) 0.0324(5) Uani d 1
H H2A 0.0900 -0.0932 0.4081 0.039 Uiso calc 1
H H2B 0.0181 0.0592 0.3486 0.039 Uiso calc 1
C C3 0.2874(2) 0.1392(2) 0.5222(2) 0.0288(5) Uani d 1
H H3A 0.2529 0.2089 0.5934 0.035 Uiso calc 1
H H3B 0.3628 0.0797 0.5949 0.035 Uiso calc 1
N N4 0.37879(19) 0.23864(17) 0.42848(16) 0.0261(4) Uani d 1
C C5 0.5531(2) 0.3199(2) 0.4832(2) 0.0250(4) Uani d 1
O O5 0.65982(17) 0.35299(15) 0.63512(13) 0.0299(3) Uani d 1
C C5A 0.5950(2) 0.3619(2) 0.3297(2) 0.0233(4) Uani d 1
H H5A 0.5949 0.4769 0.3127 0.028 Uiso calc 1
C C6 0.7574(2) 0.32415(19) 0.3142(2) 0.0245(4) Uani d 1
H H6 0.8150 0.2754 0.4140 0.029 Uiso calc 1
C C7 0.6593(3) 0.1818(2) 0.1503(2) 0.0276(5) Uani d 1
H H7 0.7338 0.1138 0.1333 0.033 Uiso calc 1
C C8 0.5722(2) 0.2548(2) -0.0027(2) 0.0264(5) Uani d 1
H H8 0.6108 0.2775 -0.0921 0.032 Uiso calc 1
C C9 0.4292(3) 0.2805(2) 0.0152(2) 0.0284(5) Uani d 1
H H9 0.3431 0.3223 -0.0598 0.034 Uiso calc 1
C C9A 0.4358(2) 0.2276(2) 0.1826(2) 0.0256(5) Uani d 1
C C9B 0.2840(2) 0.1875(2) 0.24142(19) 0.0267(5) Uani d 1
H H9B 0.2022 0.2541 0.1950 0.032 Uiso calc 1
O O10 0.51146(16) 0.09341(13) 0.18544(14) 0.0258(3) Uani d 1
C C11 0.8967(2) 0.4657(2) 0.2990(2) 0.0259(5) Uani d 1
O O11 0.88416(17) 0.60281(15) 0.27854(15) 0.0338(4) Uani d 1
O O12 1.04071(16) 0.42233(14) 0.31124(15) 0.0312(4) Uani d 1
H H12 1.1355 0.5093 0.3163 0.047 Uiso d 1
loop_
_atom_site_aniso_label
_atom_site_aniso_U_11
_atom_site_aniso_U_22
_atom_site_aniso_U_33
_atom_site_aniso_U_12
_atom_site_aniso_U_13
_atom_site_aniso_U_23
C1 0.0352(10) 0.0244(9) 0.0294(8) -0.0016(8) 0.0132(7) -0.0032(7)
C2 0.0364(10) 0.0254(9) 0.0311(8) -0.0003(8) 0.0158(7) 0.0030(7)
C3 0.0365(9) 0.0234(9) 0.0290(8) 0.0035(8) 0.0201(6) 0.0019(7)
N4 0.0308(8) 0.0214(7) 0.0246(6) 0.0012(6) 0.0152(5) -0.0014(5)
C5 0.0316(9) 0.0159(7) 0.0263(8) 0.0045(7) 0.0131(6) -0.0028(6)
O5 0.0364(7) 0.0281(6) 0.0205(5) 0.0017(5) 0.0130(4) -0.0033(5)
C5A 0.0284(9) 0.0177(8) 0.0227(7) 0.0022(7) 0.0131(6) -0.0005(6)
C6 0.0355(9) 0.0164(8) 0.0232(7) 0.0043(7) 0.0165(6) 0.0005(6)
C7 0.0335(9) 0.0192(8) 0.0277(8) -0.0004(7) 0.0169(6) -0.0048(6)
C8 0.0373(10) 0.0199(8) 0.0209(7) 0.0025(7) 0.0158(6) -0.0026(6)
C9 0.0368(10) 0.0211(8) 0.0229(8) 0.0029(8) 0.0118(7) -0.0001(6)
C9A 0.0344(9) 0.0168(8) 0.0239(7) 0.0043(7) 0.0128(6) 0.0000(6)
C9B 0.0327(9) 0.0214(8) 0.0240(8) 0.0032(7) 0.0134(6) -0.0021(6)
O10 0.0337(6) 0.0164(5) 0.0277(5) 0.0033(5) 0.0165(4) -0.0009(4)
C11 0.0316(9) 0.0227(9) 0.0204(7) 0.0024(7) 0.0126(6) -0.0045(6)
O11 0.0375(7) 0.0228(6) 0.0390(6) 0.0042(6) 0.0170(5) 0.0031(5)
O12 0.0309(7) 0.0232(6) 0.0403(6) 0.0040(5) 0.0189(5) 0.0015(5)
loop_
_atom_type_symbol
_atom_type_description
_atom_type_scat_dispersion_real
_atom_type_scat_dispersion_imag
_atom_type_scat_source
C C 0.0070 0.0030 'International Tables Vol C Tables 4.2.6.8 and 6.1.1.4'
H H 0.0000 0.0000 'International Tables Vol C Tables 4.2.6.8 and 6.1.1.4'
N N 0.0130 0.0070 'International Tables Vol C Tables 4.2.6.8 and 6.1.1.4'
O O 0.0210 0.0120 'International Tables Vol C Tables 4.2.6.8 and 6.1.1.4'
loop_
_geom_angle_atom_site_label_1
_geom_angle_atom_site_label_2
_geom_angle_atom_site_label_3
_geom_angle
C2 C1 C9B 102.15(14)
C2 C1 H1A 111.3
C9B C1 H1A 111.3
C2 C1 H1B 111.3
C9B C1 H1B 111.3
H1A C1 H1B 109.2
C1 C2 C3 104.39(16)
C1 C2 H2A 110.9
C3 C2 H2A 110.9
C1 C2 H2B 110.9
C3 C2 H2B 110.9
H2A C2 H2B 108.9
N4 C3 C2 102.16(13)
N4 C3 H3A 111.3
C2 C3 H3A 111.3
N4 C3 H3B 111.3
C2 C3 H3B 111.3
H3A C3 H3B 109.2
C5 N4 C3 127.10(15)
C5 N4 C9B 115.10(15)
C3 N4 C9B 113.07(13)
O5 C5 N4 124.50(18)
O5 C5 C5A 127.21(17)
N4 C5 C5A 108.28(14)
C5 C5A C6 117.75(15)
C5 C5A C9A 101.00(14)
C6 C5A C9A 101.86(13)
C5 C5A H5A 111.7
C6 C5A H5A 111.7
C9A C5A H5A 111.7
C11 C6 C5A 117.00(15)
C11 C6 C7 113.55(15)
C5A C6 C7 99.72(13)
C11 C6 H6 108.7
C5A C6 H6 108.7
C7 C6 H6 108.7
O10 C7 C8 102.71(15)
O10 C7 C6 99.48(13)
C8 C7 C6 109.15(14)
O10 C7 H7 114.6
C8 C7 H7 114.6
C6 C7 H7 114.6
C9 C8 C7 105.52(17)
C9 C8 H8 127.2
C7 C8 H8 127.2
C8 C9 C9A 104.59(17)
C8 C9 H9 127.7
C9A C9 H9 127.7
O10 C9A C9B 111.77(14)
O10 C9A C9 102.12(14)
C9B C9A C9 126.44(16)
O10 C9A C5A 100.18(14)
C9B C9A C5A 105.83(13)
C9 C9A C5A 107.50(14)
N4 C9B C9A 102.11(13)
N4 C9B C1 101.06(14)
C9A C9B C1 120.38(16)
N4 C9B H9B 110.7
C9A C9B H9B 110.7
C1 C9B H9B 110.7
C7 O10 C9A 96.02(13)
O11 C11 O12 123.30(17)
O11 C11 C6 125.93(18)
O12 C11 C6 110.77(15)
C11 O12 H12 113.8
loop_
_geom_bond_atom_site_label_1
_geom_bond_atom_site_label_2
_geom_bond_distance
C1 C2 1.532(3)
C1 C9B 1.534(3)
C1 H1A 0.9900
C1 H1B 0.9900
C2 C3 1.552(2)
C2 H2A 0.9900
C2 H2B 0.9900
C3 N4 1.472(2)
C3 H3A 0.9900
C3 H3B 0.9900
N4 C5 1.341(2)
N4 C9B 1.485(2)
C5 O5 1.250(2)
C5 C5A 1.526(3)
C5A C6 1.540(3)
C5A C9A 1.576(2)
C5A H5A 1.0000
C6 C11 1.500(3)
C6 C7 1.590(2)
C6 H6 1.0000
C7 O10 1.427(2)
C7 C8 1.521(3)
C7 H7 1.0000
C8 C9 1.344(3)
C8 H8 0.9500
C9 C9A 1.522(2)
C9 H9 0.9500
C9A O10 1.446(2)
C9A C9B 1.513(3)
C9B H9B 1.0000
C11 O11 1.218(2)
C11 O12 1.336(2)
O12 H12 0.9239
loop_
_geom_hbond_atom_site_label_D
_geom_hbond_atom_site_label_H
_geom_hbond_atom_site_label_A
_geom_hbond_site_symmetry_A
_geom_hbond_distance_DH
_geom_hbond_distance_HA
_geom_hbond_distance_DA
_geom_hbond_angle_DHA
O12 H12 O5 2_766 0.92 1.70 2.607(2) 165
C9 H9 O11 2_665 0.95 2.42 3.362(3) 172
loop_
_geom_torsion_atom_site_label_1
_geom_torsion_atom_site_label_2
_geom_torsion_atom_site_label_3
_geom_torsion_atom_site_label_4
_geom_torsion
C9B C1 C2 C3 -40.2(2)
C1 C2 C3 N4 24.99(19)
C2 C3 N4 C5 -154.32(18)
C2 C3 N4 C9B -0.1(2)
C3 N4 C5 O5 -16.0(3)
C9B N4 C5 O5 -169.80(16)
C3 N4 C5 C5A 163.66(15)
C9B N4 C5 C5A 9.9(2)
O5 C5 C5A C6 47.1(2)
N4 C5 C5A C6 -132.62(15)
O5 C5 C5A C9A 156.89(18)
N4 C5 C5A C9A -22.81(19)
C5 C5A C6 C11 -123.93(16)
C9A C5A C6 C11 126.75(15)
C5 C5A C6 C7 113.23(14)
C9A C5A C6 C7 3.91(16)
C11 C6 C7 O10 -165.65(15)
C5A C6 C7 O10 -40.40(16)
C11 C6 C7 C8 -58.5(2)
C5A C6 C7 C8 66.71(18)
O10 C7 C8 C9 30.75(16)
C6 C7 C8 C9 -74.15(18)
C7 C8 C9 C9A 1.83(16)
C8 C9 C9A O10 -33.38(16)
C8 C9 C9A C9B -162.43(15)
C8 C9 C9A C5A 71.53(17)
C5 C5A C9A O10 -88.71(15)
C6 C5A C9A O10 32.99(16)
C5 C5A C9A C9B 27.56(18)
C6 C5A C9A C9B 149.26(14)
C5 C5A C9A C9 165.01(15)
C6 C5A C9A C9 -73.29(18)
C5 N4 C9B C9A 8.4(2)
C3 N4 C9B C9A -149.09(15)
C5 N4 C9B C1 133.04(17)
C3 N4 C9B C1 -24.4(2)
O10 C9A C9B N4 85.85(15)
C9 C9A C9B N4 -148.99(15)
C5A C9A C9B N4 -22.27(18)
O10 C9A C9B C1 -24.8(2)
C9 C9A C9B C1 100.3(2)
C5A C9A C9B C1 -132.96(15)
C2 C1 C9B N4 38.51(18)
C2 C1 C9B C9A 149.76(16)
C8 C7 O10 C9A -49.46(13)
C6 C7 O10 C9A 62.79(14)
C9B C9A O10 C7 -171.68(12)
C9 C9A O10 C7 50.59(14)
C5A C9A O10 C7 -59.96(14)
C5A C6 C11 O11 -8.9(2)
C7 C6 C11 O11 106.5(2)
C5A C6 C11 O12 171.02(12)
C7 C6 C11 O12 -73.58(19)

_cod_database_fobs_code 2241848
