#------------------------------------------------------------------------------
#$Date: 2016-12-10 04:07:17 +0200 (Sat, 10 Dec 2016) $
#$Revision: 189030 $
#$URL: file:///home/coder/svn-repositories/cod/cif/2/24/19/2241976.cif $
#------------------------------------------------------------------------------
#
# This file is available in the Crystallography Open Database (COD),
# http://www.crystallography.net/. The original data for this entry
# were provided by IUCr Journals, http://journals.iucr.org/.
#
# The file may be used within the scientific community so long as
# proper attribution is given to the journal article from which the
# data were obtained.
#
data_2241976
loop_
_publ_author_name
'Viswanathan, Vijayan'
'Ananth, Mani Karthik'
'Narasimhan, S.'
'Velmurugan, Devadasan'
_publ_section_title
;
 Crystal structures of
 (<i>E</i>)-4-[1-(2-carbamothioylhydrazinylidene)ethyl]phenyl acetate and
 (<i>E</i>)-4-[1-(2-carbamothioylhydrazinylidene)ethyl]phenyl benzoate
;
_journal_coeditor_code           SU5323
_journal_issue                   1
_journal_name_full               'Acta Crystallographica Section E'
_journal_page_first              20
_journal_page_last               23
_journal_paper_doi               10.1107/S2056989016018983
_journal_volume                  73
_journal_year                    2017
_chemical_formula_iupac          'C16 H15 N3 O2 S'
_chemical_formula_moiety         'C16 H15 N3 O2 S'
_chemical_formula_sum            'C16 H15 N3 O2 S'
_chemical_formula_weight         313.37
_chemical_name_systematic
;
(<i>E</i>)-4-[1-(2-Carbamothioylhydrazinylidene)ethyl]phenyl benzoate
;
_space_group_crystal_system      triclinic
_space_group_IT_number           2
_space_group_name_Hall           '-P 1'
_space_group_name_H-M_alt        'P -1'
_symmetry_space_group_name_Hall  '-P 1'
_symmetry_space_group_name_H-M   'P -1'
_atom_sites_solution_hydrogens   geom
_audit_creation_method           SHELXL-2014/7
_cell_angle_alpha                78.855(4)
_cell_angle_beta                 69.031(2)
_cell_angle_gamma                84.200(3)
_cell_formula_units_Z            2
_cell_length_a                   7.8145(4)
_cell_length_b                   9.7538(5)
_cell_length_c                   10.9050(7)
_cell_measurement_reflns_used    3154
_cell_measurement_temperature    293(2)
_cell_measurement_theta_max      26.529
_cell_measurement_theta_min      2.029
_cell_volume                     761.05(7)
_computing_cell_refinement
;
SAINT (Bruker, 2008)
;
_computing_data_collection
;
APEX2 (Bruker, 2008)
;
_computing_data_reduction
;
SAINT (Bruker, 2008)
;
_computing_molecular_graphics
;
ORTEP-3 for Windows (Farrugia, 2012) and Mercury (Macrae <i>et al.</i>,
2008)
;
_computing_publication_material
;
SHELXL2014 (Sheldrick, 2008) and PLATON (Spek, 2009)
;
_computing_structure_refinement
;
SHELXL2014 (Sheldrick, 2015)
;
_computing_structure_solution
;
SHELXS97 (Sheldrick, 2008)
;
_diffrn_ambient_temperature      293(2)
_diffrn_measured_fraction_theta_full 0.999
_diffrn_measured_fraction_theta_max 0.994
_diffrn_measurement_device_type  'Bruker SMART APEXII area-detector'
_diffrn_measurement_method       '\w and \f scans'
_diffrn_radiation_type           MoK\a
_diffrn_radiation_wavelength     0.71073
_diffrn_reflns_av_R_equivalents  0.0266
_diffrn_reflns_limit_h_max       9
_diffrn_reflns_limit_h_min       -8
_diffrn_reflns_limit_k_max       12
_diffrn_reflns_limit_k_min       -12
_diffrn_reflns_limit_l_max       13
_diffrn_reflns_limit_l_min       -13
_diffrn_reflns_number            11596
_diffrn_reflns_theta_full        25.242
_diffrn_reflns_theta_max         26.529
_diffrn_reflns_theta_min         2.029
_exptl_absorpt_coefficient_mu    0.223
_exptl_absorpt_correction_T_max  0.865
_exptl_absorpt_correction_T_min  0.745
_exptl_absorpt_correction_type   multi-scan
_exptl_absorpt_process_details
;
(<i>SADABS</i>; Bruker, 2008)
;
_exptl_crystal_colour            pale-yellow
_exptl_crystal_density_diffrn    1.367
_exptl_crystal_description       block
_exptl_crystal_F_000             328
_exptl_crystal_size_max          0.250
_exptl_crystal_size_mid          0.180
_exptl_crystal_size_min          0.140
_refine_diff_density_max         0.263
_refine_diff_density_min         -0.294
_refine_ls_extinction_coef       0.080(6)
_refine_ls_extinction_expression Fc^*^=kFc[1+0.001xFc^2^\l^3^/sin(2\q)]^-1/4^
_refine_ls_extinction_method
;
SHELXL2014 (Sheldrick, 2015)
;
_refine_ls_goodness_of_fit_ref   1.046
_refine_ls_hydrogen_treatment    constr
_refine_ls_matrix_type           full
_refine_ls_number_parameters     201
_refine_ls_number_reflns         3154
_refine_ls_number_restraints     0
_refine_ls_restrained_S_all      1.046
_refine_ls_R_factor_all          0.0372
_refine_ls_R_factor_gt           0.0339
_refine_ls_shift/su_max          0.001
_refine_ls_shift/su_mean         0.000
_refine_ls_structure_factor_coef Fsqd
_refine_ls_weighting_details
'w=1/[\s^2^(Fo^2^)+(0.0512P)^2^+0.1914P] where P=(Fo^2^+2Fc^2^)/3'
_refine_ls_weighting_scheme      calc
_refine_ls_wR_factor_gt          0.0952
_refine_ls_wR_factor_ref         0.0988
_reflns_number_gt                2857
_reflns_number_total             3154
_reflns_threshold_expression     'I > 2\s(I)'
_cod_data_source_file            su5323sup1.cif
_cod_data_source_block           II
_cod_original_cell_volume        761.05(8)
_cod_database_code               2241976
_shelx_space_group_comment
;
The symmetry employed for this shelxl refinement is uniquely defined
by the following loop, which should always be used as a source of
symmetry information in preference to the above space-group names.
They are only intended as comments.
;
_shelx_estimated_absorpt_t_min   0.946
_shelx_estimated_absorpt_t_max   0.969
_shelx_hkl_file
;
   1   0   1    0.11    0.01
   1   0   1    0.12    0.01
  -1   0  -1    0.15    0.01
   2   0   2   27.06    0.63
   2   0   2   27.01    0.66
  -2   0  -2   28.22    0.89
   3   0   3    7.23    0.19
   3   0   3    7.27    0.19
   3   0   3    7.27    0.18
  -3   0  -3    7.54    0.27
   4   0   4    6.78    0.17
   4   0   4    6.54    0.17
   4   0   4    6.59    0.19
  -4   0  -4    6.82    0.26
   5   0   5   34.59    0.79
   5   0   5   32.99    0.83
   5   0   5   34.15    0.83
   6   0   6   63.50    1.53
   7   0   7    0.00    0.04
   8   0   8    8.06    0.26
   9   0   9    0.53    0.07
   9   1   9    0.05    0.05
   8   1   8    0.25    0.05
   7   1   7   24.60    0.64
   6   1   6    0.05    0.03
   6   1   6    0.24    0.03
  -5  -1  -5   24.01    0.60
  -5  -1  -5   24.34    0.82
   5   1   5   23.41    0.60
   5   1   5   24.20    0.57
   5   1   5   24.13    0.60
  -4  -1  -4   46.72    1.49
  -4  -1  -4   45.45    1.12
   4   1   4   45.13    1.05
   4   1   4   44.72    1.12
   4   1   4   45.94    1.10
  -3  -1  -3   66.54    1.64
  -3  -1  -3   68.86    2.16
   3   1   3   65.60    1.64
   3   1   3   68.51    1.60
   3   1   3   67.28    1.54
  -2  -1  -2    0.10    0.01
  -2  -1  -2    0.08    0.02
  -2  -1  -2    0.05    0.01
   2   1   2    0.10    0.01
   2   1   2    0.05    0.01
   2   1   2    0.10    0.01
  -1  -1  -1   97.29    2.80
  -1  -1  -1   93.98    2.28
  -1  -1  -1   98.48    2.41
   1   1   1   92.00    2.28
   1   1   1  100.53    2.40
   1   1   1   97.51    2.24
   0  -1   0    2.88    0.07
   0  -1   0    2.79    0.08
   0  -1   0    2.75    0.09
   0   1   0    2.86    0.08
   0   1   0    2.74    0.09
   1  -1   1    3.67    0.10
  -1   1  -1    3.31    0.10
  -1   1  -1    3.79    0.10
  -1   1  -1    3.66    0.11
   2  -1   2   12.73    0.31
   2  -1   2   12.86    0.32
  -2   1  -2   12.64    0.32
  -2   1  -2   12.61    0.32
   3  -1   3    8.61    0.23
   3  -1   3    8.87    0.22
   3  -1   3    8.45    0.20
  -3   1  -3    8.57    0.23
   4  -1   4    3.85    0.10
   4  -1   4    3.67    0.12
   4  -1   4    3.67    0.11
   5  -1   5    9.65    0.27
   5  -1   5    9.63    0.25
   6  -1   6   69.45    1.67
   7  -1   7    2.76    0.12
   8  -1   8    6.36    0.22
   9   2   9    1.91    0.12
   8   2   8    0.00    0.03
   7   2   7    0.67    0.05
   6   2   6    1.24    0.07
   6   2   6    1.00    0.07
  -5  -2  -5    2.15    0.07
  -5  -2  -5    2.11    0.12
   5   2   5    2.02    0.08
   5   2   5    2.08    0.09
  -4  -2  -4    2.21    0.11
  -4  -2  -4    2.10    0.07
   4   2   4    2.08    0.08
   4   2   4    2.38    0.08
  -3  -2  -3   92.23    2.22
  -3  -2  -3   91.12    2.92
   3   2   3   90.49    2.09
   3   2   3   91.62    2.16
  -2  -2  -2  100.89    2.76
  -2  -2  -2   97.04    2.38
   2   2   2   95.88    2.31
   2   2   2   97.75    2.23
  -1  -2  -1  329.89    7.93
  -1  -2  -1  298.16   10.32
  -1  -2  -1  339.64    9.16
   1   2   1  330.80    9.15
   1   2   1  333.36    7.41
   1   2   1  309.31    7.65
   0  -2   0   21.32    0.66
   0  -2   0   20.43    0.51
   0  -2   0   19.58    0.59
   0   2   0   20.56    0.49
   0   2   0   20.45    0.47
   0   2   0   19.83    0.58
   1  -2   1   25.30    0.73
   1  -2   1   25.47    0.63
  -1   2  -1   25.54    0.73
  -1   2  -1   24.85    0.61
  -1   2  -1   25.99    0.59
   2  -2   2    7.91    0.21
  -2   2  -2    7.72    0.21
  -2   2  -2    7.71    0.24
   3  -2   3  444.03   10.93
   3  -2   3  511.38   11.31
  -3   2  -3  433.34   14.28
  -3   2  -3  455.71   10.97
   4  -2   4   11.09    0.30
   4  -2   4   11.67    0.30
  -4   2  -4   11.46    0.31
   5  -2   5    7.07    0.18
   5  -2   5    6.81    0.20
  -5   2  -5    5.78    0.22
   6  -2   6    7.16    0.22
   7  -2   7    5.71    0.19
   8  -2   8    3.67    0.16
   9   3   9    1.28    0.09
   8   3   8    0.07    0.04
   7   3   7    0.47    0.05
   7   3   7    0.43    0.06
   6   3   6   27.56    0.69
   6   3   6   27.26    0.66
  -5  -3  -5    9.76    0.26
  -5  -3  -5    9.89    0.30
  -5  -3  -5   10.00    0.37
   5   3   5    9.84    0.26
   5   3   5    9.46    0.27
  -4  -3  -4   58.48    1.46
  -4  -3  -4   59.85    1.69
  -4  -3  -4   61.63    1.94
   4   3   4   59.06    1.43
   4   3   4   59.55    1.38
  -3  -3  -3   14.11    0.42
  -3  -3  -3   14.21    0.37
   3   3   3   14.50    0.36
   3   3   3   14.23    0.35
  -2  -3  -2   36.35    1.20
  -2  -3  -2   37.57    1.06
  -2  -3  -2   36.91    0.92
   2   3   2   36.88    0.86
   2   3   2   37.48    0.89
  -1  -3  -1   39.18    0.98
  -1  -3  -1   40.36    1.28
  -1  -3  -1   39.90    1.14
   1   3   1   40.52    0.92
   1   3   1   40.06    0.95
   1   3   1   39.64    1.13
   0  -3   0    3.07    0.12
   0  -3   0    3.02    0.09
   0  -3   0    3.05    0.11
   0  -3   0    3.23    0.09
   0   3   0    3.07    0.08
   0   3   0    3.09    0.09
   0   3   0    3.02    0.11
   1  -3   1    1.72    0.07
   1  -3   1    1.71    0.06
  -1   3  -1    1.67    0.06
  -1   3  -1    1.79    0.07
  -1   3  -1    1.74    0.05
   2  -3   2   61.83    1.54
  -2   3  -2   63.83    1.78
  -2   3  -2   63.36    1.46
  -2   3  -2   62.29    1.50
   3  -3   3   25.41    0.63
  -3   3  -3   25.34    0.74
  -3   3  -3   24.68    0.63
   4  -3   4   18.82    0.48
   4  -3   4   18.82    0.48
  -4   3  -4   18.49    0.48
  -4   3  -4   18.53    0.56
   5  -3   5    0.32    0.04
  -5   3  -5    0.34    0.04
  -5   3  -5    0.32    0.04
   6  -3   6    7.94    0.24
   7  -3   7    5.98    0.20
   8  -3   8    0.95    0.08
   8   4   8    6.31    0.21
   8   4   8    6.55    0.22
   7   4   7   10.31    0.29
   7   4   7   10.59    0.31
   6   4   6   27.78    0.70
   6   4   6   27.50    0.68
  -5  -4  -5    0.23    0.03
  -5  -4  -5    0.18    0.03
  -5  -4  -5    0.33    0.07
   5   4   5    0.16    0.03
   5   4   5    0.18    0.03
  -4  -4  -4    8.04    0.22
  -4  -4  -4    6.45    0.29
  -4  -4  -4    7.93    0.25
   4   4   4    7.94    0.22
   4   4   4    8.08    0.22
  -3  -4  -3   27.45    0.80
  -3  -4  -3   28.04    0.92
  -3  -4  -3   27.99    0.70
   3   4   3   27.51    0.66
   3   4   3   27.91    0.68
  -2  -4  -2    0.02    0.01
  -2  -4  -2    0.00    0.02
  -2  -4  -2    0.02    0.01
   2   4   2    0.01    0.01
   2   4   2    0.03    0.02
  -1  -4  -1   31.93    1.03
  -1  -4  -1   30.72    0.91
  -1  -4  -1   31.52    0.79
   1   4   1   32.04    0.76
   1   4   1   31.45    0.91
   1   4   1   31.73    0.74
   0  -4   0  212.74    5.60
   0  -4   0  204.67    5.84
   0  -4   0  206.43    4.99
   0   4   0  195.66    4.89
   0   4   0  208.17    4.67
   0   4   0  205.87    5.81
   1  -4   1    0.53    0.04
   1  -4   1    0.59    0.04
  -1   4  -1    0.55    0.04
  -1   4  -1    0.62    0.04
  -1   4  -1    0.57    0.03
   2  -4   2  133.04    3.26
  -2   4  -2  133.88    3.07
  -2   4  -2  138.81    3.77
  -2   4  -2  130.36    3.16
   3  -4   3    2.77    0.10
  -3   4  -3    2.83    0.12
  -3   4  -3    2.79    0.10
   4  -4   4    1.90    0.09
   4  -4   4    1.97    0.08
  -4   4  -4    2.30    0.11
  -4   4  -4    2.01    0.09
   5  -4   5    2.00    0.09
  -5   4  -5    1.95    0.10
   6  -4   6    0.34    0.05
  -6   4  -6    0.28    0.05
   7  -4   7    2.93    0.13
   8  -4   8   -0.01    0.04
   8   5   8    5.30    0.19
   8   5   8    4.95    0.18
   7   5   7    1.95    0.10
   7   5   7    1.92    0.10
  -6  -5  -6    3.35    0.12
   6   5   6    3.14    0.12
   6   5   6    3.23    0.13
  -5  -5  -5    2.92    0.16
  -5  -5  -5    2.80    0.12
  -5  -5  -5    2.74    0.11
   5   5   5    2.82    0.11
   5   5   5    2.79    0.11
  -4  -5  -4    3.00    0.12
  -4  -5  -4    3.00    0.11
  -4  -5  -4    3.02    0.15
   4   5   4    3.07    0.11
   4   5   4    3.07    0.11
  -3  -5  -3   25.51    0.87
  -3  -5  -3   25.98    0.67
  -3  -5  -3   26.42    0.76
   3   5   3   26.00    0.65
   3   5   3   26.47    0.63
  -2  -5  -2   20.14    0.68
  -2  -5  -2   20.36    0.53
  -2  -5  -2   19.98    0.60
   2   5   2   20.40    0.51
   2   5   2   20.78    0.61
   2   5   2   20.48    0.50
  -1  -5  -1    2.46    0.11
  -1  -5  -1    2.55    0.10
   1   5   1    2.40    0.10
   1   5   1    2.38    0.08
   1   5   1    2.54    0.09
   0  -5   0   60.09    1.85
   0  -5   0   64.59    2.08
   0  -5   0   65.17    1.60
   0  -5   0   68.87    1.76
   0   5   0   66.26    1.85
   0   5   0   63.97    1.55
   0   5   0   65.42    1.49
   1  -5   1   35.34    0.94
   1  -5   1   33.61    0.87
   1  -5   1   34.01    1.00
  -1   5  -1   35.00    1.00
  -1   5  -1   34.04    0.84
  -1   5  -1   33.93    0.80
   2  -5   2    0.22    0.03
  -2   5  -2    0.18    0.03
  -2   5  -2    0.26    0.03
  -2   5  -2    0.22    0.02
   3  -5   3    1.93    0.08
  -3   5  -3    1.85    0.09
   4  -5   4    6.61    0.20
  -4   5  -4    6.51    0.21
   5  -5   5    8.51    0.26
  -5   5  -5    8.72    0.27
   6  -5   6    1.45    0.09
  -6   5  -6    1.38    0.09
   7  -5   7    2.89    0.13
   8   6   8    2.73    0.13
   8   6   8    2.66    0.13
   7   6   7    0.97    0.08
   7   6   7    0.89    0.07
  -6  -6  -6    0.49    0.05
   6   6   6    0.58    0.06
   6   6   6    0.44    0.05
  -5  -6  -5   17.91    0.48
  -5  -6  -5   18.72    0.55
   5   6   5   17.45    0.47
   5   6   5   17.72    0.46
  -4  -6  -4    6.79    0.24
  -4  -6  -4    6.68    0.21
  -4  -6  -4    7.21    0.28
   4   6   4    6.69    0.21
   4   6   4    6.72    0.21
  -3  -6  -3  106.95    2.66
  -3  -6  -3  110.97    3.06
  -3  -6  -3  108.80    3.47
   3   6   3  110.29    3.06
   3   6   3  106.79    2.49
   3   6   3  106.52    2.57
  -2  -6  -2   11.73    0.33
  -2  -6  -2   11.91    0.43
  -2  -6  -2   12.09    0.38
   2   6   2   11.89    0.31
   2   6   2   12.07    0.38
   2   6   2   12.09    0.32
  -1  -6  -1   22.84    0.60
  -1  -6  -1   23.24    0.78
  -1  -6  -1   22.68    0.69
   1   6   1   23.92    0.69
   1   6   1   23.21    0.56
   1   6   1   23.08    0.58
   0  -6   0    6.72    0.18
   0  -6   0    6.02    0.24
   0  -6   0    6.05    0.22
   0  -6   0    6.17    0.19
   0   6   0    6.22    0.22
   0   6   0    6.17    0.17
   0   6   0    6.24    0.18
   1  -6   1    1.07    0.05
   1  -6   1    0.99    0.07
   1  -6   1    1.01    0.06
  -1   6  -1    0.98    0.06
  -1   6  -1    1.01    0.05
   2  -6   2    3.55    0.13
   2  -6   2    3.30    0.12
  -2   6  -2    3.36    0.12
  -2   6  -2    3.37    0.10
   3  -6   3   83.40    2.03
  -3   6  -3   80.89    1.98
   4  -6   4    6.46    0.20
  -4   6  -4    6.10    0.21
   5  -6   5    1.44    0.08
  -5   6  -5    1.42    0.09
   6  -6   6    1.43    0.09
  -6   6  -6    1.42    0.10
   7  -6   7    0.28    0.06
  -7   6  -7    0.19    0.05
   8   7   8    0.72    0.08
   8   7   8    0.68    0.07
   7   7   7    0.04    0.04
   7   7   7    0.09    0.05
  -6  -7  -6    1.18    0.08
   6   7   6    1.08    0.08
   6   7   6    1.26    0.09
  -5  -7  -5    1.14    0.11
  -5  -7  -5    1.10    0.08
  -5  -7  -5    1.08    0.08
   5   7   5    1.06    0.08
   5   7   5    1.04    0.07
  -4  -7  -4   25.94    0.68
  -4  -7  -4   26.47    0.77
  -4  -7  -4   26.21    0.89
   4   7   4   24.95    0.64
   4   7   4   24.68    0.65
  -3  -7  -3   12.37    0.35
  -3  -7  -3   12.68    0.46
  -3  -7  -3   12.25    0.40
   3   7   3   12.31    0.33
   3   7   3   12.25    0.34
  -2  -7  -2    0.30    0.06
  -2  -7  -2    0.21    0.04
  -2  -7  -2    0.19    0.04
   2   7   2    0.19    0.04
   2   7   2    0.23    0.03
  -1  -7  -1   -0.03    0.02
  -1  -7  -1   -0.02    0.03
  -1  -7  -1    0.00    0.04
   1   7   1    0.00    0.02
   1   7   1    0.00    0.02
   0  -7   0    5.93    0.24
   0  -7   0    5.94    0.19
   0  -7   0    6.00    0.22
   0   7   0    6.07    0.17
   0   7   0    5.76    0.18
   1  -7   1    0.49    0.05
   1  -7   1    0.60    0.06
   1  -7   1    0.66    0.05
   1  -7   1    0.63    0.06
  -1   7  -1    0.53    0.04
  -1   7  -1    0.59    0.05
   2  -7   2   -0.09    0.03
   2  -7   2    0.02    0.03
  -2   7  -2    0.05    0.03
   3  -7   3   56.34    1.42
   3  -7   3   58.72    1.56
  -3   7  -3   54.47    1.38
   4  -7   4    2.70    0.13
   4  -7   4    2.68    0.12
  -4   7  -4    2.57    0.12
   5  -7   5    5.42    0.19
  -5   7  -5    5.03    0.20
   6  -7   6    0.48    0.07
   6  -7   6    0.51    0.06
  -6   7  -6    0.52    0.07
   7   8   7    1.04    0.08
   7   8   7    0.97    0.08
  -6  -8  -6   -0.04    0.04
   6   8   6    0.06    0.04
   6   8   6    0.01    0.04
  -5  -8  -5    4.29    0.22
  -5  -8  -5    4.18    0.17
   5   8   5    4.27    0.16
   5   8   5    4.14    0.16
  -4  -8  -4    0.43    0.06
  -4  -8  -4    0.61    0.08
  -4  -8  -4    0.44    0.06
   4   8   4    0.43    0.05
   4   8   4    0.48    0.06
  -3  -8  -3    2.08    0.11
  -3  -8  -3    2.26    0.13
  -3  -8  -3    2.39    0.14
   3   8   3    2.34    0.10
   3   8   3    2.30    0.10
  -2  -8  -2    4.96    0.20
  -2  -8  -2    4.54    0.17
  -2  -8  -2    4.89    0.22
   2   8   2    4.69    0.16
   2   8   2    4.74    0.16
  -1  -8  -1    3.14    0.13
  -1  -8  -1    3.13    0.15
  -1  -8  -1    3.00    0.16
   1   8   1    3.78    0.13
   1   8   1    3.18    0.12
   0  -8   0    8.16    0.26
   0  -8   0    7.95    0.31
   0   8   0    8.17    0.23
   0   8   0    8.03    0.24
   1  -8   1    1.79    0.10
   1  -8   1    1.99    0.12
  -1   8  -1    2.01    0.10
  -1   8  -1    2.00    0.08
   2  -8   2    1.09    0.08
  -2   8  -2    1.09    0.08
   3  -8   3    3.55    0.15
  -3   8  -3    3.42    0.14
   4  -8   4    0.74    0.07
  -4   8  -4    0.78    0.07
   5  -8   5    0.10    0.05
   5  -8   5    0.11    0.04
  -5   8  -5    0.08    0.05
   7   9   7    1.65    0.11
   7   9   7    1.78    0.11
  -6  -9  -6    1.20    0.09
   6   9   6    1.03    0.09
   6   9   6    1.06    0.09
  -5  -9  -5    1.11    0.11
  -5  -9  -5    1.07    0.09
   5   9   5    1.16    0.08
   5   9   5    1.07    0.08
  -4  -9  -4    3.79    0.16
  -4  -9  -4    3.94    0.20
   4   9   4    3.72    0.15
   4   9   4    3.71    0.15
  -3  -9  -3    0.46    0.06
  -3  -9  -3    0.59    0.08
   3   9   3    0.59    0.06
   3   9   3    0.49    0.05
  -2  -9  -2    0.18    0.08
  -2  -9  -2    0.12    0.04
   2   9   2    0.12    0.04
   2   9   2    0.10    0.03
  -1  -9  -1    4.88    0.22
  -1  -9  -1    4.89    0.18
   1   9   1    4.92    0.16
   1   9   1    4.59    0.17
   0  -9   0    4.03    0.19
   0  -9   0    3.87    0.16
   0   9   0    4.13    0.15
   0   9   0    3.92    0.14
   1  -9   1    2.23    0.13
   1  -9   1    2.04    0.11
  -1   9  -1    2.15    0.11
   2  -9   2    0.52    0.10
   2  -9   2    0.37    0.06
  -2   9  -2    0.33    0.05
   3  -9   3    3.53    0.15
  -3   9  -3    3.48    0.15
  -4   9  -4    0.95    0.09
  -5   9  -5    0.38    0.07
  -6 -10  -6    3.28    0.16
   6  10   6    3.14    0.15
   6  10   6    3.25    0.15
  -5 -10  -5    0.07    0.04
   5  10   5    0.04    0.04
   5  10   5    0.02    0.04
  -4 -10  -4    0.01    0.04
  -4 -10  -4   -0.05    0.08
   4  10   4    0.04    0.04
   4  10   4   -0.03    0.04
  -3 -10  -3    3.07    0.17
  -3 -10  -3    2.70    0.14
   3  10   3    2.72    0.13
   3  10   3    2.65    0.12
  -2 -10  -2    0.06    0.04
  -2 -10  -2   -0.03    0.07
   2  10   2   -0.02    0.03
   2  10   2   -0.04    0.03
  -1 -10  -1    3.67    0.19
  -1 -10  -1    3.80    0.17
   1  10   1    3.52    0.15
   1  10   1    3.90    0.14
   0 -10   0    6.42    0.23
   0 -10   0    6.74    0.29
   0  10   0    6.63    0.20
   0  10   0    6.08    0.22
   1 -10   1    4.79    0.19
   1 -10   1    4.85    0.23
  -1  10  -1    4.66    0.18
   2 -10   2    0.62    0.11
   2 -10   2    0.38    0.06
  -2  10  -2    0.40    0.06
   3 -10   3    0.85    0.13
   3 -10   3    0.50    0.07
  -3  10  -3    0.56    0.07
  -5 -11  -5    1.86    0.13
   5  11   5    2.00    0.12
   5  11   5    1.67    0.11
  -4 -11  -4    0.05    0.09
  -4 -11  -4    0.04    0.05
   4  11   4    0.00    0.05
   4  11   4    0.08    0.04
  -3 -11  -3    3.21    0.16
  -3 -11  -3    3.45    0.20
   3  11   3    3.12    0.14
   3  11   3    3.00    0.14
  -2 -11  -2    0.67    0.08
  -2 -11  -2    0.72    0.10
   2  11   2    0.68    0.07
   2  11   2    0.66    0.07
  -1 -11  -1    0.18    0.09
  -1 -11  -1    0.12    0.05
   1  11   1    0.10    0.04
   1  11   1    0.08    0.04
   0 -11   0    2.11    0.15
   0 -11   0    2.23    0.13
   0  11   0    1.90    0.11
   1 -11   1    0.04    0.08
   1 -11   1    0.11    0.05
  -1  11  -1    0.03    0.05
   2 -11   2    0.43    0.07
   2 -11   2    0.70    0.12
  -2  11  -2    0.44    0.07
  -2 -12  -2    0.49    0.12
  -2 -12  -2    0.31    0.07
   2  12   2    0.21    0.06
   2  12   2    0.30    0.06
  -1 -12  -1    0.15    0.05
  -1 -12  -1    0.17    0.10
   1  12   1    0.03    0.04
   1  12   1    0.17    0.05
   0 -12   0    1.52    0.12
   0  12   1    0.01    0.05
   0 -12  -1   -0.02    0.05
   0 -12  -1    0.07    0.08
   1  12   2    0.17    0.05
   1  12   2    0.18    0.05
  -1 -12  -2    0.19    0.06
  -1 -12  -2    0.39    0.11
   2  12   3    0.55    0.07
   2  12   3    0.61    0.07
  -2 -12  -3    0.61    0.08
  -2 -12  -3    0.68    0.13
  -2  11  -1    0.02    0.05
   2 -11   1    0.04    0.05
   2 -11   1    0.11    0.08
  -1  11   0    0.47    0.06
   1 -11   0    0.61    0.11
   1 -11   0    0.45    0.07
   0  11   1    1.59    0.11
   0 -11  -1    1.50    0.11
   0 -11  -1    1.70    0.13
   1  11   2    0.52    0.06
   1  11   2    0.66    0.06
  -1 -11  -2    0.76    0.12
  -1 -11  -2    0.53    0.07
   2  11   3    1.47    0.10
   2  11   3    1.43    0.09
  -2 -11  -3    1.59    0.13
  -2 -11  -3    1.50    0.11
   3  11   4    0.08    0.05
   3  11   4    0.11    0.05
  -3 -11  -4    0.14    0.05
  -3 -11  -4    0.18    0.10
   4  11   5   -0.02    0.04
   4  11   5   -0.04    0.04
  -4 -11  -5   -0.06    0.04
  -4 -11  -5   -0.10    0.08
  -5 -11  -6    0.13    0.05
  -4  10  -3    0.06    0.05
  -3  10  -2    4.22    0.18
   3 -10   2    4.07    0.21
   3 -10   2    4.39    0.18
  -2  10  -1    4.41    0.18
   2 -10   1    4.58    0.19
   2 -10   1    4.70    0.22
  -1  10   0    5.03    0.19
   1 -10   0    5.08    0.20
   1 -10   0    4.83    0.23
   0  10   1    0.10    0.04
   0  10   1   -0.03    0.03
   0 -10  -1    0.19    0.07
   0 -10  -1   -0.06    0.04
   1  10   2    1.24    0.08
   1  10   2    1.10    0.08
  -1 -10  -2    1.27    0.11
  -1 -10  -2    1.12    0.09
   2  10   3    0.95    0.08
   2  10   3    0.87    0.07
  -2 -10  -3    0.75    0.07
  -2 -10  -3    0.88    0.10
   3  10   4    1.93    0.10
   3  10   4    2.04    0.11
  -3 -10  -4    2.01    0.14
  -3 -10  -4    1.89    0.11
   4  10   5    0.67    0.07
   4  10   5    0.69    0.07
  -4 -10  -5    0.52    0.07
  -4 -10  -5    0.77    0.13
   5  10   6    0.35    0.06
   5  10   6    0.40    0.06
  -5 -10  -6    0.66    0.13
  -5 -10  -6    0.43    0.06
   6  10   7    1.94    0.11
   6  10   7    2.05    0.12
  -6 -10  -7    2.08    0.13
  -5   9  -4    0.14    0.05
  -4   9  -3   -0.02    0.04
   4  -9   3    0.03    0.04
  -3   9  -2    9.55    0.30
   3  -9   2    9.27    0.30
  -2   9  -1    1.27    0.09
   2  -9   1    1.35    0.09
   2  -9   1    1.29    0.10
  -1   9   0   10.02    0.30
   1  -9   0   10.23    0.32
   1  -9   0    9.94    0.38
   0   9   1    0.67    0.06
   0   9   1    0.60    0.06
   0  -9  -1    0.70    0.07
   0  -9  -1    0.53    0.06
   1   9   2    0.12    0.04
   1   9   2    0.11    0.03
  -1  -9  -2    0.10    0.04
  -1  -9  -2    0.14    0.07
   2   9   3    0.35    0.05
   2   9   3    0.38    0.05
  -2  -9  -3    0.61    0.10
  -2  -9  -3    0.34    0.05
   3   9   4    6.44    0.21
   3   9   4    6.49    0.21
  -3  -9  -4    6.39    0.22
  -3  -9  -4    6.28    0.28
   4   9   5    1.40    0.09
   4   9   5    1.37    0.09
  -4  -9  -5    1.48    0.12
  -4  -9  -5    1.25    0.09
   5   9   6    2.63    0.12
   5   9   6    2.50    0.13
  -5  -9  -6    2.50    0.17
  -5  -9  -6    2.69    0.14
   6   9   7   -0.02    0.05
   6   9   7   -0.06    0.04
  -6  -9  -7   -0.01    0.04
  -6   8  -5    0.02    0.04
   6  -8   5    0.01    0.04
  -5   8  -4    5.07    0.20
  -4   8  -3    0.05    0.04
   4  -8   3    0.08    0.04
  -3   8  -2   12.14    0.36
   3  -8   2   12.42    0.36
  -2   8  -1    4.90    0.18
   2  -8   1    5.25    0.18
  -1   8   0   10.82    0.31
   1  -8   0   10.70    0.32
   1  -8   0   10.80    0.39
   0   8   1    6.61    0.21
   0   8   1    6.57    0.19
   0  -8  -1    6.62    0.26
   0  -8  -1    6.72    0.22
   0  -8  -1    6.57    0.25
   1   8   2    5.87    0.19
   1   8   2    6.03    0.18
  -1  -8  -2    5.72    0.23
  -1  -8  -2    5.94    0.20
  -1  -8  -2    5.74    0.24
   2   8   3    6.57    0.20
   2   8   3    6.62    0.21
  -2  -8  -3    6.62    0.22
  -2  -8  -3    6.66    0.25
  -2  -8  -3    6.59    0.27
   3   8   4   63.98    1.56
   3   8   4   64.23    1.52
  -3  -8  -4   65.33    1.86
  -3  -8  -4   64.46    2.11
  -3  -8  -4   64.51    1.62
   4   8   5    3.02    0.13
   4   8   5    2.98    0.13
  -4  -8  -5    3.36    0.16
  -4  -8  -5    3.22    0.18
  -4  -8  -5    3.04    0.13
   5   8   6    0.13    0.05
   5   8   6    0.22    0.04
  -5  -8  -6    0.29    0.09
  -5  -8  -6    0.05    0.04
   6   8   7    0.43    0.06
   6   8   7    0.47    0.06
  -6  -8  -7    0.44    0.06
   7   8   8    0.73    0.08
   7   8   8    0.67    0.07
  -6   7  -5    1.82    0.12
   6  -7   5    1.79    0.10
  -5   7  -4    2.90    0.14
   5  -7   4    2.85    0.13
  -4   7  -3    1.79    0.10
   4  -7   3    1.74    0.09
  -3   7  -2    6.91    0.22
   3  -7   2    6.97    0.22
  -2   7  -1    0.02    0.02
  -2   7  -1    0.03    0.03
   2  -7   1    0.02    0.03
   2  -7   1    0.08    0.04
  -1   7   0    0.00    0.02
  -1   7   0    0.02    0.02
   1  -7   0   -0.03    0.04
   1  -7   0    0.03    0.03
   1  -7   0   -0.01    0.02
   0   7   1   17.22    0.43
   0   7   1   17.33    0.45
   0  -7  -1   17.50    0.47
   0  -7  -1   17.19    0.59
   0  -7  -1   17.50    0.55
   1   7   2    1.21    0.07
   1   7   2    1.32    0.07
  -1  -7  -2    1.27    0.08
  -1  -7  -2    1.18    0.07
  -1  -7  -2    1.28    0.08
   2   7   3    4.28    0.15
   2   7   3    4.54    0.15
  -2  -7  -3    4.36    0.16
  -2  -7  -3    4.55    0.20
  -2  -7  -3    4.43    0.18
   3   7   4    7.78    0.23
   3   7   4    7.82    0.23
  -3  -7  -4    7.93    0.28
  -3  -7  -4    7.79    0.24
  -3  -7  -4    7.72    0.31
   4   7   5    0.03    0.03
   4   7   5    0.01    0.03
  -4  -7  -5    0.10    0.06
  -4  -7  -5    0.05    0.03
  -4  -7  -5   -0.04    0.03
   5   7   6    0.67    0.06
   5   7   6    0.60    0.06
  -5  -7  -6    0.62    0.06
  -5  -7  -6    0.61    0.07
  -5  -7  -6    0.82    0.12
   6   7   7    4.77    0.18
   6   7   7    4.66    0.17
  -6  -7  -7    4.85    0.18
   7   7   8    2.09    0.11
   7   7   8    1.90    0.11
  -7   6  -6    0.08    0.04
   7  -6   6    0.01    0.04
  -6   6  -5    0.22    0.05
   6  -6   5    0.25    0.05
  -5   6  -4    0.53    0.06
   5  -6   4    0.46    0.05
  -4   6  -3    1.16    0.08
   4  -6   3    1.24    0.07
  -3   6  -2    0.75    0.06
   3  -6   2    0.67    0.06
  -2   6  -1    9.48    0.23
  -2   6  -1    9.40    0.27
   2  -6   1    9.12    0.32
   2  -6   1    9.19    0.27
  -1   6   0    5.29    0.16
  -1   6   0    4.54    0.14
   1  -6   0    4.94    0.19
   1  -6   0    5.29    0.16
   0   6   1   43.80    1.01
   0   6   1   44.69    1.26
   0   6   1   42.47    1.05
   0  -6  -1   42.11    1.26
   0  -6  -1   44.21    1.41
   0  -6  -1   43.26    1.09
   1   6   2   21.78    0.55
   1   6   2   22.47    0.66
   1   6   2   22.06    0.54
  -1  -6  -2   21.99    0.58
  -1  -6  -2   22.01    0.74
  -1  -6  -2   22.27    0.66
   2   6   3    5.58    0.17
   2   6   3    5.86    0.20
   2   6   3    5.59    0.17
  -2  -6  -3    5.55    0.20
  -2  -6  -3    5.48    0.22
  -2  -6  -3    5.60    0.18
   3   6   4    0.66    0.06
   3   6   4    0.83    0.05
  -3  -6  -4    0.69    0.06
  -3  -6  -4    0.76    0.06
  -3  -6  -4    0.83    0.07
   4   6   5    0.07    0.03
   4   6   5    0.02    0.03
  -4  -6  -5   -0.06    0.02
  -4  -6  -5   -0.01    0.02
  -4  -6  -5    0.16    0.06
   5   6   6   -0.02    0.03
   5   6   6    0.00    0.03
  -5  -6  -6    0.00    0.06
  -5  -6  -6    0.00    0.03
  -5  -6  -6   -0.06    0.02
   6   6   7   23.45    0.61
   6   6   7   23.64    0.62
  -6  -6  -7   24.62    0.63
   7   6   8    0.44    0.06
   7   6   8    0.47    0.06
   8   6   9    1.36    0.09
   8   6   9    1.16    0.09
   7  -5   6    2.77    0.13
  -6   5  -5    6.18    0.22
   6  -5   5    6.16    0.21
  -5   5  -4    0.10    0.04
   5  -5   4    0.03    0.03
  -4   5  -3    1.22    0.08
   4  -5   3    1.40    0.07
  -3   5  -2    2.27    0.10
  -3   5  -2    2.42    0.11
   3  -5   2    2.33    0.09
  -2   5  -1    0.19    0.02
  -2   5  -1    0.20    0.03
   2  -5   1    0.16    0.02
   2  -5   1    0.17    0.03
  -1   5   0    7.70    0.19
  -1   5   0    7.66    0.21
  -1   5   0    7.52    0.25
   1  -5   0    7.70    0.22
   1  -5   0    7.15    0.25
   0   5   1    5.86    0.16
   0   5   1    5.89    0.17
   0  -5  -1    5.71    0.20
   0  -5  -1    5.87    0.21
   0  -5  -1    5.82    0.18
   1   5   2    5.52    0.15
   1   5   2    5.51    0.19
   1   5   2    5.12    0.15
  -1  -5  -2    5.21    0.19
  -1  -5  -2    5.30    0.16
  -1  -5  -2    5.51    0.20
   2   5   3    7.86    0.22
   2   5   3    8.28    0.23
   2   5   3    7.98    0.22
  -2  -5  -3    7.90    0.26
  -2  -5  -3    7.81    0.23
  -2  -5  -3    7.93    0.29
   3   5   4    0.58    0.05
   3   5   4    0.59    0.05
  -3  -5  -4    0.53    0.04
  -3  -5  -4    0.64    0.06
  -3  -5  -4    0.61    0.05
   4   5   5   11.80    0.32
   4   5   5   11.66    0.32
  -4  -5  -5   11.67    0.37
  -4  -5  -5   12.86    0.33
  -4  -5  -5   11.82    0.44
   5   5   6    6.56    0.20
   5   5   6    6.56    0.20
  -5  -5  -6    6.47    0.23
  -5  -5  -6    6.54    0.20
   6   5   7   23.50    0.59
   6   5   7   23.54    0.61
  -6  -5  -7   24.08    0.62
   7   5   8    2.55    0.12
   7   5   8    2.60    0.12
   8   5   9   -0.03    0.03
   8   5   9    0.04    0.04
   8  -4   7    0.09    0.04
   7  -4   6    0.05    0.04
  -6   4  -5    3.88    0.16
   6  -4   5    3.78    0.14
  -5   4  -4    3.28    0.14
  -5   4  -4    3.22    0.13
   5  -4   4    3.46    0.13
  -4   4  -3   33.17    0.95
  -4   4  -3   32.00    0.81
   4  -4   3   31.96    0.80
   4  -4   3   32.39    0.81
  -3   4  -2   50.54    1.25
  -3   4  -2   53.43    1.48
   3  -4   2   51.26    1.28
  -2   4  -1    0.02    0.02
  -2   4  -1    0.00    0.02
  -2   4  -1   -0.01    0.01
   2  -4   1   -0.01    0.02
   2  -4   1   -0.01    0.01
  -1   4   0    9.69    0.26
  -1   4   0   10.27    0.24
  -1   4   0   10.11    0.31
   1  -4   0    9.89    0.27
   1  -4   0    9.80    0.31
   0   4   1   42.41    0.97
   0   4   1   42.00    1.01
   0   4   1   41.74    1.20
   0  -4  -1   41.80    1.20
   0  -4  -1   42.59    1.35
   0  -4  -1   41.96    1.04
   1   4   2   21.62    0.51
   1   4   2   21.49    0.53
   1   4   2   22.17    0.63
  -1  -4  -2   21.19    0.63
  -1  -4  -2   21.03    0.55
  -1  -4  -2   21.42    0.71
   2   4   3   75.10    1.73
   2   4   3   75.32    1.78
  -2  -4  -3   74.13    2.40
  -2  -4  -3   73.20    2.12
  -2  -4  -3   77.54    1.84
   3   4   4   15.98    0.39
   3   4   4   15.80    0.40
  -3  -4  -4   15.84    0.41
  -3  -4  -4   15.63    0.54
  -3  -4  -4   15.84    0.47
   4   4   5   11.51    0.31
   4   4   5   11.67    0.31
  -4  -4  -5   11.78    0.32
  -4  -4  -5   11.96    0.36
  -4  -4  -5   11.69    0.43
   5   4   6    1.78    0.08
   5   4   6    1.89    0.08
  -5  -4  -6    1.72    0.07
  -5  -4  -6    1.73    0.12
  -5  -4  -6    1.82    0.09
   6   4   7    0.19    0.04
   6   4   7    0.16    0.04
   7   4   8    1.10    0.08
   7   4   8    1.11    0.07
   8   4   9    1.28    0.09
   8  -3   7    5.04    0.19
   7  -3   6    2.36    0.11
   6  -3   5    0.32    0.05
  -5   3  -4   40.62    1.27
  -5   3  -4   46.27    1.10
   5  -3   4   46.36    1.09
  -4   3  -3   19.82    0.51
  -4   3  -3   19.88    0.59
   4  -3   3   19.82    0.50
   4  -3   3   20.19    0.50
  -3   3  -2    0.63    0.05
   3  -3   2    0.51    0.03
  -2   3  -1    9.81    0.30
  -2   3  -1    9.80    0.26
  -2   3  -1    9.83    0.23
   2  -3   1    9.15    0.30
   2  -3   1    9.60    0.25
  -1   3   0   14.05    0.32
  -1   3   0   13.31    0.40
   1  -3   0   13.33    0.35
   1  -3   0   13.32    0.41
   1  -3   0   14.04    0.45
   0   3   1    9.70    0.30
   0   3   1    9.98    0.24
   0  -3  -1   10.00    0.30
   0  -3  -1   10.11    0.33
   0  -3  -1    9.88    0.26
   1   3   2   15.21    0.36
   1   3   2   15.40    0.38
   1   3   2   16.06    0.42
   1   3   2   15.02    0.45
  -1  -3  -2   15.03    0.50
  -1  -3  -2   14.69    0.45
  -1  -3  -2   15.13    0.39
   2   3   3    0.12    0.02
   2   3   3    0.06    0.01
  -2  -3  -3    0.08    0.02
  -2  -3  -3    0.08    0.03
  -2  -3  -3    0.06    0.02
   3   3   4   59.04    1.40
   3   3   4   58.26    1.44
   3   3   4   58.13    1.36
  -3  -3  -4   58.49    1.90
  -3  -3  -4   59.65    1.44
   4   3   5   50.03    1.17
   4   3   5   50.37    1.21
   4   3   5   49.18    1.24
  -4  -3  -5   50.94    1.24
   5   3   6   13.04    0.35
   5   3   6   13.22    0.34
  -5  -3  -6   13.00    0.48
  -5  -3  -6   13.35    0.35
   6   3   7   -0.01    0.03
   6   3   7    0.00    0.03
   7   3   8   13.72    0.39
   7   3   8   14.28    0.37
   8   3   9    0.68    0.07
   8  -2   7    9.29    0.29
   7  -2   6    2.60    0.11
   6  -2   5   95.91    2.29
  -5   2  -4    2.62    0.11
   5  -2   4    2.66    0.10
  -4   2  -3   37.80    0.95
  -4   2  -3   39.33    1.12
   4  -2   3   40.51    0.96
   4  -2   3   38.20    0.94
   3  -2   2    1.53    0.05
   3  -2   2    1.61    0.06
  -2   2  -1   24.77    0.71
  -2   2  -1   24.56    0.60
   2  -2   1   24.51    0.71
   2  -2   1   24.31    0.61
  -1   2   0  263.79    6.99
  -1   2   0  282.60    6.77
  -1   2   0  292.35    8.34
   1  -2   0  307.16    8.37
   1  -2   0  323.50    9.56
   1  -2   0  301.89    7.24
   0   2   1  578.22   17.02
   0   2   1  573.34   14.68
   0  -2  -1  515.48   18.43
   0  -2  -1  586.35   16.85
   1   2   2   19.40    0.46
   1   2   2   19.62    0.49
   1   2   2   19.67    0.47
   1   2   2   19.99    0.53
  -1  -2  -2   18.53    0.63
  -1  -2  -2   19.31    0.48
   2   2   3   67.72    1.56
   2   2   3   68.96    1.61
   2   2   3   67.34    1.66
  -2  -2  -3   69.02    2.18
  -2  -2  -3   67.75    1.66
   3   2   4   73.34    1.81
   3   2   4   74.37    1.70
   3   2   4   76.72    1.76
  -3  -2  -4   72.33    1.81
   4   2   5   11.73    0.29
   4   2   5   11.77    0.30
   4   2   5   11.53    0.30
  -4  -2  -5   11.75    0.42
  -4  -2  -5   11.58    0.30
   5   2   6   20.35    0.52
   5   2   6   20.33    0.52
   5   2   6   20.64    0.50
  -5  -2  -6   20.87    0.72
  -5  -2  -6   20.70    0.52
   6   2   7   43.06    1.05
   6   2   7   42.22    1.00
   7   2   8    0.01    0.03
   8   2   9    0.07    0.04
   9  -1   8    0.04    0.05
   8  -1   7    1.22    0.09
   7  -1   6    8.95    0.27
   6  -1   5   11.04    0.31
  -5   1  -4   33.62    0.97
   5  -1   4   33.54    0.83
   5  -1   4   34.06    0.78
  -4   1  -3    0.06    0.02
   4  -1   3    0.06    0.01
   4  -1   3    0.04    0.02
  -3   1  -2    1.10    0.05
  -3   1  -2    1.09    0.03
  -3   1  -2    1.09    0.05
   3  -1   2    1.02    0.04
   3  -1   2    1.07    0.03
  -2   1  -1   27.85    0.69
  -2   1  -1   27.70    0.79
   2  -1   1   26.82    0.66
   2  -1   1   27.90    0.64
   2  -1   1   27.62    0.69
   2  -1   1   27.79    0.69
  -1   1   0   60.07    1.45
  -1   1   0   58.27    1.39
  -1   1   0   57.68    1.46
  -1   1   0   57.91    1.37
   1  -1   0   60.51    1.46
   1  -1   0   57.57    1.68
   1  -1   0   59.55    1.46
   0   1   1   21.78    0.52
   0   1   1   21.59    0.50
   0   1   1   21.78    0.54
   0   1   1   19.71    0.59
   0  -1  -1   22.45    0.52
   0  -1  -1   21.55    0.80
   0  -1  -1   22.15    0.53
   1   1   2   81.77    2.05
   1   1   2   80.80    1.91
   1   1   2   83.35    2.00
  -1  -1  -2   86.63    1.99
  -1  -1  -2   84.07    2.69
   2   1   3    5.33    0.15
   2   1   3    5.58    0.14
   2   1   3    5.49    0.14
   3   1   4   19.57    0.47
   3   1   4   19.52    0.50
   3   1   4   20.37    0.49
  -3  -1  -4   20.10    0.67
   4   1   5    0.40    0.03
   4   1   5    0.41    0.03
   4   1   5    0.49    0.03
  -4  -1  -5    0.42    0.05
   5   1   6   15.25    0.40
   5   1   6   15.79    0.37
   5   1   6   14.86    0.39
  -5  -1  -6   15.07    0.39
  -5  -1  -6   15.26    0.55
   6   1   7  159.33    3.75
   6   1   7  158.21    3.62
   7   1   8    4.80    0.17
   8   1   9    6.91    0.23
   9   0   8    5.38    0.20
   8   0   7    1.25    0.08
   7   0   6    0.27    0.05
   6   0   5    1.69    0.07
   6   0   5    1.67    0.08
   5   0   4   66.75    1.51
   5   0   4   65.27    1.58
   4   0   3    5.19    0.14
   4   0   3    5.23    0.15
   3   0   2   91.40    2.23
   3   0   2   97.52    2.15
   2   0   1    3.65    0.10
   2   0   1    3.78    0.10
  -1   0   0   14.87    0.40
  -1   0   0   13.65    0.37
   1   0   0   14.32    0.34
   1   0   0   14.04    0.35
   1   0   0   15.01    0.48
   0   0   1   38.72    1.11
   0   0   1   39.63    0.94
   0   0  -1   41.46    1.33
   0   0  -1   42.81    1.00
   1   0   2   11.21    0.27
   1   0   2   10.80    0.26
   1   0   2   11.04    0.27
   1   0   2   10.98    0.28
  -1   0  -2   11.19    0.27
   2   0   3   10.64    0.26
   2   0   3   10.58    0.28
   2   0   3   10.89    0.27
  -2   0  -3   11.38    0.37
   3   0   4  210.58    4.79
   3   0   4  194.42    4.65
   3   0   4  195.04    4.99
  -3   0  -4  216.45    6.49
   4   0   5    2.68    0.09
   4   0   5    2.65    0.08
   4   0   5    2.65    0.08
  -4   0  -5    2.77    0.13
   5   0   6   27.09    0.62
   5   0   6   26.51    0.66
   5   0   6   25.74    0.66
   6   0   7   35.37    0.88
   7   0   8    3.52    0.14
   8   0   9    0.95    0.08
   9   1   8   -0.04    0.04
   8   1   7    2.09    0.11
   7   1   6   11.60    0.33
   6   1   5    4.45    0.13
   6   1   5    4.56    0.15
  -5  -1  -4    0.76    0.07
  -5  -1  -4    0.79    0.03
   5   1   4    0.73    0.05
   5   1   4    0.79    0.04
  -4  -1  -3    7.92    0.21
  -4  -1  -3    7.90    0.21
  -4  -1  -3    8.24    0.30
   4   1   3    8.37    0.21
   4   1   3    7.83    0.22
  -3  -1  -2   14.76    0.49
  -3  -1  -2   14.49    0.36
  -3  -1  -2   14.50    0.36
   3   1   2   13.78    0.36
   3   1   2   14.61    0.35
  -2  -1  -1   92.91    2.25
  -2  -1  -1   90.47    2.90
  -2  -1  -1   90.82    2.69
   2   1   1   94.77    2.08
   2   1   1   92.60    2.25
   2   1   1   86.15    2.15
  -1  -1   0  253.22    7.40
  -1  -1   0  274.29    6.72
   1   1   0  277.78    8.74
   1   1   0  287.13    6.28
   1   1   0  289.43    6.49
   1   1   0  254.26    7.83
   0  -1   1   53.24    1.22
   0  -1   1   51.82    1.35
   0   1  -1   49.94    1.20
   0   1  -1   43.67    1.14
   1  -1   2    0.82    0.02
   1  -1   2    0.85    0.03
  -1   1  -2    0.86    0.03
  -1   1  -2    0.81    0.04
   2  -1   3   23.43    0.57
   2  -1   3   23.96    0.55
  -2   1  -3   23.29    0.57
  -2   1  -3   24.09    0.78
   3  -1   4  109.14    2.65
   3  -1   4  108.49    2.50
   3  -1   4  108.19    2.57
  -3   1  -4  110.17    3.48
  -3   1  -4  108.49    2.57
   4  -1   5    9.91    0.27
   4  -1   5   10.59    0.25
   4  -1   5   10.24    0.27
  -4   1  -5   10.42    0.38
   5  -1   6   14.17    0.37
   5  -1   6   13.98    0.37
   6  -1   7   22.39    0.58
   7  -1   8    0.31    0.05
   8  -1   9    2.21    0.11
   9   2   8    2.40    0.13
   8   2   7    4.42    0.17
   7   2   6   39.85    1.01
   7   2   6   41.53    0.96
   6   2   5   36.64    0.86
   6   2   5   36.15    0.90
  -5  -2  -4    0.74    0.04
  -5  -2  -4    0.65    0.07
  -5  -2  -4    0.81    0.04
   5   2   4    0.75    0.05
   5   2   4    0.99    0.05
  -4  -2  -3   54.75    1.58
  -4  -2  -3   57.44    1.81
  -4  -2  -3   56.02    1.37
   4   2   3   55.57    1.34
   4   2   3   55.56    1.29
  -3  -2  -2    5.78    0.21
  -3  -2  -2    5.50    0.17
  -3  -2  -2    5.64    0.15
   3   2   2    5.74    0.16
   3   2   2    5.69    0.15
  -2  -2  -1   22.79    0.57
  -2  -2  -1   23.18    0.75
  -2  -2  -1   23.05    0.66
   2   2   1   22.47    0.66
   2   2   1   23.42    0.54
   2   2   1   22.63    0.56
  -1  -2   0   67.77    1.94
  -1  -2   0   67.44    1.87
  -1  -2   0   70.79    1.68
   1   2   0   66.36    1.62
   1   2   0   70.32    2.20
   1   2   0   72.25    1.58
   1   2   0   66.75    1.94
   0  -2   1   73.00    1.75
   0  -2   1   70.12    2.28
   0  -2   1   74.21    1.94
   0   2  -1   69.82    1.69
   0   2  -1   71.13    2.02
   0   2  -1   69.96    1.64
   0   2  -1   73.67    2.29
   1  -2   2    0.21    0.02
   1  -2   2    0.18    0.02
  -1   2  -2    0.16    0.01
  -1   2  -2    0.25    0.03
  -1   2  -2    0.17    0.02
   2  -2   3  102.64    2.49
  -2   2  -3   99.87    2.41
  -2   2  -3  104.10    2.36
  -2   2  -3  102.51    3.26
   3  -2   4    3.31    0.11
   3  -2   4    3.28    0.10
  -3   2  -4    3.36    0.11
  -3   2  -4    3.18    0.14
  -3   2  -4    3.37    0.08
   4  -2   5    9.06    0.24
   4  -2   5    8.49    0.24
  -4   2  -5    8.62    0.25
   5  -2   6    4.14    0.13
   5  -2   6    4.14    0.14
   6  -2   7    0.22    0.04
   7  -2   8    0.09    0.04
   8  -2   9    0.92    0.08
   9   3   8    2.54    0.13
   8   3   7    3.64    0.15
   7   3   6    7.54    0.22
   7   3   6    7.31    0.24
   6   3   5   11.76    0.33
   6   3   5   12.08    0.31
  -5  -3  -4    0.93    0.05
  -5  -3  -4    0.87    0.05
  -5  -3  -4    1.13    0.09
   5   3   4    0.90    0.06
   5   3   4    0.95    0.05
  -4  -3  -3   34.62    1.12
  -4  -3  -3   33.98    0.96
  -4  -3  -3   34.40    0.84
   4   3   3   32.81    0.80
   4   3   3   33.32    0.83
  -3  -3  -2    2.54    0.08
  -3  -3  -2    2.51    0.09
  -3  -3  -2    2.66    0.12
   3   3   2    2.45    0.09
   3   3   2    2.49    0.09
  -2  -3  -1   86.63    2.45
  -2  -3  -1   87.42    2.35
  -2  -3  -1   86.18    2.12
   2   3   1   86.19    2.44
   2   3   1   89.30    1.99
   2   3   1   86.13    2.06
  -1  -3   0  131.41    3.60
  -1  -3   0  130.79    3.23
  -1  -3   0  131.16    3.75
  -1  -3   0  129.39    4.22
   1   3   0  128.48    3.12
   1   3   0  137.93    4.23
   1   3   0  130.26    3.74
   1   3   0  136.72    3.03
   0  -3   1    0.14    0.02
   0  -3   1    0.18    0.02
   0  -3   1    0.17    0.02
   0   3  -1    0.20    0.02
   0   3  -1    0.26    0.03
   1  -3   2   81.71    1.97
   1  -3   2   81.16    2.18
  -1   3  -2   80.81    2.28
  -1   3  -2   76.61    1.91
  -1   3  -2   83.10    1.84
   2  -3   3    0.47    0.04
  -2   3  -3    0.49    0.02
  -2   3  -3    0.54    0.05
  -2   3  -3    0.54    0.04
   3  -3   4    7.76    0.22
  -3   3  -4    7.93    0.26
  -3   3  -4    7.91    0.22
   4  -3   5    0.43    0.04
   4  -3   5    0.36    0.04
  -4   3  -5    0.34    0.04
  -4   3  -5    0.39    0.04
   5  -3   6    8.37    0.24
  -5   3  -6    8.65    0.26
   6  -3   7    1.06    0.07
   7  -3   8    2.14    0.11
   8  -3   9    4.36    0.17
   9   4   8    4.65    0.19
   8   4   7    6.51    0.20
   8   4   7    6.17    0.22
   7   4   6    9.91    0.28
   7   4   6    9.69    0.29
   6   4   5    2.14    0.10
   6   4   5    2.19    0.09
  -5  -4  -4    5.54    0.24
  -5  -4  -4    5.79    0.17
  -5  -4  -4    5.57    0.18
   5   4   4    5.61    0.17
   5   4   4    5.44    0.18
  -4  -4  -3   24.52    0.82
  -4  -4  -3   24.49    0.62
  -4  -4  -3   24.70    0.70
   4   4   3   23.40    0.61
   4   4   3   23.94    0.59
  -3  -4  -2   95.54    2.68
  -3  -4  -2   95.25    2.33
   3   4   2   93.66    2.26
   3   4   2   97.02    2.68
   3   4   2   95.22    2.19
  -2  -4  -1    0.42    0.03
  -2  -4  -1    0.46    0.02
  -2  -4  -1    0.54    0.04
  -2  -4  -1    0.40    0.03
   2   4   1    0.41    0.03
   2   4   1    0.40    0.03
   2   4   1    0.35    0.03
  -1  -4   0   16.88    0.58
  -1  -4   0   18.08    0.48
  -1  -4   0   17.02    0.52
  -1  -4   0   17.09    0.45
   1   4   0   18.16    0.59
   1   4   0   17.00    0.43
   1   4   0   17.66    0.52
   1   4   0   17.70    0.42
   0  -4   1    5.13    0.19
   0  -4   1    5.28    0.16
   0  -4   1    5.64    0.16
   0  -4   1    5.42    0.20
   0   4  -1    5.39    0.19
   0   4  -1    5.52    0.15
   0   4  -1    5.59    0.15
   1  -4   2    7.60    0.23
   1  -4   2    7.42    0.22
  -1   4  -2    7.76    0.25
  -1   4  -2    7.68    0.19
  -1   4  -2    7.35    0.21
   2  -4   3   24.74    0.69
   2  -4   3   24.51    0.63
  -2   4  -3   23.95    0.61
  -2   4  -3   25.18    0.73
  -2   4  -3   24.12    0.57
   3  -4   4   12.70    0.34
  -3   4  -4   12.45    0.40
  -3   4  -4   12.64    0.34
   4  -4   5    0.16    0.03
   4  -4   5    0.08    0.03
  -4   4  -5    0.16    0.03
   5  -4   6    5.41    0.17
  -5   4  -6    5.18    0.18
   6  -4   7    1.13    0.07
  -6   4  -7    1.04    0.08
   7  -4   8    7.28    0.24
   8   5   7    1.24    0.09
   8   5   7    1.30    0.09
   7   5   6    0.60    0.06
   7   5   6    0.64    0.06
  -6  -5  -5    1.62    0.08
   6   5   5    1.44    0.08
   6   5   5    1.46    0.08
  -5  -5  -4    6.72    0.28
  -5  -5  -4    6.46    0.20
  -5  -5  -4    6.51    0.22
   5   5   4    6.41    0.20
   5   5   4    6.27    0.20
  -4  -5  -3    6.03    0.24
  -4  -5  -3    5.88    0.19
  -4  -5  -3    5.44    0.17
   4   5   3    5.34    0.17
   4   5   3    5.44    0.17
  -3  -5  -2   10.17    0.38
  -3  -5  -2   10.51    0.29
  -3  -5  -2   10.39    0.33
   3   5   2   10.16    0.28
   3   5   2   10.20    0.28
   3   5   2   10.71    0.33
  -2  -5  -1    2.76    0.10
  -2  -5  -1    2.74    0.11
  -2  -5  -1    2.84    0.13
  -2  -5  -1    2.93    0.09
   2   5   1    2.81    0.10
   2   5   1    2.70    0.11
   2   5   1    2.69    0.10
  -1  -5   0  194.81    5.50
  -1  -5   0  200.40    4.77
  -1  -5   0  174.63    5.56
  -1  -5   0  194.38    6.23
   1   5   0  201.38    5.50
   1   5   0  205.67    6.23
   1   5   0  195.59    4.61
   1   5   0  202.18    4.47
   0  -5   1   11.75    0.32
   0  -5   1   11.31    0.36
   0  -5   1   10.98    0.39
   0  -5   1   11.43    0.31
   0   5  -1   11.18    0.28
   0   5  -1   11.46    0.36
   0   5  -1   11.18    0.30
   1  -5   2    7.28    0.22
   1  -5   2    7.49    0.22
  -1   5  -2    7.28    0.21
  -1   5  -2    7.23    0.19
  -1   5  -2    7.50    0.25
   2  -5   3   15.86    0.43
   2  -5   3   16.02    0.46
  -2   5  -3   15.88    0.41
  -2   5  -3   15.46    0.37
   3  -5   4   49.95    1.40
   3  -5   4   50.97    1.27
  -3   5  -4   50.39    1.23
   4  -5   5    1.37    0.07
  -4   5  -5    1.17    0.07
   5  -5   6   21.86    0.57
  -5   5  -6   22.20    0.59
   6  -5   7    0.42    0.05
  -6   5  -7    0.35    0.06
   7  -5   8    0.00    0.04
   7  -5   8    0.04    0.05
   8   6   7    9.89    0.31
   8   6   7    9.96    0.30
   7   6   6    0.40    0.06
   7   6   6    0.44    0.06
  -6  -6  -5    0.19    0.04
   6   6   5    0.18    0.04
   6   6   5    0.21    0.04
  -5  -6  -4   25.87    0.76
  -5  -6  -4   25.79    0.89
  -5  -6  -4   25.83    0.67
   5   6   4   24.56    0.65
   5   6   4   25.93    0.64
  -4  -6  -3   13.88    0.39
  -4  -6  -3   14.38    0.44
   4   6   3   13.88    0.37
   4   6   3   13.78    0.38
  -3  -6  -2    6.56    0.26
  -3  -6  -2    6.45    0.20
  -3  -6  -2    6.50    0.23
   3   6   2    6.40    0.19
   3   6   2    6.24    0.19
   3   6   2    6.59    0.22
  -2  -6  -1    9.43    0.28
  -2  -6  -1    9.54    0.35
  -2  -6  -1    9.67    0.32
   2   6   1    9.53    0.26
   2   6   1    9.73    0.31
   2   6   1    9.45    0.26
  -1  -6   0    4.09    0.17
  -1  -6   0    3.93    0.14
  -1  -6   0    4.15    0.12
  -1  -6   0    3.86    0.16
   1   6   0    3.99    0.13
   1   6   0    4.10    0.16
   1   6   0    4.00    0.13
   0  -6   1    9.39    0.26
   0  -6   1    8.83    0.26
   0  -6   1    8.90    0.31
   0  -6   1    8.70    0.33
   0   6  -1    8.98    0.23
   0   6  -1    8.66    0.25
   1  -6   2    0.29    0.04
   1  -6   2    0.29    0.03
  -1   6  -2    0.30    0.03
  -1   6  -2    0.26    0.03
   2  -6   3    0.05    0.03
   2  -6   3    0.11    0.03
  -2   6  -3    0.04    0.03
  -2   6  -3    0.02    0.02
   3  -6   4    2.63    0.12
   3  -6   4    2.71    0.12
  -3   6  -4    2.75    0.11
   4  -6   5    1.11    0.07
   4  -6   5    1.21    0.08
  -4   6  -5    1.19    0.08
   5  -6   6    0.26    0.05
   5  -6   6    0.28    0.05
  -5   6  -6    0.32    0.05
   6  -6   7    1.20    0.10
   6  -6   7    1.21    0.09
  -6   6  -7    1.16    0.09
   8   7   7    0.14    0.05
   8   7   7    0.11    0.05
   7   7   6    2.49    0.12
   7   7   6    2.57    0.13
  -6  -7  -5    0.05    0.04
   6   7   5    0.03    0.04
   6   7   5    0.02    0.03
  -5  -7  -4    2.91    0.18
  -5  -7  -4    3.65    0.15
  -5  -7  -4    3.60    0.14
   5   7   4    3.39    0.14
   5   7   4    3.47    0.14
  -4  -7  -3   12.39    0.35
  -4  -7  -3   12.33    0.40
  -4  -7  -3   12.11    0.46
   4   7   3   12.11    0.34
   4   7   3   12.25    0.34
  -3  -7  -2    2.16    0.13
  -3  -7  -2    2.16    0.11
  -3  -7  -2    2.02    0.10
   3   7   2    2.16    0.09
   3   7   2    2.06    0.09
  -2  -7  -1   15.99    0.50
  -2  -7  -1   15.37    0.44
  -2  -7  -1   16.36    0.56
   2   7   1   15.55    0.40
   2   7   1   15.73    0.42
  -1  -7   0    1.33    0.09
  -1  -7   0    1.42    0.08
  -1  -7   0    1.33    0.09
   1   7   0    1.42    0.07
   1   7   0    1.33    0.07
   0  -7   1    0.23    0.04
   0  -7   1    0.32    0.04
   0  -7   1    0.42    0.07
   0   7  -1    0.30    0.03
   0   7  -1    0.29    0.04
   1  -7   2    7.46    0.24
   1  -7   2    7.69    0.30
   1  -7   2    8.48    0.24
  -1   7  -2    7.58    0.23
  -1   7  -2    7.55    0.21
   2  -7   3   53.20    1.41
   2  -7   3   49.09    1.29
  -2   7  -3   50.76    1.25
   3  -7   4    0.07    0.04
   3  -7   4    0.01    0.03
  -3   7  -4    0.04    0.03
   4  -7   5    3.41    0.15
   4  -7   5    3.29    0.14
  -4   7  -5    3.48    0.15
   5  -7   6    0.56    0.06
   5  -7   6    0.56    0.07
  -5   7  -6    0.48    0.06
   6  -7   7    3.88    0.19
   6  -7   7    4.00    0.16
  -6   7  -7    3.97    0.18
   7   8   6    2.69    0.13
   7   8   6    2.60    0.13
  -6  -8  -5   10.82    0.32
   6   8   5   10.31    0.32
   6   8   5    9.96    0.31
  -5  -8  -4   23.26    0.62
   5   8   4   22.01    0.58
   5   8   4   22.48    0.60
  -4  -8  -3    3.83    0.17
  -4  -8  -3    3.89    0.20
  -4  -8  -3    3.87    0.15
   4   8   3    3.91    0.15
   4   8   3    3.81    0.15
  -3  -8  -2   -0.03    0.03
  -3  -8  -2   -0.04    0.06
  -3  -8  -2    0.07    0.03
   3   8   2    0.00    0.03
   3   8   2    0.04    0.03
  -2  -8  -1    6.77    0.28
  -2  -8  -1    6.72    0.26
  -2  -8  -1    6.97    0.23
   2   8   1    6.87    0.21
   2   8   1    6.57    0.21
  -1  -8   0    5.45    0.19
  -1  -8   0    5.59    0.22
  -1  -8   0    5.46    0.24
   1   8   0    5.69    0.18
   1   8   0    5.53    0.17
   0  -8   1    0.75    0.07
   0  -8   1    0.62    0.06
   0   8  -1    0.71    0.06
   0   8  -1    0.62    0.05
   1  -8   2    0.25    0.05
   1  -8   2    0.51    0.09
  -1   8  -2    0.28    0.05
  -1   8  -2    0.24    0.04
   2  -8   3    4.80    0.18
  -2   8  -3    4.73    0.17
   3  -8   4    1.04    0.08
  -3   8  -4    1.09    0.08
   4  -8   5    0.15    0.05
   4  -8   5    0.09    0.04
  -4   8  -5    0.07    0.04
   5  -8   6    0.03    0.04
   5  -8   6    0.04    0.05
  -5   8  -6    0.06    0.04
   7   9   6    0.15    0.06
   7   9   6    0.30    0.06
  -6  -9  -5   -0.02    0.04
   6   9   5    0.00    0.04
   6   9   5   -0.01    0.04
  -5  -9  -4    0.66    0.07
   5   9   4    0.55    0.07
   5   9   4    0.59    0.07
  -4  -9  -3    8.93    0.36
  -4  -9  -3    8.52    0.28
   4   9   3    8.56    0.27
   4   9   3    8.34    0.26
  -3  -9  -2    6.00    0.22
  -3  -9  -2    6.26    0.28
   3   9   2    6.45    0.21
   3   9   2    6.18    0.21
  -2  -9  -1    0.45    0.06
  -2  -9  -1    0.63    0.10
   2   9   1    0.38    0.05
   2   9   1    0.40    0.05
  -1  -9   0    0.09    0.07
  -1  -9   0   -0.02    0.03
   1   9   0   -0.02    0.03
   1   9   0    0.02    0.03
   0  -9   1    0.60    0.06
   0  -9   1    0.65    0.08
   0   9  -1    0.57    0.06
   0   9  -1    0.56    0.06
   1  -9   2    3.79    0.16
   1  -9   2    3.90    0.20
  -1   9  -2    3.93    0.16
   2  -9   3    3.12    0.14
   2  -9   3    3.21    0.18
  -2   9  -3    3.09    0.14
   3  -9   4    3.51    0.16
  -3   9  -4    3.39    0.15
  -4   9  -5    0.40    0.06
  -6 -10  -5    1.30    0.10
   6  10   5    1.18    0.10
   6  10   5    1.20    0.09
  -5 -10  -4   -0.04    0.04
   5  10   4   -0.02    0.04
   5  10   4    0.02    0.04
  -4 -10  -3    6.56    0.24
  -4 -10  -3    6.33    0.30
   4  10   3    6.04    0.21
   4  10   3    5.79    0.21
  -3 -10  -2    4.74    0.20
  -3 -10  -2    5.14    0.25
   3  10   2    4.76    0.18
   3  10   2    4.87    0.18
  -2 -10  -1    0.87    0.08
  -2 -10  -1    0.91    0.10
   2  10   1    1.02    0.07
   2  10   1    0.96    0.08
  -1 -10   0    2.72    0.16
  -1 -10   0    2.65    0.14
   1  10   0    2.68    0.12
   1  10   0    2.74    0.12
   0 -10   1    0.44    0.07
   0 -10   1    0.61    0.11
   0  10  -1    0.53    0.06
   0  10  -1    0.45    0.05
   1 -10   2    1.03    0.09
   1 -10   2    1.10    0.11
  -1  10  -2    1.10    0.09
   2 -10   3    0.87    0.09
   2 -10   3    0.84    0.10
  -2  10  -3    0.87    0.08
   3 -10   4    0.02    0.08
   3 -10   4    0.05    0.04
  -3  10  -4    0.05    0.04
  -5 -11  -4    0.50    0.07
   5  11   4    0.50    0.07
   5  11   4    0.61    0.08
  -4 -11  -3    6.71    0.25
   4  11   3    6.76    0.24
   4  11   3    6.53    0.23
  -3 -11  -2   -0.02    0.04
  -3 -11  -2   -0.02    0.08
   3  11   2    0.02    0.04
   3  11   2    0.01    0.04
  -2 -11  -1    1.25    0.11
  -2 -11  -1    1.36    0.13
   2  11   1    1.40    0.10
   2  11   1    1.47    0.09
  -1 -11   0    1.47    0.11
  -1 -11   0    1.52    0.13
   1  11   0    1.63    0.09
   1  11   0    1.51    0.10
   0 -11   1    1.89    0.12
   0 -11   1    1.80    0.14
   0  11  -1    1.77    0.11
   1 -11   2    1.01    0.09
   1 -11   2    0.97    0.11
  -1  11  -2    0.95    0.09
   2 -11   3    4.71    0.25
   2 -11   3    4.80    0.21
  -2  11  -3    4.58    0.20
  -2 -12  -1    0.01    0.05
   2  12   1    0.04    0.04
   0  12   2   -0.01    0.05
   0 -12  -2    0.05    0.08
   0 -12  -2   -0.03    0.04
   1  12   3    0.63    0.07
   1  12   3    0.58    0.06
  -1 -12  -3    0.68    0.08
  -1 -12  -3    0.97    0.14
   2  12   4    0.08    0.05
   2  12   4    0.10    0.05
  -2 -12  -4    0.06    0.05
  -2 -12  -4    0.00    0.08
  -3  11  -1    0.26    0.07
   3 -11   1    0.58    0.12
   3 -11   1    0.25    0.06
  -2  11   0    1.00    0.09
   2 -11   0    1.08    0.11
   2 -11   0    1.14    0.10
  -1  11   1    0.37    0.07
   1 -11  -1    0.34    0.07
   1 -11  -1    0.67    0.11
   0  11   2    1.19    0.08
   0  11   2    1.12    0.09
   0 -11  -2    1.25    0.10
   0 -11  -2    1.31    0.11
   1  11   3    0.06    0.04
   1  11   3   -0.01    0.04
  -1 -11  -3    0.03    0.07
  -1 -11  -3    0.04    0.04
   2  11   4    0.19    0.05
   2  11   4    0.12    0.04
  -2 -11  -4    0.18    0.09
  -2 -11  -4    0.19    0.06
   3  11   5    0.05    0.05
   3  11   5    0.12    0.05
  -3 -11  -5    0.11    0.05
  -3 -11  -5    0.08    0.09
   4  11   6    0.12    0.05
   4  11   6    0.22    0.05
  -4 -11  -6    0.24    0.11
  -4 -11  -6    0.10    0.05
  -4  10  -2    7.47    0.27
  -3  10  -1    1.23    0.10
   3 -10   1    1.15    0.09
   3 -10   1    1.17    0.10
  -2  10   0    0.50    0.07
   2 -10   0    0.59    0.10
   2 -10   0    0.46    0.06
  -1  10   1    5.33    0.20
   1 -10  -1    5.34    0.20
   1 -10  -1    5.21    0.23
   0  10   2    0.25    0.04
   0  10   2    0.19    0.05
   0 -10  -2    0.17    0.05
   0 -10  -2    0.41    0.09
   1  10   3    0.09    0.04
   1  10   3    0.11    0.04
  -1 -10  -3    0.05    0.04
  -1 -10  -3    0.21    0.08
   2  10   4    1.75    0.10
   2  10   4    1.91    0.10
  -2 -10  -4    1.63    0.11
  -2 -10  -4    1.87    0.13
   3  10   5    1.69    0.10
   3  10   5    1.64    0.09
  -3 -10  -5    1.64    0.13
  -3 -10  -5    1.64    0.11
   4  10   6    3.60    0.15
   4  10   6    3.65    0.15
  -4 -10  -6    3.59    0.21
  -4 -10  -6    3.63    0.16
   5  10   7    0.40    0.06
   5  10   7    0.43    0.07
  -5 -10  -7    0.42    0.12
  -5 -10  -7    0.29    0.06
  -5   9  -3    0.21    0.06
  -4   9  -2    0.44    0.06
   4  -9   2    0.52    0.06
  -3   9  -1    0.13    0.05
   3  -9   1    0.11    0.04
  -2   9   0    0.00    0.03
   2  -9   0   -0.03    0.03
   2  -9   0   -0.02    0.06
  -1   9   1    2.79    0.12
  -1   9   1    2.81    0.11
   1  -9  -1    2.84    0.13
   1  -9  -1    2.78    0.15
   0   9   2    3.30    0.13
   0   9   2    3.29    0.12
   0  -9  -2    3.55    0.17
   0  -9  -2    3.31    0.14
   1   9   3    1.77    0.09
   1   9   3    1.78    0.09
  -1  -9  -3    1.75    0.10
  -1  -9  -3    1.81    0.12
   2   9   4    2.86    0.12
   2   9   4    2.79    0.12
  -2  -9  -4    2.72    0.13
  -2  -9  -4    2.68    0.15
   3   9   5    1.39    0.08
   3   9   5    1.40    0.09
  -3  -9  -5    1.47    0.12
  -3  -9  -5    1.43    0.09
   4   9   6    1.54    0.09
   4   9   6    1.69    0.10
  -4  -9  -6    1.57    0.10
  -4  -9  -6    1.66    0.13
   5   9   7   13.59    0.40
   5   9   7   14.27    0.40
  -5  -9  -7   14.24    0.55
  -5  -9  -7   14.34    0.42
   6   9   8    0.02    0.05
   6   9   8    0.08    0.04
  -6  -9  -8    0.04    0.05
  -6   8  -4    0.04    0.05
   6  -8   4    0.07    0.04
  -5   8  -3    1.97    0.12
  -4   8  -2    7.42    0.25
   4  -8   2    7.36    0.24
  -3   8  -1    2.20    0.11
   3  -8   1    2.22    0.11
  -2   8   0   12.28    0.35
   2  -8   0   12.52    0.36
  -1   8   1    0.64    0.06
  -1   8   1    0.54    0.05
   1  -8  -1    0.62    0.06
   1  -8  -1    0.57    0.06
   0   8   2    4.63    0.16
   0   8   2    4.88    0.15
   0  -8  -2    4.74    0.20
   0  -8  -2    4.52    0.20
   0  -8  -2    4.63    0.17
   1   8   3    0.20    0.03
   1   8   3    0.13    0.03
  -1  -8  -3    0.16    0.04
  -1  -8  -3    0.15    0.04
  -1  -8  -3    0.24    0.06
   2   8   4   10.00    0.29
   2   8   4    9.74    0.28
  -2  -8  -4   10.23    0.31
  -2  -8  -4   10.20    0.38
  -2  -8  -4   10.42    0.35
   3   8   5    7.69    0.23
   3   8   5    7.68    0.23
  -3  -8  -5    7.63    0.25
  -3  -8  -5    7.73    0.31
   4   8   6    3.83    0.14
   4   8   6    3.71    0.15
  -4  -8  -6    3.83    0.15
  -4  -8  -6    3.87    0.20
   5   8   7   -0.03    0.03
   5   8   7   -0.05    0.03
  -5  -8  -7   -0.03    0.07
  -5  -8  -7    0.01    0.04
   6   8   8    2.78    0.13
   6   8   8    2.81    0.13
  -6  -8  -8    2.93    0.13
   7   8   9    1.01    0.09
   7   8   9    0.97    0.09
  -7   7  -5    0.73    0.09
   7  -7   5    0.66    0.07
  -6   7  -4    0.04    0.04
   6  -7   4    0.04    0.04
  -5   7  -3    0.51    0.06
   5  -7   3    0.59    0.06
  -4   7  -2    2.58    0.12
   4  -7   2    2.57    0.11
  -3   7  -1    1.24    0.08
   3  -7   1    1.28    0.09
   3  -7   1    1.18    0.08
  -2   7   0    7.33    0.19
  -2   7   0    6.95    0.22
   2  -7   0    6.83    0.26
   2  -7   0    6.86    0.22
  -1   7   1    4.38    0.15
  -1   7   1    4.41    0.13
   1  -7  -1    4.23    0.15
   1  -7  -1    4.38    0.18
   1  -7  -1    4.30    0.18
   0   7   2    0.04    0.02
   0   7   2    0.03    0.02
   0  -7  -2    0.11    0.04
   0  -7  -2    0.08    0.04
   0  -7  -2    0.01    0.03
   1   7   3    0.05    0.02
   1   7   3    0.09    0.03
  -1  -7  -3    0.11    0.05
  -1  -7  -3    0.07    0.03
  -1  -7  -3    0.06    0.03
   2   7   4   21.09    0.52
   2   7   4   20.96    0.53
  -2  -7  -4   21.23    0.64
  -2  -7  -4   20.47    0.55
  -2  -7  -4   20.07    0.71
   3   7   5    0.42    0.05
   3   7   5    0.40    0.05
  -3  -7  -5    0.45    0.06
  -3  -7  -5    0.68    0.09
  -3  -7  -5    0.37    0.05
   4   7   6    5.07    0.17
   4   7   6    4.72    0.16
  -4  -7  -6    5.10    0.23
  -4  -7  -6    4.90    0.20
  -4  -7  -6    4.96    0.17
   5   7   7    4.01    0.15
   5   7   7    4.02    0.15
  -5  -7  -7    4.21    0.22
  -5  -7  -7    4.05    0.15
  -5  -7  -7    4.22    0.18
   6   7   8    3.45    0.15
   6   7   8    3.47    0.14
  -6  -7  -8    3.62    0.15
   7   7   9    0.65    0.07
   7   7   9    0.69    0.07
  -7   6  -5    0.00    0.04
   7  -6   5    0.00    0.04
  -6   6  -4    1.49    0.10
   6  -6   4    1.29    0.09
  -5   6  -3   13.88    0.40
   5  -6   3   13.67    0.38
  -4   6  -2   37.14    0.95
   4  -6   2   38.50    0.96
  -3   6  -1    0.84    0.06
   3  -6   1    0.89    0.07
   3  -6   1    0.90    0.06
  -2   6   0    4.97    0.13
  -2   6   0    4.64    0.15
   2  -6   0    4.72    0.16
   2  -6   0    4.57    0.18
  -1   6   1    1.90    0.07
  -1   6   1    1.91    0.08
   1  -6  -1    2.04    0.10
   1  -6  -1    2.04    0.09
   1  -6  -1    1.97    0.10
   0   6   2   13.51    0.33
   0   6   2   13.30    0.35
   0   6   2   13.47    0.42
   0  -6  -2   13.32    0.45
   0  -6  -2   12.94    0.36
   0  -6  -2   12.88    0.42
   1   6   3   51.10    1.43
   1   6   3   49.40    1.19
   1   6   3   49.76    1.16
  -1  -6  -3   48.53    1.24
  -1  -6  -3   48.79    1.43
  -1  -6  -3   49.33    1.60
   2   6   4    1.66    0.08
   2   6   4    1.84    0.08
  -2  -6  -4    1.72    0.08
  -2  -6  -4    1.79    0.09
  -2  -6  -4    1.81    0.10
   3   6   5    0.12    0.03
   3   6   5    0.08    0.03
  -3  -6  -5    0.10    0.03
  -3  -6  -5    0.07    0.03
  -3  -6  -5    0.16    0.06
   4   6   6    0.12    0.03
   4   6   6    0.07    0.03
  -4  -6  -6    0.08    0.03
  -4  -6  -6    0.08    0.06
  -4  -6  -6    0.07    0.03
   5   6   7    2.38    0.11
   5   6   7    2.60    0.11
  -5  -6  -7    2.53    0.11
  -5  -6  -7    2.60    0.12
  -5  -6  -7    2.39    0.16
   6   6   8    0.05    0.04
   6   6   8   -0.01    0.04
  -6  -6  -8   -0.02    0.03
   7   6   9    0.42    0.06
   7   6   9    0.41    0.06
   8   6  10    0.02    0.04
   8  -5   6    1.78    0.11
  -7   5  -5    0.62    0.07
   7  -5   5    0.77    0.08
  -6   5  -4    4.62    0.18
   6  -5   4    4.92    0.17
  -5   5  -3    4.28    0.16
   5  -5   3    4.24    0.15
  -4   5  -2   43.10    1.09
  -4   5  -2   44.66    1.28
   4  -5   2   45.22    1.11
  -3   5  -1   48.14    1.07
  -3   5  -1   48.25    1.35
  -3   5  -1   45.37    1.14
   3  -5   1   45.41    1.35
   3  -5   1   46.61    1.16
  -2   5   0   32.45    0.75
  -2   5   0   31.50    0.79
  -2   5   0   33.13    0.94
   2  -5   0   31.03    0.94
   2  -5   0   33.15    1.05
   2  -5   0   32.18    0.81
  -1   5   1   18.66    0.56
  -1   5   1   18.60    0.47
   1  -5  -1   18.48    0.49
   1  -5  -1   18.26    0.56
   1  -5  -1   19.63    0.62
   0   5   2   16.62    0.42
   0   5   2   16.46    0.41
   0   5   2   17.34    0.51
   0  -5  -2   16.83    0.55
   0  -5  -2   16.86    0.44
   0  -5  -2   16.26    0.51
   1   5   3    8.38    0.23
   1   5   3    8.12    0.22
  -1  -5  -3    8.33    0.30
  -1  -5  -3    8.40    0.24
  -1  -5  -3    8.66    0.28
   2   5   4   48.80    1.25
   2   5   4   45.02    1.08
   2   5   4   46.19    1.11
  -2  -5  -4   46.53    1.15
  -2  -5  -4   44.81    1.32
  -2  -5  -4   45.31    1.50
   3   5   5    0.02    0.02
   3   5   5    0.00    0.02
   3   5   5    0.04    0.02
  -3  -5  -5    0.02    0.02
  -3  -5  -5    0.00    0.04
  -3  -5  -5    0.00    0.02
   4   5   6    7.52    0.24
   4   5   6    7.70    0.22
   4   5   6    7.21    0.21
  -4  -5  -6    7.27    0.30
  -4  -5  -6    7.34    0.22
  -4  -5  -6    7.75    0.26
   5   5   7    0.05    0.03
   5   5   7    0.11    0.03
  -5  -5  -7   -0.11    0.07
  -5  -5  -7    0.09    0.03
  -5  -5  -7    0.05    0.03
   6   5   8    0.22    0.04
   6   5   8    0.21    0.04
   7   5   9    4.45    0.16
   7   5   9    4.74    0.20
   7   5   9    4.61    0.17
   8   5  10    0.03    0.05
   8   5  10    0.24    0.05
   8  -4   6    1.52    0.10
   7  -4   5   14.21    0.40
  -6   4  -4   30.48    0.80
   6  -4   4   31.45    0.79
  -5   4  -3    2.08    0.10
   5  -4   3    2.13    0.10
  -4   4  -2   30.52    0.87
  -4   4  -2   29.42    0.75
   4  -4   2   29.59    0.74
   4  -4   2   29.52    0.75
  -3   4  -1    6.34    0.15
  -3   4  -1    6.12    0.19
  -3   4  -1    6.06    0.21
   3  -4   1    6.10    0.21
   3  -4   1    6.18    0.18
   3  -4   1    6.23    0.23
  -2   4   0    5.09    0.18
  -2   4   0    5.26    0.13
   2  -4   0    5.45    0.19
   2  -4   0    4.92    0.18
   2  -4   0    5.08    0.15
  -1   4   1   36.20    0.88
  -1   4   1   36.10    1.05
   1  -4  -1   36.12    0.91
   1  -4  -1   39.57    1.18
   1  -4  -1   35.21    1.05
   0   4   2   50.58    1.41
   0   4   2   48.84    1.14
   0   4   2   49.62    1.18
   0   4   2   51.66    1.35
   0  -4  -2   49.44    1.22
   0  -4  -2   49.68    1.58
   0  -4  -2   46.57    1.41
   1   4   3    2.37    0.08
   1   4   3    2.34    0.08
   1   4   3    2.35    0.08
   1   4   3    2.45    0.07
  -1  -4  -3    2.42    0.10
  -1  -4  -3    2.29    0.10
  -1  -4  -3    2.28    0.08
   2   4   4   37.21    0.89
   2   4   4   36.10    0.86
   2   4   4   37.42    0.92
   2   4   4   38.30    1.01
  -2  -4  -4   35.82    1.20
  -2  -4  -4   37.30    0.92
  -2  -4  -4   36.14    1.06
   3   4   5   28.54    0.72
   3   4   5   29.60    0.79
   3   4   5   27.79    0.68
   3   4   5   28.53    0.70
  -3  -4  -5   28.54    0.72
  -3  -4  -5   28.17    0.83
  -3  -4  -5   28.42    0.95
   4   4   6   11.48    0.30
   4   4   6   11.14    0.31
   4   4   6   11.47    0.30
  -4  -4  -6   11.43    0.31
  -4  -4  -6   11.34    0.42
   5   4   7    8.31    0.23
   5   4   7    7.99    0.24
   5   4   7    8.26    0.24
  -5  -4  -7    8.44    0.24
   6   4   8    0.04    0.03
   6   4   8   -0.01    0.03
   7   4   9    0.00    0.03
   7   4   9    0.01    0.03
   8   4  10    0.69    0.09
   8  -3   6    1.47    0.09
   7  -3   5    9.46    0.29
   6  -3   4   -0.04    0.03
  -5   3  -3   29.39    0.82
  -5   3  -3   27.68    0.72
   5  -3   3   27.49    0.70
  -4   3  -2    1.58    0.08
  -4   3  -2    1.58    0.08
   4  -3   2    1.63    0.07
   4  -3   2    1.62    0.06
  -3   3  -1   25.25    0.72
  -3   3  -1   24.80    0.62
  -3   3  -1   24.35    0.57
   3  -3   1   24.28    0.57
   3  -3   1   25.71    0.81
   3  -3   1   24.32    0.72
   3  -3   1   24.90    0.62
  -2   3   0    0.41    0.03
  -2   3   0    0.45    0.03
  -2   3   0    0.48    0.02
   2  -3   0    0.46    0.03
   2  -3   0    0.47    0.03
   2  -3   0    0.42    0.03
  -1   3   1  480.96   12.78
  -1   3   1  462.98   13.33
   1  -3  -1  480.71   11.57
   1  -3  -1  468.89   13.35
   0   3   2  400.45   13.02
   0   3   2  457.45   11.07
   0   3   2  474.32   10.69
   0   3   2  494.97   11.46
   0  -3  -2  495.40   13.23
   0  -3  -2  491.55   11.44
   0  -3  -2  462.89   14.97
   1   3   3  104.83    2.55
   1   3   3  105.01    2.46
   1   3   3  102.81    2.38
   1   3   3  108.11    2.84
  -1  -3  -3  104.59    3.32
  -1  -3  -3  102.30    2.94
  -1  -3  -3  104.11    2.54
   2   3   4  121.26    2.93
   2   3   4  120.36    2.84
   2   3   4  118.44    3.25
   2   3   4  118.74    2.75
  -2  -3  -4  122.14    2.93
  -2  -3  -4  121.97    3.84
   3   3   5    0.02    0.02
   3   3   5    0.01    0.01
   3   3   5   -0.01    0.02
  -3  -3  -5    0.00    0.02
   4   3   6    9.61    0.27
   4   3   6    9.91    0.26
   4   3   6    9.74    0.26
  -4  -3  -6    9.91    0.27
  -4  -3  -6   10.04    0.37
   5   3   7   45.45    1.14
   5   3   7   45.57    1.08
   5   3   7   45.83    1.11
  -5  -3  -7   46.51    1.14
  -5  -3  -7   46.41    1.53
   6   3   8   19.64    0.49
   6   3   8   19.20    0.50
   7   3   9    2.89    0.12
   7   3   9    2.99    0.12
   9  -2   7    0.00    0.04
   8  -2   6    2.45    0.12
   7  -2   5    2.31    0.11
   6  -2   4   44.71    1.10
  -5   2  -3   62.28    1.72
   5  -2   3   58.85    1.46
  -4   2  -2   12.51    0.34
  -4   2  -2   12.75    0.38
   4  -2   2   12.62    0.33
   4  -2   2   12.74    0.30
   4  -2   2   12.94    0.32
   4  -2   2   13.16    0.32
  -3   2  -1   21.53    0.62
   3  -2   1   21.33    0.50
   3  -2   1   22.16    0.70
   3  -2   1   21.33    0.62
   3  -2   1   21.39    0.53
   3  -2   1   21.40    0.53
  -2   2   0    2.47    0.07
  -2   2   0    2.42    0.08
   2  -2   0    2.38    0.09
   2  -2   0    2.65    0.07
   2  -2   0    2.41    0.09
  -1   2   1  539.12   12.60
  -1   2   1  463.04   12.18
  -1   2   1  530.34   14.54
   1  -2  -1  521.37   12.59
   1  -2  -1  528.82   14.55
   0   2   2  400.71    9.80
   0   2   2  452.92   11.24
   0   2   2  446.93   10.13
   0   2   2  405.19    9.46
   0  -2  -2  364.97   13.60
   1   2   3  203.88    4.89
   1   2   3  197.54    4.72
   1   2   3  186.28    4.55
  -1  -2  -3  205.29    6.38
   2   2   4   15.07    0.42
   2   2   4   14.38    0.38
   2   2   4   14.69    0.36
   2   2   4   14.81    0.36
  -2  -2  -4   14.83    0.50
   3   2   5   16.75    0.40
   3   2   5   16.10    0.42
   3   2   5   16.71    0.41
  -3  -2  -5   16.40    0.57
   4   2   6    0.40    0.03
   4   2   6    0.37    0.04
   4   2   6    0.43    0.04
  -4  -2  -6    0.53    0.08
   5   2   7   23.22    0.60
   5   2   7   23.38    0.59
   5   2   7   23.58    0.57
  -5  -2  -7   23.36    0.81
  -5  -2  -7   23.65    0.60
   6   2   8   27.03    0.65
   6   2   8   26.43    0.67
   7   2   9    5.25    0.18
   9  -1   7    0.56    0.07
   8  -1   6    1.01    0.08
   7  -1   5    4.04    0.15
   6  -1   4    8.90    0.26
  -5   1  -3    0.32    0.03
   5  -1   3    0.48    0.04
   5  -1   3    0.38    0.03
  -4   1  -2    2.46    0.09
   4  -1   2    2.57    0.07
   4  -1   2    2.53    0.09
  -3   1  -1    0.39    0.02
   3  -1   1    0.48    0.02
   3  -1   1    0.41    0.03
   3  -1   1    0.48    0.02
   3  -1   1    0.42    0.02
  -2   1   0   59.85    1.59
  -2   1   0   57.86    1.66
  -2   1   0   59.54    1.46
  -2   1   0   58.30    1.40
   2  -1   0   56.76    1.39
   2  -1   0   59.63    1.44
   2  -1   0   59.70    1.35
   2  -1   0   58.22    1.89
   2  -1   0   59.39    1.91
   2  -1   0   58.84    1.67
  -1   1   1   28.62    0.72
  -1   1   1   29.32    0.70
  -1   1   1   29.65    0.79
  -1   1   1   29.39    0.67
   1  -1  -1   28.46    0.69
   0   1   2  198.11    4.77
   0   1   2  222.25    5.66
   0   1   2  200.22    5.01
   0   1   2  209.55    5.12
   0  -1  -2  212.95    5.00
   0  -1  -2  203.43    6.75
   1   1   3   79.81    1.90
   1   1   3   80.30    2.03
   1   1   3   84.62    2.01
   1   1   3   84.77    2.25
  -1  -1  -3   86.15    1.98
  -1  -1  -3   84.48    2.66
   2   1   4  110.08    2.76
   2   1   4  116.76    3.06
   2   1   4  106.50    2.58
   2   1   4  116.68    2.70
  -2  -1  -4  117.61    3.62
   3   1   5   81.15    1.86
   3   1   5   77.51    1.80
   3   1   5   77.66    1.93
   4   1   6    1.49    0.06
   4   1   6    1.52    0.06
   4   1   6    1.46    0.06
  -4  -1  -6    1.51    0.10
   5   1   7   39.41    0.99
   5   1   7   39.76    0.93
   5   1   7   39.84    0.96
  -5  -1  -7   39.41    1.32
   6   1   8   -0.02    0.03
   7   1   9    1.35    0.08
   9   0   7    0.18    0.05
   8   0   6    5.68    0.20
   7   0   5   70.21    1.70
   6   0   4   30.04    0.70
   6   0   4   29.23    0.74
  -5   0  -3    0.65    0.03
   5   0   3    0.62    0.05
   5   0   3    0.65    0.04
  -4   0  -2   30.63    0.88
   4   0   2   31.47    0.71
   4   0   2   29.54    0.74
   3   0   1   69.28    1.52
   3   0   1   63.60    1.57
  -2   0   0  425.59   10.61
  -2   0   0  493.09   11.68
   2   0   0  463.19    9.86
   2   0   0  391.98   10.15
   2   0   0  383.24   13.11
   2   0   0  422.66   10.56
  -1   0   1    9.12    0.23
  -1   0   1    8.95    0.25
  -1   0   1    8.58    0.21
   1   0  -1    8.89    0.29
   1   0  -1    8.76    0.21
   1   0  -1    8.94    0.22
   0   0   2   23.38    0.55
   0   0   2   23.67    0.66
   0   0  -2   24.26    0.78
   0   0  -2   24.94    0.70
   1   0   3    1.83    0.05
   1   0   3    1.92    0.05
   1   0   3    1.85    0.06
   1   0   3    1.83    0.05
   1   0   3    1.84    0.07
  -1   0  -3    1.90    0.08
   2   0   4   49.42    1.17
   2   0   4   49.69    1.13
   2   0   4   49.66    1.35
   2   0   4   48.04    1.21
   3   0   5    7.53    0.20
   3   0   5    7.60    0.21
   3   0   5    7.49    0.19
  -3   0  -5    7.67    0.29
   4   0   6   24.06    0.63
   4   0   6   25.35    0.62
   4   0   6   24.80    0.59
  -4   0  -6   26.04    0.85
   5   0   7   40.40    1.02
   5   0   7   41.36    0.95
   5   0   7   40.95    0.99
   6   0   8    0.77    0.06
   7   0   9    1.17    0.08
   9   1   7    6.54    0.23
   8   1   6    6.42    0.22
   7   1   5   56.08    1.37
   6   1   4   15.29    0.37
   6   1   4   14.66    0.40
   5   1   3   14.23    0.38
   5   1   3   14.90    0.36
  -4  -1  -2   49.25    1.20
  -4  -1  -2   48.60    1.20
   4   1   2   48.82    1.13
   4   1   2   50.27    1.20
   4   1   2   47.25    1.17
  -3  -1  -1   62.79    1.53
   3   1   1   63.90    1.53
   3   1   1   59.71    1.48
   3   1   1   63.67    1.44
  -2  -1   0   68.95    1.85
  -2  -1   0   68.35    1.67
   2   1   0   70.03    1.56
   2   1   0   67.57    1.61
   2   1   0   68.63    2.18
   2   1   0   66.18    1.98
  -1  -1   1  460.17   13.37
   1   1  -1  530.73   15.84
   1   1  -1  547.09   11.36
   1   1  -1  442.20   12.38
   0  -1   2  166.61    3.97
   0  -1   2  157.24    4.37
   0  -1   2  162.13    3.81
   0   1  -2  161.71    5.16
   0   1  -2  163.12    3.69
   0   1  -2  150.68    3.82
   1  -1   3  193.62    5.11
   1  -1   3  191.35    4.30
   1  -1   3  200.60    4.62
  -1   1  -3  184.68    4.45
  -1   1  -3  166.09    4.30
   2  -1   4   10.71    0.25
   2  -1   4   10.71    0.27
   2  -1   4   10.45    0.32
  -2   1  -4   10.80    0.27
  -2   1  -4   10.81    0.38
   3  -1   5    8.20    0.22
   3  -1   5    8.48    0.20
   3  -1   5    8.19    0.23
  -3   1  -5    8.28    0.31
   4  -1   6   20.07    0.47
   4  -1   6   19.74    0.51
   4  -1   6   20.02    0.50
  -4   1  -6   19.71    0.69
   5  -1   7   16.01    0.42
   5  -1   7   16.03    0.42
   6  -1   8    4.07    0.14
   7  -1   9    4.94    0.17
   8  -1  10    0.12    0.06
   9   2   7    9.82    0.31
   8   2   6    7.40    0.24
   7   2   5    0.61    0.06
   7   2   5    0.67    0.05
   6   2   4   11.90    0.31
   6   2   4   11.64    0.33
  -5  -2  -3    4.25    0.12
  -5  -2  -3    4.40    0.19
  -5  -2  -3    4.40    0.13
   5   2   3    4.32    0.13
   5   2   3    4.04    0.14
  -4  -2  -2  103.81    3.26
  -4  -2  -2  102.47    2.91
  -4  -2  -2  103.03    2.49
   4   2   2   98.98    2.42
   4   2   2  102.65    2.34
  -3  -2  -1  115.68    3.24
  -3  -2  -1  113.09    2.79
  -3  -2  -1  113.19    3.61
   3   2   1  110.82    2.67
   3   2   1  117.24    2.59
   3   2   1  110.08    3.23
  -2  -2   0    6.46    0.19
  -2  -2   0    6.44    0.23
  -2  -2   0    6.54    0.18
   2   2   0    6.87    0.24
   2   2   0    6.46    0.17
   2   2   0    6.39    0.20
   2   2   0    6.65    0.17
  -1  -2   1   65.12    1.57
  -1  -2   1   63.91    2.04
  -1  -2   1   61.73    1.73
   1   2  -1   63.41    1.51
   1   2  -1   64.49    1.81
   1   2  -1   66.06    1.47
   1   2  -1   63.60    2.05
   0  -2   2    0.21    0.02
   0  -2   2    0.20    0.03
   0  -2   2    0.18    0.02
   0   2  -2    0.19    0.03
   0   2  -2    0.16    0.01
   0   2  -2    0.15    0.02
   1  -2   3  179.65    4.25
   1  -2   3  173.55    4.70
  -1   2  -3  183.17    5.60
  -1   2  -3  158.41    4.12
  -1   2  -3  179.97    4.03
   2  -2   4   40.30    1.00
   2  -2   4   39.85    1.11
  -2   2  -4   41.19    1.31
  -2   2  -4   40.03    0.93
  -2   2  -4   39.61    0.96
   3  -2   5    0.77    0.04
   3  -2   5    0.80    0.03
   3  -2   5    0.69    0.04
  -3   2  -5    0.77    0.03
  -3   2  -5    0.76    0.04
  -3   2  -5    0.80    0.07
   4  -2   6   11.58    0.30
   4  -2   6   11.17    0.31
  -4   2  -6   11.29    0.31
   5  -2   7    0.67    0.05
   5  -2   7    0.61    0.05
   6  -2   8    4.83    0.16
   7  -2   9   10.88    0.32
   8  -2  10    2.28    0.15
   9   3   7    2.63    0.14
   8   3   6    1.08    0.08
   8   3   6    1.17    0.07
   7   3   5    0.27    0.04
   7   3   5    0.25    0.04
   6   3   4   13.87    0.38
   6   3   4   14.36    0.37
  -5  -3  -3    0.10    0.02
  -5  -3  -3    0.15    0.05
  -5  -3  -3    0.15    0.02
   5   3   3    0.09    0.03
   5   3   3    0.13    0.03
  -4  -3  -2  126.93    3.44
  -4  -3  -2  122.38    2.98
  -4  -3  -2  121.82    3.90
   4   3   2  122.73    2.80
   4   3   2  118.11    2.89
  -3  -3  -1  124.34    3.47
  -3  -3  -1  120.34    3.32
  -3  -3  -1  128.72    3.92
  -3  -3  -1  124.09    3.00
   3   3   1  116.86    3.48
   3   3   1  125.65    2.82
   3   3   1  122.71    2.91
  -2  -3   0   34.66    0.94
  -2  -3   0   32.43    0.89
  -2  -3   0   32.46    0.82
  -2  -3   0   32.55    1.06
   2   3   0   32.41    0.79
   2   3   0   32.86    0.77
   2   3   0   31.88    0.93
  -1  -3   1  279.61    8.38
  -1  -3   1  327.79    7.65
   1   3  -1  325.99    8.81
   1   3  -1  339.21    7.12
   1   3  -1  290.85    9.91
   1   3  -1  300.00    7.36
   0  -3   2   10.84    0.31
   0  -3   2   10.56    0.37
   0  -3   2   10.62    0.29
   0   3  -2   11.14    0.37
   0   3  -2   10.61    0.26
   0   3  -2   10.43    0.27
   0   3  -2   10.85    0.33
  -1   3  -3    0.42    0.03
  -1   3  -3    0.45    0.04
  -1   3  -3    0.48    0.03
   2  -3   4  177.34    4.74
   2  -3   4  174.38    4.27
  -2   3  -4  169.21    4.13
  -2   3  -4  180.28    5.59
  -2   3  -4  177.86    4.02
   3  -3   5   56.68    1.44
   3  -3   5   57.29    1.60
  -3   3  -5   57.17    1.39
  -3   3  -5   59.28    1.88
  -3   3  -5   59.16    1.33
   4  -3   6   37.03    1.07
   4  -3   6   38.59    0.96
   4  -3   6   38.59    0.92
  -4   3  -6   37.30    0.93
   5  -3   7   26.18    0.65
  -5   3  -7   25.42    0.66
   6  -3   8    0.46    0.05
   6  -3   8    0.46    0.06
   7  -3   9    1.83    0.10
   7  -3   9    1.74    0.13
   9   4   7    1.14    0.10
   8   4   6    3.39    0.13
   8   4   6    3.28    0.15
   7   4   5    3.99    0.14
   7   4   5    3.88    0.15
   6   4   4   12.18    0.33
   6   4   4   11.96    0.34
  -5  -4  -3   20.63    0.70
  -5  -4  -3   20.40    0.58
  -5  -4  -3   19.84    0.52
   5   4   3   19.79    0.50
   5   4   3   19.40    0.52
  -4  -4  -2    0.07    0.02
  -4  -4  -2    0.00    0.04
  -4  -4  -2   -0.01    0.02
   4   4   2    0.02    0.02
   4   4   2    0.00    0.02
  -3  -4  -1   11.85    0.33
  -3  -4  -1   11.79    0.35
  -3  -4  -1   11.57    0.31
  -3  -4  -1   11.57    0.41
   3   4   1   11.54    0.35
   3   4   1   11.93    0.30
   3   4   1   11.30    0.31
  -2  -4   0    0.08    0.02
  -2  -4   0    0.08    0.02
  -2  -4   0    0.09    0.03
  -2  -4   0    0.06    0.02
   2   4   0    0.07    0.02
   2   4   0    0.13    0.04
   2   4   0    0.09    0.02
   2   4   0    0.04    0.02
  -1  -4   1    3.20    0.14
  -1  -4   1    3.13    0.11
  -1  -4   1    3.36    0.11
   1   4  -1    3.23    0.10
   1   4  -1    3.38    0.14
   1   4  -1    3.38    0.13
   1   4  -1    3.28    0.10
   0  -4   2   55.71    1.50
   0  -4   2   54.96    1.78
   0  -4   2   54.86    1.37
   0   4  -2   53.67    1.32
   0   4  -2   55.97    1.28
   0   4  -2   57.00    1.79
   0   4  -2   54.86    1.58
   1  -4   3    0.85    0.05
   1  -4   3    0.65    0.05
  -1   4  -3    0.62    0.04
  -1   4  -3    0.68    0.05
  -1   4  -3    0.65    0.06
  -1   4  -3    0.66    0.04
   2  -4   4   44.04    1.22
   2  -4   4   43.68    1.11
  -2   4  -4   44.88    1.44
  -2   4  -4   44.20    1.01
  -2   4  -4   44.35    1.28
  -2   4  -4   43.07    1.06
   3  -4   5    2.20    0.09
   3  -4   5    2.12    0.10
  -3   4  -5    2.14    0.09
   4  -4   6    3.77    0.13
   4  -4   6    3.71    0.14
   4  -4   6    3.69    0.16
  -4   4  -6    3.88    0.14
   5  -4   7   23.99    0.61
   5  -4   7   23.61    0.72
  -5   4  -7   24.63    0.63
   6  -4   8    0.43    0.05
   6  -4   8    0.36    0.07
   7  -4   9    4.87    0.22
   7  -4   9    4.60    0.17
   9   5   7    0.17    0.06
   9   5   7    0.13    0.05
   8   5   6    0.00    0.04
   8   5   6    0.03    0.04
   7   5   5    7.74    0.24
   7   5   5    7.60    0.25
  -6  -5  -4    0.45    0.05
   6   5   4    0.75    0.06
   6   5   4    0.43    0.05
  -5  -5  -3    7.87    0.25
  -5  -5  -3    7.67    0.23
  -5  -5  -3    7.79    0.31
   5   5   3    7.36    0.23
   5   5   3    7.51    0.22
  -4  -5  -2    3.69    0.14
  -4  -5  -2    3.44    0.12
  -4  -5  -2    3.43    0.16
   4   5   2    3.42    0.12
   4   5   2    3.54    0.13
   4   5   2    3.53    0.13
  -3  -5  -1    8.67    0.32
  -3  -5  -1    8.80    0.25
  -3  -5  -1    8.70    0.28
  -3  -5  -1    8.82    0.26
   3   5   1    8.73    0.28
   3   5   1    8.61    0.24
   3   5   1    8.82    0.24
  -2  -5   0   86.93    2.44
  -2  -5   0   89.48    2.22
  -2  -5   0   88.58    2.90
  -2  -5   0   92.27    2.56
   2   5   0   90.04    2.56
   2   5   0   91.95    2.09
   2   5   0   95.59    2.91
   2   5   0   89.49    2.15
  -1  -5   1    0.08    0.02
  -1  -5   1    0.04    0.04
  -1  -5   1    0.09    0.02
   1   5  -1    0.06    0.02
   1   5  -1    0.04    0.02
   1   5  -1    0.10    0.02
   1   5  -1    0.06    0.04
   0  -5   2   13.90    0.39
   0  -5   2   13.85    0.49
   0  -5   2   14.60    0.41
   0   5  -2   14.79    0.50
   0   5  -2   14.46    0.35
   0   5  -2   14.02    0.37
   0   5  -2   14.57    0.45
   1  -5   3    0.51    0.04
   1  -5   3    0.57    0.05
  -1   5  -3    0.55    0.04
  -1   5  -3    0.46    0.06
  -1   5  -3    0.46    0.03
   2  -5   4   76.63    2.11
   2  -5   4   78.23    1.92
  -2   5  -4   77.70    1.77
  -2   5  -4   76.92    1.85
   3  -5   5    3.76    0.14
   3  -5   5    3.77    0.15
  -3   5  -5    3.66    0.13
   4  -5   6    0.67    0.06
   4  -5   6    0.86    0.06
   4  -5   6    0.72    0.07
  -4   5  -6    0.79    0.06
   5  -5   7    0.29    0.05
   5  -5   7    0.23    0.04
  -5   5  -7    0.21    0.04
   6  -5   8    0.22    0.06
   6  -5   8    0.28    0.05
  -6   5  -8    0.28    0.05
   8   6   6    0.13    0.05
   8   6   6    0.07    0.05
   7   6   5   11.82    0.35
   7   6   5   11.56    0.33
  -6  -6  -4   -0.06    0.02
   6   6   4   -0.01    0.03
   6   6   4   -0.03    0.03
  -5  -6  -3    4.13    0.20
  -5  -6  -3    3.95    0.15
  -5  -6  -3    4.01    0.16
   5   6   3    3.78    0.15
   5   6   3    3.94    0.15
  -4  -6  -2    0.95    0.07
  -4  -6  -2    1.08    0.09
  -4  -6  -2    1.09    0.07
   4   6   2    0.95    0.07
   4   6   2    0.97    0.06
   4   6   2    1.11    0.07
  -3  -6  -1    2.37    0.10
  -3  -6  -1    2.42    0.11
   3   6   1    2.47    0.10
   3   6   1    2.43    0.10
   3   6   1    2.40    0.11
  -2  -6   0    0.34    0.03
  -2  -6   0    0.27    0.04
  -2  -6   0    0.24    0.04
  -2  -6   0    0.51    0.07
   2   6   0    0.27    0.04
   2   6   0    0.32    0.04
   2   6   0    0.34    0.04
  -1  -6   1   15.32    0.42
  -1  -6   1   14.78    0.52
  -1  -6   1   14.30    0.41
   1   6  -1   14.78    0.38
   1   6  -1   14.62    0.39
   1   6  -1   15.11    0.52
   0  -6   2    1.56    0.09
   0  -6   2    1.57    0.08
   0  -6   2    1.67    0.07
   0   6  -2    1.62    0.07
   0   6  -2    1.55    0.07
   1  -6   3    0.41    0.05
   1  -6   3    0.54    0.05
   1  -6   3    0.54    0.06
  -1   6  -3    0.51    0.04
  -1   6  -3    0.56    0.05
   2  -6   4   15.21    0.45
   2  -6   4   14.31    0.42
  -2   6  -4   14.79    0.40
   3  -6   5   13.34    0.38
   3  -6   5   13.70    0.42
  -3   6  -5   13.14    0.37
   4  -6   6    6.14    0.21
   4  -6   6    6.23    0.23
  -4   6  -6    6.00    0.20
   5  -6   7    0.61    0.07
   5  -6   7    0.64    0.06
  -5   6  -7    0.70    0.07
   6  -6   8    0.21    0.06
   6  -6   8    0.24    0.05
  -6   6  -8    0.25    0.05
   8   7   6    0.17    0.05
   8   7   6    0.14    0.05
   7   7   5    5.07    0.19
   7   7   5    5.05    0.19
  -6  -7  -4    1.42    0.09
   6   7   4    1.57    0.09
   6   7   4    1.43    0.09
  -5  -7  -3    0.45    0.06
   5   7   3    0.69    0.07
   5   7   3    0.52    0.06
  -4  -7  -2   58.05    1.64
  -4  -7  -2   57.30    1.43
   4   7   2   55.40    1.39
   4   7   2   57.29    1.35
  -3  -7  -1    5.28    0.18
  -3  -7  -1    5.34    0.24
  -3  -7  -1    5.70    0.21
   3   7   1    5.22    0.17
   3   7   1    5.45    0.18
  -2  -7   0   20.93    0.73
  -2  -7   0   20.93    0.57
  -2  -7   0   21.51    0.65
   2   7   0   21.45    0.53
   2   7   0   20.68    0.54
  -1  -7   1    6.57    0.27
  -1  -7   1    7.16    0.22
   1   7  -1    6.61    0.20
   1   7  -1    6.73    0.20
   0  -7   2    1.78    0.09
   0  -7   2    1.77    0.11
   0  -7   2    1.95    0.08
   0   7  -2    1.70    0.08
   0   7  -2    1.88    0.08
   1  -7   3   85.01    2.78
   1  -7   3   83.73    2.14
   1  -7   3   88.84    2.35
  -1   7  -3   87.05    1.98
  -1   7  -3   86.76    2.07
   2  -7   4    5.05    0.19
   2  -7   4    4.87    0.18
  -2   7  -4    5.03    0.17
   3  -7   5    0.03    0.03
   3  -7   5   -0.01    0.03
  -3   7  -5    0.02    0.04
   4  -7   6    3.93    0.17
   4  -7   6    3.82    0.16
  -4   7  -6    4.11    0.16
   5  -7   7    1.25    0.09
   5  -7   7    1.14    0.10
  -5   7  -7    1.28    0.09
   8   8   6   -0.02    0.04
   7   8   5    0.17    0.05
   7   8   5    0.09    0.04
  -6  -8  -4    7.72    0.25
   6   8   4    7.29    0.24
   6   8   4    6.84    0.24
  -5  -8  -3    5.97    0.21
   5   8   3    5.72    0.20
   5   8   3    5.50    0.20
  -4  -8  -2   15.00    0.57
  -4  -8  -2   15.94    0.50
  -4  -8  -2   15.62    0.44
   4   8   2   15.38    0.43
   4   8   2   15.38    0.42
  -3  -8  -1    7.22    0.27
  -3  -8  -1    7.43    0.24
  -3  -8  -1    7.24    0.30
   3   8   1    6.96    0.22
   3   8   1    7.25    0.22
  -2  -8   0    1.84    0.12
  -2  -8   0    1.90    0.13
  -2  -8   0    1.90    0.10
   2   8   0    1.87    0.09
   2   8   0    1.91    0.09
  -1  -8   1    0.49    0.09
  -1  -8   1    0.30    0.05
   1   8  -1    0.26    0.04
   1   8  -1    0.24    0.04
   0  -8   2   13.60    0.40
   0  -8   2   14.17    0.51
   0   8  -2   13.68    0.36
   0   8  -2   13.57    0.38
   1  -8   3    3.83    0.19
   1  -8   3    3.71    0.16
  -1   8  -3    3.69    0.15
   2  -8   4   22.03    0.77
   2  -8   4   21.45    0.61
  -2   8  -4   22.11    0.58
   3  -8   5    2.52    0.13
  -3   8  -5    2.29    0.12
   4  -8   6    1.48    0.10
   4  -8   6    1.36    0.09
  -4   8  -6    1.51    0.10
   5  -8   7    3.22    0.15
   5  -8   7    3.19    0.17
  -5   8  -7    3.19    0.15
   7   9   5    1.51    0.11
   7   9   5    1.54    0.11
  -6  -9  -4    0.17    0.05
   6   9   4    0.13    0.05
   6   9   4    0.14    0.05
  -5  -9  -3    0.99    0.09
   5   9   3    0.99    0.08
   5   9   3    0.95    0.08
  -4  -9  -2    5.95    0.27
  -4  -9  -2    5.97    0.22
   4   9   2    5.64    0.20
   4   9   2    5.64    0.20
  -3  -9  -1    2.98    0.14
  -3  -9  -1    3.17    0.18
   3   9   1    2.90    0.13
   3   9   1    2.87    0.13
  -2  -9   0    0.50    0.06
  -2  -9   0    0.82    0.11
   2   9   0    0.50    0.05
   2   9   0    0.53    0.05
  -1  -9   1    2.72    0.13
  -1  -9   1    2.88    0.16
   1   9  -1    2.95    0.13
   1   9  -1    3.01    0.12
   0  -9   2   13.82    0.51
   0  -9   2   13.51    0.41
   0   9  -2   13.88    0.39
   0   9  -2   13.88    0.36
   1  -9   3   12.20    0.37
   1  -9   3   12.13    0.46
  -1   9  -3   11.53    0.35
   2  -9   4   12.87    0.40
   2  -9   4   12.55    0.49
  -2   9  -4   13.33    0.38
   3  -9   5    0.17    0.05
   3  -9   5    0.13    0.09
  -3   9  -5    0.14    0.05
  -4   9  -6    3.83    0.17
  -6 -10  -4    0.10    0.05
   6  10   4    0.09    0.05
   6  10   4    0.10    0.05
  -5 -10  -3    0.12    0.05
   5  10   3    0.06    0.04
   5  10   3    0.13    0.05
  -4 -10  -2    0.03    0.05
   4  10   2    0.10    0.05
   4  10   2    0.03    0.04
  -3 -10  -1    4.44    0.19
  -3 -10  -1    4.67    0.23
   3  10   1    4.38    0.17
   3  10   1    4.21    0.17
  -2 -10   0    0.20    0.08
  -2 -10   0    0.26    0.06
   2  10   0    0.12    0.04
   2  10   0    0.18    0.05
  -1 -10   1    5.31    0.21
  -1 -10   1    5.37    0.25
   1  10  -1    5.33    0.18
   1  10  -1    5.12    0.19
   0 -10   2    0.76    0.08
   0 -10   2    0.82    0.09
   0  10  -2    0.77    0.08
   1 -10   3    0.92    0.09
   1 -10   3    1.07    0.11
  -1  10  -3    0.92    0.08
   2 -10   4    2.35    0.14
   2 -10   4    2.38    0.16
  -2  10  -4    2.47    0.13
   3 -10   5    0.24    0.06
  -5 -11  -3    0.28    0.07
   5  11   3    0.29    0.06
  -4 -11  -2    1.47    0.11
   4  11   2    1.44    0.10
   4  11   2    1.34    0.10
  -3 -11  -1    0.10    0.05
  -3 -11  -1    0.13    0.09
   3  11   1    0.02    0.04
   3  11   1    0.03    0.04
  -2 -11   0    0.09    0.05
  -2 -11   0    0.21    0.09
   2  11   0    0.12    0.05
   2  11   0    0.11    0.04
  -1 -11   1    0.88    0.11
  -1 -11   1    0.79    0.09
   1  11  -1    0.78    0.08
   1  11  -1    0.80    0.08
   0 -11   2    1.00    0.14
   0 -11   2    0.66    0.08
   0  11  -2    0.67    0.08
   1 -11   3    2.14    0.14
   1 -11   3    1.96    0.15
  -1  11  -3    2.01    0.12
   1 -12  -2    1.63    0.12
   0  12   3    0.48    0.07
   0 -12  -3    0.76    0.12
   0 -12  -3    0.42    0.07
   1  12   4    0.17    0.05
   1  12   4    0.22    0.05
  -1 -12  -4    0.15    0.05
  -1 -12  -4    0.38    0.10
   2  12   5    1.98    0.12
  -2 -12  -5    1.74    0.14
  -2 -12  -5    1.72    0.13
  -3  11   0    0.13    0.06
   3 -11   0    0.17    0.08
   3 -11   0    0.05    0.05
  -2  11   1    1.19    0.10
   2 -11  -1    1.19    0.11
   2 -11  -1    1.24    0.10
  -1  11   2    5.19    0.20
   1 -11  -2    5.46    0.22
   1 -11  -2    5.35    0.24
   0  11   3    0.75    0.07
   0  11   3    0.78    0.07
   0 -11  -3    0.81    0.09
   0 -11  -3    0.86    0.09
   1  11   4   -0.02    0.04
   1  11   4    0.02    0.04
  -1 -11  -4   -0.01    0.06
  -1 -11  -4    0.00    0.04
   2  11   5    6.21    0.22
   2  11   5    6.50    0.22
  -2 -11  -5    6.37    0.29
  -2 -11  -5    6.26    0.24
   3  11   6    0.05    0.04
   3  11   6    0.05    0.04
  -3 -11  -6    0.07    0.09
  -3 -11  -6    0.01    0.04
   4  11   7    1.15    0.10
   4  11   7    1.34    0.10
  -4 -11  -7    1.16    0.11
  -4 -11  -7    1.27    0.13
  -4  10  -1    0.11    0.05
  -3  10   0    0.04    0.05
   3 -10   0    0.18    0.08
   3 -10   0    0.06    0.04
  -2  10   1    0.02    0.04
   2 -10  -1    0.19    0.05
   2 -10  -1    0.00    0.06
  -1  10   2    1.63    0.08
  -1  10   2    1.57    0.10
   1 -10  -2    1.60    0.11
   1 -10  -2    1.64    0.10
   0  10   3    2.05    0.11
   0  10   3    2.14    0.10
   0 -10  -3    2.03    0.13
   0 -10  -3    2.13    0.12
   1  10   4    0.10    0.04
   1  10   4    0.10    0.04
  -1 -10  -4    0.16    0.07
  -1 -10  -4    0.08    0.04
   2  10   5    0.72    0.07
   2  10   5    0.80    0.07
  -2 -10  -5    0.68    0.07
  -2 -10  -5    0.84    0.09
   3  10   6    0.69    0.07
   3  10   6    0.69    0.07
  -3 -10  -6    0.94    0.13
  -3 -10  -6    0.61    0.07
   4  10   7    0.29    0.05
   4  10   7    0.24    0.06
  -4 -10  -7    0.33    0.11
  -4 -10  -7    0.18    0.06
   5  10   8    0.56    0.07
   5  10   8    0.54    0.08
  -5 -10  -8    0.91    0.15
  -5 -10  -8    0.54    0.08
  -5   9  -2    0.87    0.09
  -4   9  -1    2.07    0.12
   4  -9   1    2.19    0.12
  -3   9   0    0.07    0.04
   3  -9   0   -0.03    0.03
  -2   9   1    0.55    0.06
   2  -9  -1    0.70    0.07
   2  -9  -1    0.57    0.07
  -1   9   2    0.03    0.03
  -1   9   2   -0.01    0.03
   1  -9  -2   -0.03    0.03
   1  -9  -2    0.06    0.05
   0   9   3    1.21    0.07
   0   9   3    1.09    0.07
   0  -9  -3    1.13    0.08
   0  -9  -3    1.41    0.09
   1   9   4    1.16    0.08
   1   9   4    1.13    0.08
  -1  -9  -4    1.24    0.09
  -1  -9  -4    1.12    0.09
   2   9   5   11.53    0.32
   2   9   5   11.25    0.32
  -2  -9  -5   10.90    0.42
  -2  -9  -5   11.19    0.34
   3   9   6    0.39    0.05
   3   9   6    0.36    0.05
  -3  -9  -6    0.45    0.10
  -3  -9  -6    0.38    0.06
   4   9   7    1.92    0.10
   4   9   7    1.92    0.10
  -4  -9  -7    1.89    0.11
  -4  -9  -7    1.90    0.14
   5   9   8    1.35    0.09
   5   9   8    1.34    0.10
  -5  -9  -8    1.33    0.14
  -5  -9  -8    1.15    0.09
   6   9   9    0.11    0.05
   6   9   9    0.07    0.05
  -6  -9  -9    0.07    0.05
  -6   8  -3    0.38    0.07
   6  -8   3    0.44    0.06
  -5   8  -2    3.92    0.17
  -4   8  -1   11.52    0.35
   4  -8   1   12.23    0.35
  -3   8   0    0.09    0.04
   3  -8   0    0.11    0.04
  -2   8   1    0.81    0.07
  -2   8   1    0.62    0.05
   2  -8  -1    0.62    0.07
  -1   8   2    0.06    0.03
  -1   8   2    0.05    0.03
   1  -8  -2   -0.01    0.03
   1  -8  -2    0.10    0.05
   0   8   3    0.73    0.06
   0   8   3    0.77    0.05
   0  -8  -3    0.70    0.07
   0  -8  -3    0.74    0.06
   1   8   4    3.79    0.14
   1   8   4    4.08    0.14
  -1  -8  -4    3.80    0.18
  -1  -8  -4    3.90    0.15
   2   8   5    8.52    0.25
   2   8   5    8.74    0.25
  -2  -8  -5    8.94    0.27
  -2  -8  -5    8.85    0.34
   3   8   6    3.90    0.14
   3   8   6    3.91    0.15
  -3  -8  -6    3.76    0.19
  -3  -8  -6    3.75    0.15
   4   8   7    0.01    0.03
   4   8   7    0.04    0.03
  -4  -8  -7    0.03    0.07
  -4  -8  -7   -0.03    0.03
   5   8   8    2.83    0.13
   5   8   8    2.58    0.12
  -5  -8  -8    2.90    0.18
  -5  -8  -8    2.90    0.13
   6   8   9    0.05    0.04
   6   8   9   -0.01    0.04
  -6  -8  -9   -0.01    0.04
  -6  -8  -9   -0.05    0.09
  -7   7  -4    0.16    0.05
   7  -7   4    0.06    0.04
  -6   7  -3    0.86    0.08
   6  -7   3    0.91    0.08
  -5   7  -2    4.85    0.19
   5  -7   2    4.75    0.18
  -4   7  -1   31.07    0.83
   4  -7   1   33.62    0.84
   4  -7   1   32.87    0.98
  -3   7   0    1.83    0.09
   3  -7   0    1.82    0.09
   3  -7   0    1.78    0.11
  -2   7   1    5.78    0.19
  -2   7   1    6.26    0.17
   2  -7  -1    6.13    0.20
   2  -7  -1    6.35    0.24
  -1   7   2    0.06    0.03
  -1   7   2    0.08    0.03
   1  -7  -2    0.04    0.03
   1  -7  -2    0.17    0.05
   1  -7  -2    0.07    0.03
   0   7   3    0.53    0.05
   0   7   3    0.52    0.05
   0  -7  -3    0.58    0.05
   0  -7  -3    0.47    0.06
   0  -7  -3    0.50    0.05
   1   7   4   24.60    0.62
   1   7   4   25.42    0.61
  -1  -7  -4   24.31    0.83
  -1  -7  -4   24.67    0.65
  -1  -7  -4   24.90    0.75
   2   7   5   42.09    1.02
   2   7   5   43.85    1.04
  -2  -7  -5   43.08    1.25
  -2  -7  -5   42.05    1.09
  -2  -7  -5   42.46    1.40
   3   7   6    0.99    0.07
   3   7   6    0.98    0.06
  -3  -7  -6    0.95    0.09
  -3  -7  -6    0.95    0.07
  -3  -7  -6    0.90    0.08
   4   7   7    1.72    0.08
   4   7   7    1.66    0.09
  -4  -7  -7    1.56    0.10
  -4  -7  -7    1.47    0.09
  -4  -7  -7    1.56    0.12
   5   7   8    1.15    0.08
   5   7   8    1.16    0.08
  -5  -7  -8    1.19    0.12
  -5  -7  -8    1.25    0.08
   6   7   9    0.05    0.04
   6   7   9    0.03    0.04
  -6  -7  -9    0.04    0.04
  -6  -7  -9    0.04    0.08
   7   7  10    4.50    0.17
  -7   6  -4    1.97    0.12
   7  -6   4    2.12    0.12
  -6   6  -3    3.96    0.17
   6  -6   3    3.75    0.15
  -5   6  -2    4.58    0.18
   5  -6   2    4.74    0.17
  -4   6  -1    1.38    0.08
   4  -6   1    1.18    0.07
   4  -6   1    1.42    0.09
  -3   6   0    0.15    0.02
  -3   6   0    0.06    0.03
   3  -6   0    0.08    0.03
   3  -6   0    0.11    0.03
  -2   6   1    2.05    0.07
  -2   6   1    2.03    0.09
   2  -6  -1    1.99    0.09
   2  -6  -1    2.26    0.10
   2  -6  -1    1.92    0.10
  -1   6   2   19.80    0.48
  -1   6   2   19.86    0.51
   1  -6  -2   19.70    0.52
   1  -6  -2   19.41    0.65
   1  -6  -2   19.58    0.61
   1  -6  -2   21.06    0.66
   0   6   3    4.29    0.14
   0   6   3    4.41    0.13
   0  -6  -3    4.16    0.17
   0  -6  -3    4.25    0.17
   0  -6  -3    4.36    0.15
   1   6   4    1.81    0.08
   1   6   4    1.90    0.08
  -1  -6  -4    1.92    0.09
  -1  -6  -4    1.84    0.10
  -1  -6  -4    1.86    0.10
   2   6   5    5.78    0.18
   2   6   5    5.82    0.17
  -2  -6  -5    5.90    0.21
  -2  -6  -5    5.88    0.23
  -2  -6  -5    6.00    0.19
   3   6   6    0.43    0.04
   3   6   6    0.42    0.04
  -3  -6  -6    0.58    0.08
  -3  -6  -6    0.36    0.05
  -3  -6  -6    0.36    0.04
   4   6   7   20.54    0.52
   4   6   7   20.49    0.52
  -4  -6  -7   20.34    0.73
  -4  -6  -7   20.72    0.55
  -4  -6  -7   20.57    0.63
   5   6   8    0.07    0.04
   5   6   8    0.05    0.03
  -5  -6  -8    0.02    0.04
  -5  -6  -8    0.03    0.08
  -5  -6  -8    0.07    0.04
   6   6   9    3.17    0.13
   6   6   9    3.01    0.13
  -6  -6  -9    3.19    0.13
  -6  -6  -9    3.12    0.19
   7   6  10    0.75    0.07
   8  -5   5    1.14    0.10
  -7   5  -4    3.71    0.16
   7  -5   4    3.69    0.15
  -6   5  -3    4.49    0.18
   6  -5   3    4.29    0.16
  -5   5  -2   10.67    0.32
   5  -5   2   10.68    0.31
  -4   5  -1    1.63    0.09
  -4   5  -1    1.62    0.08
   4  -5   1    1.65    0.09
   4  -5   1    1.48    0.07
  -3   5   0   22.89    0.52
  -3   5   0   21.38    0.57
  -3   5   0   22.53    0.66
   3  -5   0   21.47    0.67
   3  -5   0   22.74    0.73
   3  -5   0   22.19    0.57
  -2   5   1    8.81    0.29
  -2   5   1    8.74    0.22
   2  -5  -1    8.75    0.25
   2  -5  -1    8.49    0.29
   2  -5  -1    9.18    0.30
  -1   5   2  218.98    5.36
  -1   5   2  230.63    5.16
  -1   5   2  234.00    6.37
   1  -5  -2  225.07    6.39
   1  -5  -2  228.50    5.55
   0   5   3   70.50    1.63
   0   5   3   69.81    1.68
   0   5   3   73.84    1.91
   0  -5  -3   69.68    1.74
   0  -5  -3   69.66    2.26
   0  -5  -3   70.65    2.01
   1   5   4   26.42    0.69
   1   5   4   27.83    0.74
   1   5   4   27.35    0.64
   1   5   4   27.12    0.66
  -1  -5  -4   27.35    0.69
  -1  -5  -4   26.88    0.79
  -1  -5  -4   25.21    0.88
   2   5   5   21.17    0.56
   2   5   5   20.27    0.53
   2   5   5   19.94    0.49
   2   5   5   20.09    0.50
  -2  -5  -5   19.54    0.68
  -2  -5  -5   19.60    0.61
   3   5   6   15.88    0.41
   3   5   6   16.15    0.43
   3   5   6   15.75    0.41
   3   5   6   16.71    0.46
  -3  -5  -6   15.81    0.43
  -3  -5  -6   15.93    0.50
  -3  -5  -6   16.15    0.57
   4   5   7    3.10    0.12
   4   5   7    3.30    0.11
   4   5   7    3.28    0.12
   4   5   7    2.90    0.12
  -4  -5  -7    3.26    0.14
  -4  -5  -7    3.23    0.12
  -4  -5  -7    3.38    0.17
   5   5   8   30.26    0.76
   5   5   8   30.05    0.78
   5   5   8   31.70    0.87
   5   5   8   29.86    0.74
  -5  -5  -8   30.70    0.78
  -5  -5  -8   30.38    1.05
  -5  -5  -8   29.35    0.90
   6   5   9    5.91    0.19
   6   5   9    5.68    0.19
   6   5   9    6.19    0.23
   7   5  10    5.47    0.22
   7   5  10    5.27    0.19
   8  -4   5    0.11    0.04
   7  -4   4    0.22    0.05
  -6   4  -3    0.81    0.08
   6  -4   3    0.73    0.07
  -5   4  -2   15.19    0.46
  -5   4  -2   14.50    0.41
   5  -4   2   14.88    0.40
  -4   4  -1    6.63    0.23
  -4   4  -1    7.25    0.22
   4  -4   1    7.22    0.21
   4  -4   1    6.99    0.24
   4  -4   1    7.10    0.18
   4  -4   1    6.90    0.20
   4  -4   1    7.39    0.26
  -3   4   0    0.89    0.04
  -3   4   0    0.80    0.05
   3  -4   0    0.87    0.05
   3  -4   0    0.84    0.04
   3  -4   0    0.76    0.05
  -2   4   1    0.82    0.04
  -2   4   1    0.78    0.05
  -2   4   1    0.76    0.05
   2  -4  -1    0.80    0.05
   2  -4  -1    0.77    0.04
  -1   4   2   22.91    0.56
  -1   4   2   22.27    0.57
  -1   4   2   22.96    0.53
  -1   4   2   22.68    0.66
  -1   4   2   23.20    0.62
   1  -4  -2   22.03    0.66
   1  -4  -2   22.19    0.57
   0   4   3    0.36    0.02
   0   4   3    0.32    0.03
   0   4   3    0.26    0.03
   0   4   3    0.29    0.03
   0  -4  -3    0.25    0.03
   0  -4  -3    0.27    0.03
   0  -4  -3    0.30    0.03
   1   4   4   29.58    0.75
   1   4   4   31.15    0.81
   1   4   4   29.92    0.72
  -1  -4  -4   29.53    0.75
  -1  -4  -4   28.32    0.86
  -1  -4  -4   29.18    0.96
   2   4   5   18.26    0.45
   2   4   5   18.05    0.48
   2   4   5   18.04    0.45
   2   4   5   18.76    0.51
  -2  -4  -5   18.83    0.48
  -2  -4  -5   17.63    0.62
   3   4   6   35.86    0.84
   3   4   6   34.75    0.90
   3   4   6   35.77    0.86
  -3  -4  -6   35.80    0.89
  -3  -4  -6   35.55    1.18
   4   4   7   10.06    0.27
   4   4   7   10.30    0.28
   4   4   7    9.90    0.29
   4   4   7   10.34    0.32
  -4  -4  -7   10.50    0.29
  -4  -4  -7   10.02    0.39
   5   4   8   40.71    1.00
   5   4   8   40.86    1.03
   5   4   8   41.51    1.15
   5   4   8   40.27    0.97
  -5  -4  -8   40.58    1.37
  -5  -4  -8   40.49    1.03
   6   4   9    0.02    0.03
   6   4   9    0.04    0.04
   6   4   9    0.01    0.03
   7   4  10    5.73    0.19
   7   4  10    5.68    0.23
   8   4  11    3.28    0.18
   9  -3   6    1.17    0.09
   8  -3   5    1.05    0.08
   7  -3   4    4.62    0.17
   6  -3   3    6.95    0.22
  -5   3  -2    0.13    0.04
  -5   3  -2    0.11    0.03
   5  -3   2    0.15    0.03
  -4   3  -1    6.92    0.21
  -4   3  -1    6.99    0.22
   4  -3   1    6.81    0.19
   4  -3   1    6.85    0.20
   4  -3   1    6.91    0.17
   4  -3   1    7.36    0.25
   4  -3   1    6.72    0.22
  -3   3   0   20.97    0.53
  -3   3   0   21.14    0.49
   3  -3   0   20.25    0.61
   3  -3   0   20.82    0.53
   3  -3   0   21.13    0.52
   3  -3   0   21.20    0.49
   3  -3   0   21.52    0.68
  -2   3   1    0.04    0.02
  -2   3   1    0.06    0.02
  -2   3   1    0.03    0.02
  -2   3   1    0.03    0.01
  -2   3   1    0.05    0.01
   2  -3  -1    0.04    0.01
   2  -3  -1    0.02    0.01
  -1   3   2   26.95    0.65
  -1   3   2   27.47    0.62
  -1   3   2   26.70    0.67
   1  -3  -2   26.69    0.77
   1  -3  -2   26.01    0.67
   0   3   3  220.07    5.26
   0   3   3  223.12    5.78
   0   3   3  210.86    4.91
   0   3   3  211.29    5.08
   0  -3  -3  202.73    6.02
   0  -3  -3  215.09    5.24
   0  -3  -3  212.41    6.85
   1   3   4    0.22    0.02
   1   3   4    0.23    0.02
   1   3   4    0.22    0.02
   1   3   4    0.21    0.02
   2   3   5    8.17    0.25
   2   3   5    7.94    0.23
   2   3   5    8.42    0.22
   2   3   5    8.14    0.21
  -2  -3  -5    8.24    0.30
   3   3   6   19.98    0.56
   3   3   6   19.69    0.48
   3   3   6   19.14    0.50
   3   3   6   19.38    0.47
  -3  -3  -6   19.10    0.67
   4   3   7    4.52    0.17
   4   3   7    4.28    0.14
   4   3   7    4.59    0.14
   4   3   7    4.38    0.14
  -4  -3  -7    4.33    0.20
  -4  -3  -7    4.17    0.14
   5   3   8   23.75    0.70
   5   3   8   23.16    0.62
   5   3   8   23.54    0.58
   5   3   8   24.97    0.60
  -5  -3  -8   23.90    0.62
   6   3   9    8.03    0.24
   6   3   9    8.34    0.24
   6   3   9    8.09    0.29
   7   3  10    0.13    0.05
   8   3  11    1.61    0.13
   9  -2   6    1.64    0.11
   8  -2   5    0.08    0.04
   7  -2   4   12.34    0.35
   6  -2   3    5.00    0.17
  -5   2  -2   20.61    0.60
   5  -2   2   21.42    0.49
   5  -2   2   20.14    0.53
  -4   2  -1    3.96    0.13
  -4   2  -1    3.74    0.13
   4  -2   1    3.78    0.12
   4  -2   1    4.13    0.11
   4  -2   1    4.08    0.16
   4  -2   1    3.88    0.11
  -3   2   0   24.03    0.59
  -3   2   0   23.36    0.68
  -3   2   0   23.72    0.59
   3  -2   0   24.65    0.77
   3  -2   0   23.57    0.58
   3  -2   0   23.55    0.59
   3  -2   0   23.67    0.56
   3  -2   0   23.49    0.68
  -2   2   1   48.97    1.31
  -2   2   1   47.93    1.18
  -2   2   1   47.84    1.15
   2  -2  -1   46.29    1.18
   2  -2  -1   50.91    1.36
   2  -2  -1   46.85    1.15
  -1   2   2    0.60    0.03
  -1   2   2    0.54    0.03
  -1   2   2    0.56    0.03
  -1   2   2    0.46    0.03
   0   2   3  251.44    6.12
   0   2   3  261.70    6.35
   0   2   3  272.90    7.02
   0   2   3  248.13    5.90
   0  -2  -3  256.84    8.29
   1   2   4   65.04    1.72
   1   2   4   62.05    1.45
   1   2   4   63.90    1.50
   1   2   4   61.84    1.55
  -1  -2  -4   63.57    2.03
   2   2   5   12.22    0.35
   2   2   5   12.29    0.30
   2   2   5   12.13    0.30
   2   2   5   11.74    0.32
  -2  -2  -5   11.99    0.42
   3   2   6    9.87    0.24
   3   2   6    8.71    0.25
   3   2   6    9.14    0.24
   3   2   6    8.97    0.28
  -3  -2  -6    9.04    0.34
   4   2   7    8.80    0.23
   4   2   7    8.92    0.25
   4   2   7    9.07    0.29
   4   2   7    9.14    0.24
  -4  -2  -7    8.45    0.34
   5   2   8    0.05    0.03
   5   2   8    0.06    0.03
   5   2   8    0.07    0.03
   5   2   8   -0.03    0.04
  -5  -2  -8   -0.03    0.06
   6   2   9   35.07    0.84
   6   2   9   32.52    0.98
   6   2   9   33.63    0.81
   7   2  10    0.74    0.08
   8   2  11    6.70    0.28
   9  -1   6    3.26    0.15
   8  -1   5    0.12    0.05
   7  -1   4   56.08    1.37
   6  -1   3    0.21    0.04
  -5   1  -2   13.90    0.41
   5  -1   2   14.58    0.35
   5  -1   2   14.37    0.38
  -4   1  -1    9.19    0.28
   4  -1   1    9.33    0.26
   4  -1   1    9.39    0.24
   4  -1   1   10.14    0.34
  -3   1   0   15.55    0.45
  -3   1   0   15.72    0.39
   3  -1   0   16.53    0.51
   3  -1   0   15.24    0.37
   3  -1   0   15.39    0.39
   3  -1   0   15.33    0.45
   3  -1   0   15.55    0.51
  -2   1   1    1.09    0.05
  -2   1   1    1.11    0.05
  -2   1   1    1.11    0.04
  -2   1   1    1.12    0.04
   2  -1  -1    1.10    0.04
   2  -1  -1    1.12    0.04
   2  -1  -1    1.20    0.05
  -1   1   2 1000.00   22.61
  -1   1   2  843.15   21.56
  -1   1   2  981.95   26.16
  -1   1   2  888.63   23.83
   0   1   3   48.58    1.17
   0   1   3   48.96    1.30
   0   1   3   46.24    1.10
   0   1   3   46.46    1.18
   0  -1  -3   49.73    1.17
   0  -1  -3   47.94    1.54
   1   1   4   42.85    1.01
   1   1   4   41.54    1.04
   1   1   4   42.86    1.15
   1   1   4   41.39    0.97
  -1  -1  -4   41.76    1.36
  -1  -1  -4   42.63    1.01
   2   1   5   12.45    0.34
   2   1   5   13.04    0.31
   2   1   5   12.55    0.31
   2   1   5   12.80    0.37
  -2  -1  -5   12.63    0.44
   3   1   6   36.89    0.94
   3   1   6   37.35    0.87
   3   1   6   37.03    1.04
   3   1   6   37.63    0.90
  -3  -1  -6   38.27    1.24
   4   1   7   62.93    1.76
   4   1   7   63.16    1.47
   4   1   7   64.46    1.52
   4   1   7   63.79    1.57
  -4  -1  -7   64.17    2.08
   5   1   8    4.17    0.18
   5   1   8    4.15    0.13
   5   1   8    4.26    0.14
   5   1   8    4.34    0.14
  -5  -1  -8    4.34    0.21
   6   1   9    0.05    0.04
   6   1   9   -0.01    0.03
   7   1  10    0.63    0.08
   8   1  11    3.30    0.18
   9   0   6    1.50    0.10
   8   0   5    2.75    0.13
   7   0   4    3.91    0.15
   6   0   3    3.26    0.12
   6   0   3    3.37    0.11
   5   0   2    0.01    0.02
   5   0   2    0.01    0.01
   4   0   1   22.75    0.55
   4   0   1   23.64    0.58
   4   0   1   22.62    0.57
  -3   0   0   75.13    2.03
  -3   0   0   75.22    1.83
   3   0   0   74.75    2.23
   3   0   0   76.44    1.72
   3   0   0   73.83    1.78
   3   0   0   74.70    2.39
  -2   0   1  215.82    5.69
  -2   0   1  218.71    5.20
   2   0  -1  215.41    6.78
   2   0  -1  211.74    5.01
   2   0  -1  204.23    4.85
   2   0  -1  200.69    6.74
  -1   0   2   12.23    0.29
  -1   0   2   12.47    0.35
   1   0  -2   12.54    0.30
   1   0  -2   12.51    0.41
   1   0  -2   12.23    0.30
   0   0   3   27.98    0.77
   0   0   3   27.97    0.65
   0   0   3   27.37    0.70
   0   0  -3   28.84    0.91
   1   0   4   85.80    2.02
   1   0   4   90.82    2.14
   1   0   4   89.60    2.40
   1   0   4   85.03    2.12
   1   0   4   88.37    2.16
  -1   0  -4   91.97    2.83
   2   0   5    6.51    0.17
   2   0   5    6.29    0.16
   2   0   5    6.51    0.19
   2   0   5    6.33    0.21
  -2   0  -5    6.74    0.25
   3   0   6    2.22    0.07
   3   0   6    2.09    0.10
   3   0   6    2.09    0.07
   3   0   6    2.06    0.08
  -3   0  -6    1.99    0.11
   4   0   7    1.32    0.08
   4   0   7    1.10    0.06
   4   0   7    1.27    0.06
   4   0   7    1.34    0.05
  -4   0  -7    1.35    0.10
   5   0   8   33.64    0.82
   5   0   8   34.05    0.85
   5   0   8   33.23    0.78
   5   0   8   32.67    0.96
   6   0   9    3.29    0.12
   6   0   9    3.39    0.16
   7   0  10   12.81    0.44
   9   1   6    0.08    0.04
   8   1   5    1.17    0.09
   7   1   4    5.21    0.16
   7   1   4    5.18    0.18
   6   1   3    3.42    0.13
   6   1   3    3.61    0.11
  -5  -1  -2    1.32    0.04
   5   1   2    1.63    0.07
   5   1   2    1.32    0.04
   5   1   2    1.29    0.06
  -4  -1  -1  185.35    4.70
   4   1   1  190.22    4.52
   4   1   1  200.89    4.37
  -3  -1   0   62.15    1.68
  -3  -1   0   62.63    1.51
   3   1   0   61.94    1.98
   3   1   0   60.81    1.47
   3   1   0   60.61    1.81
   3   1   0   62.75    1.42
  -2  -1   1   65.04    1.56
  -2  -1   1   63.22    1.73
   2   1  -1   64.28    2.04
   2   1  -1   61.70    1.47
   2   1  -1   64.81    1.51
   1   1  -2    0.94    0.04
   1   1  -2    1.00    0.05
   1   1  -2    0.97    0.03
   0  -1   3    1.01    0.03
   0  -1   3    0.96    0.04
   0  -1   3    0.98    0.05
   0  -1   3    1.04    0.05
   0   1  -3    0.94    0.06
   0   1  -3    1.02    0.03
   0   1  -3    0.94    0.04
   1  -1   4    1.49    0.07
   1  -1   4    1.41    0.05
   1  -1   4    1.43    0.06
  -1   1  -4    1.38    0.08
  -1   1  -4    1.37    0.05
  -1   1  -4    1.39    0.04
   2  -1   5  454.90   10.59
   2  -1   5  480.37   11.39
   2  -1   5  474.38   10.97
   2  -1   5  477.25   12.64
  -2   1  -5  463.55   10.99
  -2   1  -5  438.01   14.79
   3  -1   6    8.67    0.21
   3  -1   6    8.45    0.28
   3  -1   6    8.56    0.24
   3  -1   6    8.71    0.22
  -3   1  -6    8.72    0.33
   4  -1   7   20.96    0.49
   4  -1   7   20.83    0.52
   4  -1   7   20.85    0.54
   4  -1   7   20.04    0.61
  -4   1  -7   21.01    0.73
   5  -1   8    5.40    0.22
   5  -1   8    5.53    0.18
   5  -1   8    5.70    0.17
   6  -1   9    7.86    0.23
   6  -1   9    7.26    0.28
   7  -1  10    6.61    0.27
   9   2   6    4.36    0.18
   8   2   5    0.89    0.08
   7   2   4    1.42    0.07
   7   2   4    1.50    0.08
   6   2   3    8.18    0.24
   6   2   3    8.35    0.23
  -5  -2  -2   14.94    0.38
   5   2   2   15.50    0.38
   5   2   2   14.88    0.40
  -4  -2  -1    8.28    0.22
   4   2   1    7.85    0.22
   4   2   1    7.92    0.22
  -3  -2   0    0.50    0.03
  -3  -2   0    0.48    0.03
   3   2   0    0.47    0.03
   3   2   0    0.56    0.04
   3   2   0    0.57    0.05
   3   2   0    0.51    0.03
  -2  -2   1   12.67    0.36
  -2  -2   1   12.29    0.42
  -2  -2   1   12.82    0.33
   2   2  -1   12.44    0.32
   2   2  -1   12.81    0.31
   2   2  -1   12.36    0.43
  -1  -2   2   34.08    1.09
  -1  -2   2   33.37    0.93
  -1  -2   2   34.12    0.84
   1   2  -2   33.54    0.81
   1   2  -2   33.92    1.10
   1   2  -2   33.73    0.79
   0  -2   3   74.65    1.99
   0  -2   3   73.19    2.34
   0  -2   3   73.65    1.80
   0   2  -3   71.52    1.73
   0   2  -3   72.64    1.68
   0   2  -3   74.72    2.35
   1  -2   4   12.15    0.36
   1  -2   4   12.52    0.33
  -1   2  -4   12.36    0.43
  -1   2  -4   12.03    0.30
   2  -2   5   33.02    0.78
   2  -2   5   34.09    0.85
   2  -2   5   33.64    0.94
  -2   2  -5   34.66    1.12
  -2   2  -5   33.63    0.81
  -2   2  -5   33.76    0.79
   3  -2   6    4.40    0.11
   3  -2   6    4.39    0.13
   3  -2   6    4.28    0.14
   3  -2   6    4.23    0.16
  -3   2  -6    4.45    0.12
  -3   2  -6    4.23    0.13
  -3   2  -6    4.28    0.19
   4  -2   7   29.38    0.85
   4  -2   7   30.09    0.73
   4  -2   7   29.17    0.76
   5  -2   8   12.50    0.42
   5  -2   8   13.22    0.35
   5  -2   8   13.11    0.36
   6  -2   9    0.12    0.03
   6  -2   9    0.06    0.04
   7  -2  10    1.96    0.13
   9   3   6    1.24    0.10
   8   3   5    6.21    0.20
   8   3   5    6.00    0.21
   7   3   4    0.18    0.04
   7   3   4    0.10    0.03
   6   3   3    3.28    0.13
   6   3   3    3.26    0.12
  -5  -3  -2    6.48    0.18
   5   3   2    6.20    0.19
   5   3   2    6.58    0.19
  -4  -3  -1    0.31    0.03
  -4  -3  -1    0.39    0.06
  -4  -3  -1    0.37    0.04
   4   3   1    0.32    0.03
   4   3   1    0.28    0.03
  -3  -3   0   26.62    0.66
  -3  -3   0   25.90    0.85
  -3  -3   0   25.70    0.72
   3   3   0   25.78    0.86
   3   3   0   25.79    0.64
   3   3   0   25.04    0.74
   3   3   0   26.04    0.62
  -2  -3   1    0.00    0.01
  -2  -3   1   -0.01    0.01
  -2  -3   1   -0.01    0.02
   2   3  -1    0.00    0.01
   2   3  -1    0.01    0.01
   2   3  -1    0.03    0.03
   2   3  -1    0.01    0.01
  -1  -3   2    4.29    0.17
  -1  -3   2    4.37    0.14
  -1  -3   2    4.26    0.14
   1   3  -2    4.11    0.12
   1   3  -2    4.37    0.12
   1   3  -2    4.18    0.15
   0  -3   3   46.38    1.50
   0  -3   3   46.40    1.27
   0  -3   3   47.01    1.16
   0   3  -3   46.27    1.11
   0   3  -3   47.06    1.08
   0   3  -3   45.30    1.50
   1  -3   4    7.52    0.22
   1  -3   4    7.37    0.23
  -1   3  -4    7.45    0.28
  -1   3  -4    7.36    0.19
  -1   3  -4    7.38    0.20
   2  -3   5   11.19    0.35
   2  -3   5   11.63    0.32
  -2   3  -5   11.23    0.30
  -2   3  -5   11.61    0.42
  -2   3  -5   11.35    0.28
   3  -3   6    1.59    0.08
   3  -3   6    1.56    0.07
   3  -3   6    1.47    0.09
  -3   3  -6    1.52    0.07
  -3   3  -6    1.57    0.06
  -3   3  -6    1.57    0.10
   4  -3   7   -0.02    0.02
   4  -3   7    0.01    0.03
   4  -3   7    0.03    0.02
  -4   3  -7    0.01    0.02
   5  -3   8    0.81    0.08
   5  -3   8    0.90    0.06
   6  -3   9    2.68    0.15
   7  -3  10    4.19    0.21
   9   4   6    0.91    0.09
   8   4   5   -0.04    0.03
   8   4   5   -0.04    0.04
   7   4   4    9.18    0.26
   7   4   4    9.03    0.28
  -6  -4  -3    0.76    0.05
   6   4   3    0.68    0.06
   6   4   3    0.67    0.06
  -5  -4  -2   13.85    0.37
   5   4   2   13.63    0.37
   5   4   2   14.08    0.36
  -4  -4  -1   12.91    0.45
  -4  -4  -1   12.72    0.37
  -4  -4  -1   12.77    0.34
   4   4   1   13.01    0.38
   4   4   1   12.54    0.33
   4   4   1   12.29    0.34
  -3  -4   0    5.00    0.16
  -3  -4   0    4.95    0.16
  -3  -4   0    4.99    0.20
   3   4   0    4.88    0.15
   3   4   0    5.01    0.17
   3   4   0    4.85    0.15
  -2  -4   1   20.17    0.56
  -2  -4   1   20.24    0.52
  -2  -4   1   20.40    0.67
   2   4  -1   20.34    0.49
   2   4  -1   18.99    0.68
   2   4  -1   20.43    0.60
   2   4  -1   19.84    0.50
  -1  -4   2   34.03    0.94
  -1  -4   2   34.63    0.87
  -1  -4   2   34.54    1.12
   1   4  -2   33.90    0.83
   1   4  -2   34.37    0.81
   1   4  -2   34.82    1.13
   1   4  -2   33.80    0.99
   0  -4   3    7.12    0.22
   0  -4   3    6.93    0.21
   0   4  -3    6.77    0.27
   0   4  -3    7.00    0.24
   0   4  -3    6.83    0.19
   0   4  -3    6.89    0.19
   1  -4   4    6.02    0.19
   1  -4   4    6.27    0.20
  -1   4  -4    6.26    0.18
  -1   4  -4    6.24    0.17
  -1   4  -4    6.37    0.25
  -1   4  -4    6.08    0.22
   2  -4   5   17.19    0.51
   2  -4   5   16.90    0.46
  -2   4  -5   17.37    0.41
  -2   4  -5   17.28    0.60
  -2   4  -5   17.06    0.44
   3  -4   6   15.04    0.42
   3  -4   6   15.19    0.46
  -3   4  -6   14.94    0.40
   4  -4   7    1.27    0.08
   4  -4   7    1.21    0.09
   4  -4   7    1.17    0.07
  -4   4  -7    1.16    0.07
   5  -4   8    3.80    0.17
   5  -4   8    3.81    0.14
  -5   4  -8    3.90    0.15
   6  -4   9    0.90    0.09
   9   5   6    0.01    0.05
   9   5   6   -0.01    0.04
   8   5   5    9.62    0.29
   8   5   5    9.58    0.30
   7   5   4    8.36    0.26
   7   5   4    8.54    0.26
  -6  -5  -3    1.22    0.07
   6   5   3    1.23    0.08
   6   5   3    1.33    0.08
  -5  -5  -2   14.17    0.41
  -5  -5  -2   13.00    0.36
   5   5   2   12.95    0.36
   5   5   2   12.71    0.36
  -4  -5  -1   14.47    0.42
  -4  -5  -1   14.88    0.40
  -4  -5  -1   14.88    0.52
   4   5   1   14.56    0.38
   4   5   1   14.40    0.39
   4   5   1   14.79    0.44
  -3  -5   0    7.51    0.23
  -3  -5   0    7.72    0.23
  -3  -5   0    7.56    0.29
   3   5   0    7.48    0.22
   3   5   0    7.83    0.30
   3   5   0    7.59    0.22
   3   5   0    7.44    0.25
  -2  -5   1   36.53    1.16
  -2  -5   1   35.02    0.89
  -2  -5   1   35.09    0.96
   2   5  -1   34.43    0.83
   2   5  -1   35.14    0.86
   2   5  -1   34.58    1.02
   2   5  -1   34.79    1.16
  -1  -5   2   26.63    0.74
  -1  -5   2   26.26    0.69
   1   5  -2   26.84    0.89
   1   5  -2   26.41    0.64
   1   5  -2   26.03    0.65
   1   5  -2   26.80    0.79
   0  -5   3   16.51    0.46
   0  -5   3   16.43    0.58
   0  -5   3   17.22    0.49
   0   5  -3   17.51    0.59
   0   5  -3   17.26    0.42
   0   5  -3   16.37    0.43
   1  -5   4    2.33    0.10
   1  -5   4    2.29    0.10
  -1   5  -4    2.20    0.08
  -1   5  -4    2.35    0.09
  -1   5  -4    2.40    0.13
   2  -5   5   32.43    0.92
   2  -5   5   31.74    0.84
  -2   5  -5   32.40    0.80
  -2   5  -5   32.51    0.76
   3  -5   6    9.16    0.28
   3  -5   6    9.23    0.31
  -3   5  -6    9.49    0.27
   4  -5   7    1.38    0.10
   4  -5   7    1.41    0.08
   4  -5   7    1.43    0.09
  -4   5  -7    1.49    0.08
   5  -5   8   -0.02    0.03
   5  -5   8    0.01    0.04
  -5   5  -8   -0.04    0.03
   6  -5   9    0.88    0.10
   8   6   5    1.37    0.09
   8   6   5    1.27    0.10
   7   6   4    2.94    0.13
   7   6   4    2.88    0.13
  -6  -6  -3    0.19    0.04
   6   6   3    0.16    0.04
   6   6   3    0.18    0.05
  -5  -6  -2   36.72    0.92
   5   6   2   35.31    0.90
   5   6   2   35.43    0.87
  -4  -6  -1   45.32    1.50
  -4  -6  -1   45.02    1.15
  -4  -6  -1   46.53    1.31
   4   6   1   45.09    1.30
   4   6   1   44.86    1.11
   4   6   1   45.15    1.08
  -3  -6   0    2.79    0.12
  -3  -6   0    2.89    0.10
  -3  -6   0    3.18    0.15
   3   6   0    2.82    0.11
   3   6   0    2.93    0.13
   3   6   0    3.04    0.15
   3   6   0    2.99    0.12
  -2  -6   1   11.59    0.33
  -2  -6   1   11.35    0.33
   2   6  -1   11.33    0.31
   2   6  -1   11.96    0.43
   2   6  -1   11.80    0.31
  -1  -6   2    1.80    0.07
  -1  -6   2    1.72    0.11
  -1  -6   2    1.70    0.09
   1   6  -2    1.92    0.11
   1   6  -2    1.78    0.08
   1   6  -2    1.77    0.08
   0  -6   3    3.43    0.16
   0  -6   3    3.42    0.14
   0  -6   3    3.45    0.13
   0   6  -3    3.55    0.12
   0   6  -3    3.39    0.12
   1  -6   4    2.12    0.13
   1  -6   4    1.85    0.11
   1  -6   4    2.03    0.10
  -1   6  -4    2.08    0.10
  -1   6  -4    1.98    0.09
   2  -6   5   49.36    1.27
   2  -6   5   50.38    1.39
  -2   6  -5   49.62    1.22
   3  -6   6   -0.05    0.02
   3  -6   6    0.04    0.04
  -3   6  -6    0.06    0.03
   4  -6   7    6.98    0.24
   4  -6   7    6.98    0.26
  -4   6  -7    7.06    0.23
   5  -6   8    0.33    0.05
   5  -6   8    0.41    0.07
  -5   6  -8    0.39    0.06
   8   7   5    3.63    0.16
   8   7   5    4.05    0.17
   7   7   4    2.88    0.13
   7   7   4    2.72    0.13
  -6  -7  -3    0.88    0.08
   6   7   3    1.04    0.09
   6   7   3    1.06    0.08
  -5  -7  -2   15.08    0.42
   5   7   2   14.55    0.41
   5   7   2   14.78    0.41
  -4  -7  -1   15.16    0.42
  -4  -7  -1   15.06    0.54
   4   7   1   14.28    0.40
   4   7   1   14.29    0.39
  -3  -7   0    1.52    0.11
  -3  -7   0    1.80    0.09
   3   7   0    1.71    0.08
   3   7   0    1.96    0.09
  -2  -7   1    0.73    0.08
  -2  -7   1    1.01    0.07
   2   7  -1    0.77    0.06
   2   7  -1    0.73    0.06
  -1  -7   2    7.78    0.25
  -1  -7   2    7.81    0.31
  -1  -7   2    8.31    0.24
   1   7  -2    7.94    0.23
   1   7  -2    7.66    0.23
   0  -7   3   -0.05    0.03
   0  -7   3    0.03    0.06
   0   7  -3   -0.04    0.03
   0   7  -3   -0.07    0.03
   1  -7   4    3.84    0.16
   1  -7   4    4.26    0.20
   1  -7   4    4.16    0.16
  -1   7  -4    3.84    0.13
  -1   7  -4    4.14    0.15
   2  -7   5    5.54    0.20
   2  -7   5    5.30    0.20
  -2   7  -5    5.38    0.18
   3  -7   6    2.01    0.11
   3  -7   6    1.99    0.11
  -3   7  -6    2.09    0.10
   4  -7   7    0.41    0.06
   4  -7   7    0.48    0.07
  -4   7  -7    0.47    0.06
   5  -7   8    0.15    0.06
   5  -7   8    0.08    0.05
  -5   7  -8    0.11    0.05
   8   8   5    1.23    0.10
   7   8   4    0.16    0.05
   7   8   4    0.07    0.04
  -6  -8  -3    2.59    0.13
   6   8   3    2.63    0.13
   6   8   3    2.33    0.12
  -5  -8  -2   10.49    0.32
   5   8   2   10.34    0.31
   5   8   2   10.24    0.31
  -4  -8  -1    5.65    0.20
   4   8   1    5.51    0.19
   4   8   1    5.43    0.19
  -3  -8   0    0.86    0.09
  -3  -8   0    1.12    0.08
   3   8   0    1.12    0.08
   3   8   0    1.04    0.07
  -2  -8   1    4.85    0.22
  -2  -8   1    4.55    0.18
   2   8  -1    4.58    0.16
   2   8  -1    4.73    0.16
  -1  -8   2   17.86    0.51
  -1  -8   2   18.31    0.65
   1   8  -2   17.93    0.48
   1   8  -2   18.63    0.47
   0  -8   3    4.62    0.19
   0  -8   3    4.82    0.22
   0   8  -3    4.84    0.16
   0   8  -3    4.83    0.17
   1  -8   4    7.13    0.25
   1  -8   4    7.04    0.30
  -1   8  -4    7.46    0.23
   2  -8   5    6.36    0.28
   2  -8   5    6.40    0.23
  -2   8  -5    6.48    0.22
   3  -8   6    0.37    0.06
   3  -8   6    0.48    0.06
  -3   8  -6    0.49    0.06
   4  -8   7    0.02    0.05
  -4   8  -7    0.09    0.05
   7   9   4   -0.02    0.04
   7   9   4   -0.06    0.04
  -6  -9  -3    6.16    0.22
   6   9   3    5.27    0.21
   6   9   3    5.39    0.21
  -5  -9  -2    0.70    0.07
   5   9   2    0.75    0.07
   5   9   2    0.61    0.07
  -4  -9  -1   -0.01    0.04
   4   9   1    0.00    0.04
   4   9   1    0.04    0.04
  -3  -9   0    1.48    0.10
  -3  -9   0    1.60    0.13
   3   9   0    1.56    0.10
   3   9   0    1.65    0.09
  -2  -9   1    0.06    0.08
  -2  -9   1    0.03    0.04
   2   9  -1    0.05    0.03
   2   9  -1    0.05    0.04
  -1  -9   2    0.01    0.03
  -1  -9   2    0.05    0.07
   1   9  -2   -0.01    0.03
   1   9  -2    0.02    0.03
   0  -9   3    2.94    0.14
   0  -9   3    2.95    0.17
   0   9  -3    2.98    0.12
   0   9  -3    2.98    0.13
   1  -9   4    0.16    0.08
   1  -9   4    0.07    0.05
  -1   9  -4    0.00    0.04
   2  -9   5    0.11    0.09
   2  -9   5    0.09    0.05
  -2   9  -5    0.10    0.04
   3  -9   6   -0.02    0.08
   3  -9   6    0.00    0.04
  -3   9  -6   -0.01    0.04
  -6 -10  -3   -0.05    0.04
   6  10   3   -0.07    0.04
   6  10   3   -0.02    0.04
  -5 -10  -2    0.46    0.07
   5  10   2    0.48    0.07
   5  10   2    0.48    0.07
  -4 -10  -1    1.28    0.10
   4  10   1    1.21    0.09
   4  10   1    1.18    0.09
  -3 -10   0    1.38    0.10
   3  10   0    1.32    0.09
   3  10   0    1.45    0.09
  -2 -10   1    0.40    0.07
  -2 -10   1    0.81    0.12
   2  10  -1    0.54    0.06
   2  10  -1    0.58    0.06
  -1 -10   2    1.13    0.09
  -1 -10   2    1.21    0.11
   1  10  -2    1.18    0.08
   1  10  -2    1.17    0.08
   0 -10   3    1.61    0.13
   0 -10   3    1.51    0.11
   0  10  -3    1.64    0.10
   1 -10   4    0.51    0.11
   1 -10   4    0.33    0.07
  -1  10  -4    0.41    0.06
   2 -10   5    0.35    0.10
   2 -10   5    0.18    0.06
  -2  10  -5    0.23    0.05
  -4 -11  -1    1.58    0.12
   4  11   1    1.61    0.11
   4  11   1    1.62    0.11
  -3 -11   0    0.98    0.10
   3  11   0    1.19    0.09
   3  11   0    1.00    0.08
  -2 -11   1    0.05    0.05
   2  11  -1    0.05    0.04
   2  11  -1    0.10    0.05
  -1 -11   2    0.06    0.09
  -1 -11   2    0.00    0.04
   1  11  -2    0.00    0.04
   0 -11   3    0.01    0.05
   0 -11   3    0.06    0.09
   0  11  -3    0.01    0.04
   0  12   4    0.64    0.07
   0  12   4    0.57    0.08
   0 -12  -4    0.61    0.09
   0 -12  -4    0.80    0.09
   1  12   5    0.17    0.05
  -1 -12  -5    0.26    0.09
  -1 -12  -5    0.19    0.06
  -3  11   1    0.07    0.05
   3 -11  -1    0.20    0.08
   3 -11  -1    0.11    0.05
  -2  11   2    0.33    0.06
   2 -11  -2    0.52    0.10
   2 -11  -2    0.38    0.07
  -1  11   3    0.97    0.08
   1 -11  -3    0.85    0.09
   1 -11  -3    0.88    0.09
   0  11   4    0.08    0.04
   0  11   4    0.05    0.04
   0 -11  -4    0.03    0.04
   0 -11  -4    0.15    0.08
   1  11   5    0.68    0.07
   1  11   5    0.67    0.07
  -1 -11  -5    0.72    0.08
  -1 -11  -5    0.68    0.08
   2  11   6    0.55    0.06
   2  11   6    0.57    0.07
  -2 -11  -6    0.54    0.08
  -2 -11  -6    0.86    0.13
   3  11   7   -0.03    0.04
   3  11   7    0.07    0.04
  -3 -11  -7   -0.06    0.07
  -3 -11  -7   -0.02    0.04
  -4  10   0    1.02    0.09
  -3  10   1    0.84    0.08
   3 -10  -1    0.79    0.08
   3 -10  -1    1.12    0.09
  -2  10   2    4.73    0.19
   2 -10  -2    4.64    0.19
   2 -10  -2    4.54    0.21
  -1  10   3   -0.02    0.03
  -1  10   3   -0.02    0.03
   1 -10  -3    0.02    0.06
   1 -10  -3   -0.04    0.04
   0  10   4    0.07    0.04
   0  10   4    0.05    0.04
   0 -10  -4    0.00    0.04
   0 -10  -4    0.01    0.06
   1  10   5    0.57    0.06
   1  10   5    0.64    0.06
  -1 -10  -5    0.57    0.08
  -1 -10  -5    0.68    0.07
   2  10   6    2.90    0.13
   2  10   6    3.09    0.13
  -2 -10  -6    3.03    0.17
  -2 -10  -6    2.94    0.14
   3  10   7   -0.03    0.03
   3  10   7   -0.02    0.04
  -3 -10  -7    0.03    0.04
  -3 -10  -7   -0.01    0.07
   4  10   8    0.14    0.06
   4  10   8    0.21    0.05
  -4 -10  -8    0.26    0.06
  -4 -10  -8    0.22    0.10
   5  10   9    1.26    0.10
  -5 -10  -9    1.38    0.11
  -5   9  -1    0.29    0.07
  -4   9   0    3.73    0.17
   4  -9   0    3.92    0.16
  -3   9   1    0.77    0.08
   3  -9  -1    0.87    0.07
  -2   9   2    1.48    0.09
   2  -9  -2    1.42    0.09
   2  -9  -2    1.60    0.10
  -1   9   3    1.21    0.07
  -1   9   3    1.15    0.08
   1  -9  -3    1.20    0.08
   1  -9  -3    1.08    0.08
   0   9   4    0.07    0.03
   0   9   4    0.08    0.04
   0  -9  -4    0.10    0.04
   0  -9  -4    0.15    0.06
   1   9   5    2.02    0.10
   1   9   5    1.85    0.09
  -1  -9  -5    1.75    0.12
  -1  -9  -5    1.96    0.11
   2   9   6   11.06    0.31
   2   9   6   10.36    0.30
  -2  -9  -6   10.88    0.41
  -2  -9  -6   10.25    0.33
   3   9   7    1.78    0.10
   3   9   7    1.88    0.10
  -3  -9  -7    1.81    0.13
  -3  -9  -7    1.85    0.11
   4   9   8    1.80    0.10
   4   9   8    1.54    0.10
  -4  -9  -8    1.81    0.11
  -4  -9  -8    1.73    0.14
   5   9   9    0.10    0.05
   5   9   9    0.11    0.04
  -5  -9  -9    0.04    0.05
  -5  -9  -9    0.15    0.10
  -6   8  -2    0.27    0.06
   6  -8   2    0.32    0.06
  -5   8  -1   -0.01    0.04
   5  -8   1   -0.03    0.04
  -4   8   0    0.20    0.06
   4  -8   0    0.21    0.05
  -3   8   1    0.40    0.06
   3  -8  -1    0.43    0.05
  -2   8   2    1.62    0.09
   2  -8  -2    1.66    0.09
  -1   8   3    0.64    0.05
  -1   8   3    0.67    0.06
   1  -8  -3    0.55    0.06
   1  -8  -3    0.58    0.06
   0   8   4    1.82    0.09
   0   8   4    1.87    0.09
   0  -8  -4    1.71    0.10
   0  -8  -4    1.83    0.09
   1   8   5   15.59    0.42
   1   8   5   15.68    0.41
  -1  -8  -5   15.49    0.44
  -1  -8  -5   15.77    0.55
   2   8   6    1.72    0.09
   2   8   6    1.70    0.09
  -2  -8  -6    1.64    0.10
  -2  -8  -6    1.70    0.11
   3   8   7    0.61    0.06
   3   8   7    0.60    0.05
  -3  -8  -7    0.61    0.06
  -3  -8  -7    0.71    0.08
   4   8   8    2.23    0.10
   4   8   8    2.07    0.11
  -4  -8  -8    2.03    0.14
  -4  -8  -8    2.21    0.12
   5   8   9    0.58    0.07
   5   8   9    0.46    0.06
  -5  -8  -9    0.49    0.07
  -5  -8  -9    0.95    0.15
   6   8  10    0.32    0.06
  -6  -8 -10    0.38    0.06
  -6  -8 -10    0.66    0.14
  -7   7  -3    3.33    0.17
   7  -7   3    3.35    0.15
  -6   7  -2    0.54    0.07
   6  -7   2    0.60    0.07
  -5   7  -1   18.86    0.53
   5  -7   1   19.40    0.52
  -4   7   0    0.38    0.06
   4  -7   0    0.32    0.06
   4  -7   0    0.27    0.05
  -3   7   1    0.21    0.04
   3  -7  -1    0.20    0.05
   3  -7  -1    0.19    0.04
  -2   7   2    1.41    0.08
   2  -7  -2    1.30    0.07
   2  -7  -2    1.50    0.09
  -1   7   3   27.92    0.70
  -1   7   3   28.59    0.67
   1  -7  -3   27.35    0.73
   1  -7  -3   28.44    0.85
   1  -7  -3   27.82    0.92
   0   7   4    1.61    0.08
   0   7   4    1.58    0.07
   0  -7  -4    1.61    0.09
   0  -7  -4    1.54    0.08
   0  -7  -4    1.55    0.09
   1   7   5   16.94    0.44
   1   7   5   16.52    0.43
  -1  -7  -5   16.15    0.53
  -1  -7  -5   16.61    0.46
  -1  -7  -5   17.61    0.58
   2   7   6    1.58    0.08
   2   7   6    1.64    0.08
  -2  -7  -6    1.56    0.10
  -2  -7  -6    1.57    0.10
  -2  -7  -6    1.54    0.09
   3   7   7    8.75    0.25
   3   7   7    8.83    0.25
  -3  -7  -7    8.50    0.34
  -3  -7  -7    8.21    0.26
   4   7   8    0.66    0.06
   4   7   8    0.67    0.06
  -4  -7  -8    0.69    0.07
  -4  -7  -8    0.70    0.09
   5   7   9   12.94    0.36
   5   7   9   12.75    0.36
  -5  -7  -9   13.95    0.52
  -5  -7  -9   12.35    0.38
   6   7  10    0.14    0.05
  -6  -7 -10    0.27    0.11
  -6  -7 -10    0.15    0.05
  -7   6  -3    0.95    0.09
   7  -6   3    1.01    0.08
  -6   6  -2    0.95    0.08
   6  -6   2    0.89    0.08
  -5   6  -1    0.92    0.08
   5  -6   1    1.08    0.08
   5  -6   1    0.84    0.07
  -4   6   0    0.08    0.03
   4  -6   0    0.11    0.04
  -3   6   1    4.57    0.13
  -3   6   1    4.16    0.15
   3  -6  -1    4.35    0.18
   3  -6  -1    4.42    0.17
   3  -6  -1    4.35    0.15
  -2   6   2    3.44    0.13
   2  -6  -2    3.39    0.15
   2  -6  -2    3.68    0.14
   2  -6  -2    3.58    0.13
  -1   6   3   28.69    0.70
  -1   6   3   28.09    0.73
   1  -6  -3   32.00    0.88
   1  -6  -3   28.83    0.75
   1  -6  -3   29.10    0.95
   0   6   4    1.74    0.08
   0   6   4    1.90    0.08
   0   6   4    1.81    0.07
   0  -6  -4    1.80    0.10
   0  -6  -4    1.79    0.08
   0  -6  -4    1.63    0.08
   1   6   5   13.73    0.35
   1   6   5   13.01    0.37
   1   6   5   13.19    0.34
   1   6   5   13.93    0.37
  -1  -6  -5   13.31    0.43
  -1  -6  -5   12.93    0.37
  -1  -6  -5   12.93    0.46
   2   6   6    1.00    0.05
   2   6   6    0.91    0.06
   2   6   6    1.02    0.06
   2   6   6    0.95    0.06
  -2  -6  -6    0.99    0.08
  -2  -6  -6    0.96    0.07
  -2  -6  -6    0.89    0.07
   3   6   7    0.25    0.04
   3   6   7    0.31    0.04
   3   6   7    0.26    0.03
   3   6   7    0.22    0.04
  -3  -6  -7    0.18    0.04
  -3  -6  -7    0.22    0.04
  -3  -6  -7    0.39    0.08
   4   6   8    8.12    0.24
   4   6   8    8.33    0.26
   4   6   8    8.53    0.25
  -4  -6  -8    8.44    0.30
  -4  -6  -8    8.21    0.34
  -4  -6  -8    8.17    0.26
   5   6   9   12.77    0.37
   5   6   9   12.17    0.34
   5   6   9   12.50    0.35
  -5  -6  -9   12.86    0.50
  -5  -6  -9   12.84    0.37
   6   6  10    0.45    0.06
  -6  -6 -10    0.29    0.10
   7   6  11    3.21    0.14
   8  -5   4    0.26    0.06
  -7   5  -3   -0.01    0.04
   7  -5   3   -0.02    0.04
  -6   5  -2   41.64    1.06
   6  -5   2   42.50    1.05
  -5   5  -1    1.81    0.10
   5  -5   1    2.01    0.10
   5  -5   1    1.78    0.09
  -4   5   0    0.68    0.05
  -4   5   0    0.69    0.06
   4  -5   0    0.67    0.05
   4  -5   0    0.66    0.06
   4  -5   0    0.57    0.05
  -3   5   1    0.21    0.03
  -3   5   1    0.12    0.03
  -3   5   1    0.20    0.02
   3  -5  -1    0.18    0.03
   3  -5  -1    0.12    0.03
   3  -5  -1    0.21    0.03
  -2   5   2   21.76    0.53
  -2   5   2   23.29    0.67
  -2   5   2   22.22    0.56
   2  -5  -2   22.24    0.57
   2  -5  -2   21.87    0.67
  -1   5   3    0.23    0.03
  -1   5   3    0.34    0.03
  -1   5   3    0.27    0.03
   1  -5  -3    0.33    0.04
   1  -5  -3    0.31    0.04
   0   5   4    0.69    0.04
   0   5   4    0.74    0.05
   0   5   4    0.67    0.04
   0   5   4    0.63    0.05
   0  -5  -4    0.71    0.05
   0  -5  -4    0.71    0.06
   0  -5  -4    0.57    0.05
   1   5   5    9.42    0.25
   1   5   5    9.74    0.25
   1   5   5    9.95    0.28
   1   5   5    9.28    0.27
  -1  -5  -5    9.15    0.33
  -1  -5  -5    9.32    0.31
  -1  -5  -5    9.59    0.27
   2   5   6    3.32    0.11
   2   5   6    3.45    0.12
   2   5   6    3.19    0.12
   2   5   6    3.08    0.11
  -2  -5  -6    3.15    0.14
  -2  -5  -6    3.25    0.12
  -2  -5  -6    3.39    0.15
   3   5   7   -0.01    0.02
   3   5   7   -0.01    0.02
   3   5   7   -0.01    0.02
   3   5   7   -0.02    0.02
  -3  -5  -7    0.00    0.02
  -3  -5  -7    0.22    0.07
   4   5   8    2.66    0.11
   4   5   8    2.67    0.11
   4   5   8    2.09    0.11
   4   5   8    2.53    0.10
  -4  -5  -8    2.53    0.11
  -4  -5  -8    2.66    0.16
   5   5   9   -0.03    0.03
   5   5   9    0.00    0.03
   5   5   9    0.00    0.04
   5   5   9    0.02    0.04
  -5  -5  -9    0.06    0.03
  -5  -5  -9   -0.04    0.07
   6   5  10    4.87    0.17
   6   5  10    5.06    0.20
   7   5  11    0.00    0.04
   7   5  11   -0.06    0.05
   8  -4   4    0.01    0.04
   7  -4   3    0.84    0.07
  -6   4  -2   25.57    0.68
   6  -4   2   26.46    0.67
  -5   4  -1    4.55    0.17
  -5   4  -1    4.60    0.17
   5  -4   1    4.69    0.16
   5  -4   1    4.73    0.17
  -4   4   0    0.93    0.06
  -4   4   0    0.94    0.04
   4  -4   0    0.99    0.06
   4  -4   0    0.94    0.05
   4  -4   0    1.06    0.06
   4  -4   0    0.92    0.06
   4  -4   0    1.03    0.05
  -3   4   1    1.70    0.08
  -3   4   1    1.80    0.08
  -3   4   1    1.71    0.06
   3  -4  -1    1.54    0.08
   3  -4  -1    1.69    0.07
  -2   4   2    4.11    0.13
  -2   4   2    4.20    0.13
  -2   4   2    4.19    0.12
   2  -4  -2    4.20    0.15
   2  -4  -2    4.34    0.13
  -1   4   3   19.79    0.54
  -1   4   3   19.09    0.50
  -1   4   3   19.62    0.46
   1  -4  -3   18.99    0.50
   1  -4  -3   19.04    0.58
   0   4   4   15.49    0.38
   0   4   4   15.95    0.44
   0   4   4   15.50    0.41
   0   4   4   15.73    0.39
   0  -4  -4   15.76    0.41
   0  -4  -4   15.41    0.48
   0  -4  -4   15.76    0.51
   1   4   5   68.35    1.58
   1   4   5   66.90    1.65
   1   4   5   69.18    1.81
   1   4   5   64.06    1.54
  -1  -4  -5   65.78    2.14
  -1  -4  -5   66.40    1.65
   2   4   6   10.32    0.29
   2   4   6   10.05    0.27
   2   4   6   10.29    0.26
  -2  -4  -6   10.13    0.37
  -2  -4  -6   10.17    0.28
   3   4   7   17.88    0.45
   3   4   7   17.78    0.45
   3   4   7   17.82    0.48
   3   4   7   17.96    0.52
  -3  -4  -7   17.59    0.63
  -3  -4  -7   18.08    0.47
   4   4   8    2.05    0.08
   4   4   8    1.97    0.09
   4   4   8    1.98    0.10
   4   4   8    2.16    0.10
  -4  -4  -8    2.02    0.09
  -4  -4  -8    1.97    0.13
   5   4   9    0.70    0.07
   5   4   9    0.65    0.06
   5   4   9    0.55    0.06
   5   4   9    0.61    0.05
  -5  -4  -9    0.53    0.06
  -5  -4  -9    0.60    0.09
   6   4  10    3.07    0.15
   6   4  10    3.06    0.12
   7   4  11    6.95    0.22
   7   4  11    7.15    0.28
   9  -3   5    0.21    0.06
   8  -3   4    7.10    0.24
   7  -3   3   48.45    1.20
   6  -3   2    7.80    0.24
  -5   3  -1   34.54    0.98
  -5   3  -1   33.76    0.86
   5  -3   1   34.09    0.84
   5  -3   1   34.54    0.80
   5  -3   1   34.11    0.85
  -4   3   0    0.32    0.04
   4  -3   0    0.36    0.04
   4  -3   0    0.30    0.03
   4  -3   0    0.34    0.04
   4  -3   0    0.36    0.03
   4  -3   0    0.32    0.03
  -3   3   1   74.91    1.82
  -3   3   1   73.76    1.78
  -3   3   1   75.74    1.70
  -3   3   1   75.65    2.02
   3  -3  -1   75.84    1.71
   3  -3  -1   73.47    1.77
   3  -3  -1   72.81    1.82
   3  -3  -1   73.72    2.10
  -2   3   2   55.69    1.49
  -2   3   2   53.74    1.25
  -2   3   2   54.59    1.31
  -2   3   2   54.59    1.34
   2  -3  -2   54.81    1.34
   2  -3  -2   54.51    1.55
  -1   3   3   31.17    0.74
  -1   3   3   30.74    0.77
  -1   3   3   30.42    0.84
  -1   3   3   31.43    0.71
   1  -3  -3   28.82    0.88
   0   3   4    1.99    0.08
   0   3   4    2.04    0.06
   0   3   4    1.90    0.07
   0  -3  -4    2.28    0.08
   1   3   5    0.36    0.03
   1   3   5    0.35    0.03
   1   3   5    0.31    0.02
   1   3   5    0.26    0.03
  -1  -3  -5    0.32    0.04
   2   3   6    7.27    0.19
   2   3   6    7.00    0.19
   2   3   6    7.04    0.22
   2   3   6    7.16    0.21
  -2  -3  -6    7.33    0.27
   3   3   7   19.81    0.48
   3   3   7   19.83    0.52
   3   3   7   19.68    0.57
   3   3   7   19.80    0.49
  -3  -3  -7   19.63    0.68
   4   3   8    3.47    0.11
   4   3   8    3.49    0.12
   4   3   8    3.36    0.14
   4   3   8    3.31    0.13
  -4  -3  -8    3.34    0.18
   5   3   9    3.05    0.12
   5   3   9    3.02    0.11
   5   3   9    3.07    0.15
   5   3   9    3.18    0.12
  -5  -3  -9    3.05    0.18
   6   3  10    1.06    0.07
   6   3  10    1.01    0.09
   7   3  11    4.08    0.20
   9  -2   5    2.67    0.14
   8  -2   4    7.26    0.24
   7  -2   3    4.27    0.16
   6  -2   2    6.91    0.21
   5  -2   1    4.97    0.16
   5  -2   1    5.00    0.14
   5  -2   1    4.92    0.13
  -4   2   0    1.42    0.07
  -4   2   0    1.22    0.05
   4  -2   0    1.35    0.05
   4  -2   0    1.36    0.06
   4  -2   0    1.33    0.05
   4  -2   0    1.27    0.06
   4  -2   0    1.47    0.07
  -3   2   1   36.78    0.90
  -3   2   1   37.34    1.01
  -3   2   1   36.35    0.89
   3  -2  -1   36.16    0.85
   3  -2  -1   36.76    1.04
   3  -2  -1   36.27    0.88
  -2   2   2    0.18    0.02
  -2   2   2    0.18    0.02
  -2   2   2    0.19    0.02
  -2   2   2    0.15    0.02
   2  -2  -2    0.19    0.02
   2  -2  -2    0.16    0.02
  -1   2   3   83.80    2.08
  -1   2   3   83.63    1.95
  -1   2   3   85.61    2.02
  -1   2   3   88.37    2.31
   0   2   4   36.05    0.85
   0   2   4   37.66    0.88
   0   2   4   37.51    1.01
   0   2   4   35.99    0.92
   0  -2  -4   36.84    1.18
   1   2   5  122.08    2.86
   1   2   5  121.82    3.24
   1   2   5  115.55    2.74
   1   2   5  120.50    2.93
  -1  -2  -5  121.10    3.83
   2   2   6    2.97    0.09
   2   2   6    3.01    0.08
   2   2   6    2.86    0.11
   2   2   6    2.80    0.10
  -2  -2  -6    2.86    0.13
   3   2   7   11.91    0.30
   3   2   7   11.85    0.33
   3   2   7   11.73    0.36
   3   2   7   11.82    0.30
  -3  -2  -7   11.56    0.43
   4   2   8    7.84    0.21
   4   2   8    7.87    0.23
   4   2   8    7.79    0.21
   4   2   8    7.72    0.26
  -4  -2  -8    7.80    0.32
   5   2   9   35.00    1.01
   5   2   9   35.37    0.86
   5   2   9   35.58    0.90
   5   2   9   34.88    0.84
   6   2  10   27.18    0.81
   7   2  11    2.42    0.15
   9  -1   5    3.74    0.17
   8  -1   4    9.45    0.29
   7  -1   3    6.22    0.21
   6  -1   2   26.51    0.61
   6  -1   2   25.05    0.65
   5  -1   1    0.30    0.04
   5  -1   1    0.34    0.03
  -4   1   0  223.36    5.34
  -4   1   0  217.58    5.87
   4  -1   0  215.97    6.91
   4  -1   0  206.21    5.13
   4  -1   0  223.30    6.19
   4  -1   0  222.43    4.97
  -3   1   1    8.74    0.27
  -3   1   1    8.65    0.23
   3  -1  -1    8.53    0.22
   3  -1  -1    8.81    0.26
   3  -1  -1    9.14    0.29
   3  -1  -1    8.54    0.29
   3  -1  -1    8.86    0.23
  -2   1   2  128.76    3.37
  -2   1   2  129.08    3.04
  -2   1   2  122.86    2.84
   2  -1  -2  121.16    2.85
   2  -1  -2  122.84    2.94
  -1   1   3    3.98    0.12
  -1   1   3    4.19    0.11
  -1   1   3    4.34    0.14
   1  -1  -3    4.03    0.14
   1  -1  -3    4.24    0.14
   1  -1  -3    4.08    0.11
   0   1   4   74.20    1.82
   0   1   4   75.03    2.02
   0  -1  -4   73.90    2.37
   1   1   5    5.83    0.16
   1   1   5    5.88    0.19
   1   1   5    6.13    0.18
  -1  -1  -5    5.80    0.22
   2   1   6   55.96    1.30
   2   1   6   56.48    1.54
   2   1   6   56.94    1.33
   2   1   6   54.74    1.39
  -2  -1  -6   57.16    1.82
   3   1   7   -0.01    0.02
   3   1   7    0.01    0.02
   3   1   7    0.01    0.01
   3   1   7    0.04    0.02
  -3  -1  -7    0.00    0.04
   4   1   8    3.28    0.15
   4   1   8    3.26    0.11
   4   1   8    3.38    0.11
   4   1   8    3.31    0.12
   5   1   9   25.98    0.79
   5   1   9   27.04    0.70
   5   1   9   27.22    0.64
   6   1  10    7.98    0.30
   7   1  11    1.36    0.11
   9   0   5    6.33    0.23
   8   0   4    0.10    0.05
   7   0   3    0.04    0.03
   6   0   2    3.68    0.12
   6   0   2    3.56    0.13
   5   0   1   21.23    0.50
   5   0   1   19.17    0.51
   5   0   1   20.04    0.49
  -4   0   0   11.09    0.28
  -4   0   0   10.93    0.33
   4   0   0   10.83    0.28
   4   0   0   11.48    0.29
   4   0   0   10.79    0.38
  -3   0   1    0.71    0.05
  -3   0   1    0.79    0.04
   3   0  -1    0.79    0.05
   3   0  -1    0.81    0.04
   3   0  -1    0.90    0.05
   3   0  -1    0.71    0.04
  -2   0   2  347.11    7.98
  -2   0   2  339.14    8.82
   2   0  -2  317.70    7.68
   2   0  -2  300.70   10.36
   2   0  -2  336.64   10.35
   2   0  -2  305.68    7.46
  -1   0   3   63.42    1.80
  -1   0   3   65.87    1.52
  -1   0   3   67.18    1.63
   1   0  -3   67.66    2.12
   1   0  -3   66.21    1.53
   1   0  -3   68.01    1.57
   0   0   4    0.04    0.01
   0   0   4    0.07    0.02
   0   0   4    0.06    0.01
   0   0  -4    0.14    0.03
   1   0   5    1.84    0.05
   1   0   5    1.72    0.06
   1   0   5    1.71    0.07
   1   0   5    1.79    0.08
  -1   0  -5    1.74    0.09
   2   0   6  132.59    3.06
   2   0   6  126.20    3.14
   2   0   6  129.97    3.49
   2   0   6  124.53    2.93
  -2   0  -6  130.96    4.12
   3   0   7   17.74    0.53
   3   0   7   18.44    0.44
   3   0   7   18.38    0.43
   3   0   7   18.17    0.47
  -3   0  -7   16.15    0.62
   4   0   8   49.73    1.15
   4   0   8   50.01    1.25
   4   0   8   50.47    1.19
   4   0   8   49.03    1.39
  -4   0  -8   49.09    1.64
   5   0   9   15.15    0.41
   5   0   9   14.73    0.47
   6   0  10    5.96    0.24
   7   0  11    0.92    0.10
   9   1   5   12.73    0.38
   8   1   4   13.82    0.40
   7   1   3    0.36    0.05
   7   1   3    0.37    0.04
   6   1   2    4.19    0.15
   6   1   2    4.25    0.13
  -5  -1  -1    7.08    0.19
   5   1   1    7.13    0.20
   5   1   1    7.20    0.21
  -4  -1   0   17.72    0.51
  -4  -1   0   17.54    0.45
   4   1   0   17.66    0.43
   4   1   0   17.65    0.59
   4   1   0   17.39    0.44
  -3  -1   1  100.84    2.72
  -3  -1   1  102.19    2.45
   3   1  -1  100.56    2.30
   3   1  -1   99.76    2.37
   3   1  -1   99.38    3.20
  -2  -1   2    0.08    0.02
  -2  -1   2    0.06    0.02
   2   1  -2    0.08    0.02
   2   1  -2    0.09    0.03
  -1  -1   3   13.99    0.40
  -1  -1   3   13.86    0.36
   1   1  -3   13.36    0.34
   1   1  -3   14.04    0.47
   1   1  -3   13.78    0.34
   0  -1   4   29.94    0.71
   0  -1   4   31.15    0.73
   0  -1   4   30.67    0.85
   0  -1   4   30.47    0.77
   0   1  -4   30.70    0.72
   0   1  -4   30.82    0.73
   0   1  -4   31.07    1.01
   1  -1   5    0.21    0.03
   1  -1   5    0.14    0.03
   1  -1   5    0.17    0.02
  -1   1  -5    0.29    0.05
  -1   1  -5    0.18    0.02
  -1   1  -5    0.17    0.02
   2  -1   6    4.41    0.12
   2  -1   6    4.30    0.11
   2  -1   6    4.21    0.14
   2  -1   6    4.20    0.16
  -2   1  -6    4.28    0.12
  -2   1  -6    3.89    0.18
   3  -1   7   13.07    0.32
   3  -1   7   13.21    0.33
   3  -1   7   12.80    0.36
   3  -1   7   12.79    0.40
  -3   1  -7   13.38    0.48
   4  -1   8    8.65    0.26
   4  -1   8    8.69    0.23
   4  -1   8    8.58    0.22
   4  -1   8    8.49    0.29
  -4   1  -8    8.44    0.35
   5  -1   9    1.83    0.09
   5  -1   9    1.75    0.11
   6  -1  10    0.38    0.07
   7  -1  11    3.06    0.17
   9   2   5    2.97    0.14
   8   2   4    6.37    0.22
   8   2   4    6.73    0.20
   7   2   3    3.28    0.12
   7   2   3    3.25    0.13
   6   2   2    3.51    0.13
   6   2   2    3.75    0.13
  -5  -2  -1    2.33    0.08
   5   2   1    2.30    0.09
   5   2   1    2.36    0.10
  -4  -2   0    5.45    0.18
  -4  -2   0    5.58    0.16
   4   2   0    5.54    0.16
   4   2   0    5.40    0.16
   4   2   0    5.26    0.16
   4   2   0    5.45    0.22
  -3  -2   1    1.18    0.06
   3   2  -1    1.12    0.05
   3   2  -1    1.28    0.05
   3   2  -1    1.20    0.07
   3   2  -1    1.11    0.06
  -2  -2   2   64.68    1.77
  -2  -2   2   66.58    1.60
   2   2  -2   65.29    1.54
   2   2  -2   64.17    2.09
   2   2  -2   64.47    1.50
  -1  -2   3   72.49    2.24
  -1  -2   3   72.45    1.73
  -1  -2   3   68.66    1.90
   1   2  -3   68.90    1.62
   1   2  -3   69.12    1.66
   1   2  -3   69.49    2.25
   0  -2   4    0.38    0.04
   0  -2   4    0.35    0.03
   0  -2   4    0.40    0.04
   0   2  -4    0.37    0.04
   0   2  -4    0.37    0.02
   0   2  -4    0.37    0.03
   1  -2   5   69.54    1.56
   1  -2   5   71.13    1.69
   1  -2   5   68.80    1.86
  -1   2  -5   59.83    2.19
  -1   2  -5   69.33    1.61
  -1   2  -5   69.73    1.57
   2  -2   6   12.49    0.39
   2  -2   6   12.83    0.35
   2  -2   6   12.59    0.31
  -2   2  -6   12.58    0.32
  -2   2  -6   12.58    0.32
  -2   2  -6   12.93    0.46
   3  -2   7   13.48    0.33
   3  -2   7   13.02    0.36
   3  -2   7   13.08    0.41
   3  -2   7   13.02    0.32
  -3   2  -7   12.86    0.34
  -3   2  -7   13.16    0.33
  -3   2  -7   13.04    0.48
   4  -2   8    1.59    0.07
   4  -2   8    1.52    0.10
   4  -2   8    1.55    0.08
   5  -2   9    3.86    0.18
   6  -2  10    0.03    0.05
   7  -2  11    1.51    0.12
   9   3   5    1.98    0.12
   8   3   4   24.20    0.60
   8   3   4   23.74    0.64
   7   3   3    3.17    0.13
   7   3   3    3.24    0.12
   6   3   2    7.60    0.22
   6   3   2    7.80    0.23
  -5  -3  -1   25.34    0.65
   5   3   1   25.93    0.65
   5   3   1   25.40    0.62
  -4  -3   0    0.40    0.05
  -4  -3   0    0.33    0.04
  -4  -3   0    0.40    0.03
   4   3   0    0.39    0.04
   4   3   0    0.41    0.05
   4   3   0    0.35    0.04
  -3  -3   1   15.20    0.51
  -3  -3   1   14.87    0.43
  -3  -3   1   15.25    0.40
   3   3  -1   14.85    0.52
   3   3  -1   15.26    0.38
   3   3  -1   14.93    0.45
   3   3  -1   14.89    0.38
  -2  -3   2   33.46    1.07
  -2  -3   2   32.16    0.91
  -2  -3   2   33.92    0.84
   2   3  -2   32.14    0.78
   2   3  -2   33.09    0.95
   2   3  -2   32.41    0.80
   2   3  -2   33.15    1.08
  -1  -3   3   32.34    1.06
  -1  -3   3   32.27    0.89
  -1  -3   3   32.41    0.82
   1   3  -3   32.28    1.06
   1   3  -3   32.26    0.78
   1   3  -3   32.01    0.76
   0  -3   4    2.71    0.11
   0  -3   4    2.81    0.11
   0   3  -4    2.76    0.09
   0   3  -4    2.86    0.09
   1  -3   5    0.45    0.04
   1  -3   5    0.55    0.05
  -1   3  -5    0.57    0.06
  -1   3  -5    0.60    0.04
   2  -3   6    3.80    0.15
   2  -3   6    3.78    0.14
  -2   3  -6    3.89    0.12
  -2   3  -6    3.77    0.12
  -2   3  -6    3.83    0.18
   3  -3   7    5.86    0.19
   3  -3   7    5.97    0.17
   3  -3   7    5.73    0.21
  -3   3  -7    5.75    0.17
   4  -3   8    0.00    0.02
   4  -3   8    0.00    0.03
   4  -3   8    0.04    0.03
  -4   3  -8    0.03    0.02
   5  -3   9    3.06    0.16
   6  -3  10    1.85    0.13
   9   4   5    0.86    0.09
   9   4   5    0.85    0.08
   8   4   4    7.15    0.22
   8   4   4    6.93    0.24
   7   4   3    3.26    0.13
   7   4   3    3.07    0.13
  -6  -4  -2    7.03    0.21
   6   4   2    6.86    0.21
   6   4   2    6.87    0.22
  -5  -4  -1    3.13    0.12
   5   4   1    3.64    0.12
   5   4   1    3.07    0.12
   5   4   1    3.10    0.12
  -4  -4   0   39.52    1.00
  -4  -4   0   40.92    1.31
  -4  -4   0   39.11    1.10
   4   4   0   40.11    0.95
   4   4   0   39.01    0.97
   4   4   0   39.30    1.13
   4   4   0   39.98    1.31
  -3  -4   1    7.81    0.23
  -3  -4   1    7.84    0.29
  -3  -4   1    7.95    0.24
   3   4  -1    7.84    0.22
   3   4  -1    8.01    0.30
   3   4  -1    7.74    0.22
   3   4  -1    7.90    0.25
  -2  -4   2  248.40    5.97
  -2  -4   2  229.81    6.63
  -2  -4   2  242.26    7.77
   2   4  -2  250.57    5.57
   2   4  -2  249.50    6.88
   2   4  -2  245.80    5.80
   2   4  -2  249.09    7.78
  -1  -4   3   -0.05    0.03
  -1  -4   3    0.03    0.02
  -1  -4   3    0.06    0.02
   1   4  -3    0.03    0.03
   1   4  -3    0.01    0.02
   1   4  -3   -0.07    0.03
   1   4  -3    0.03    0.01
   0  -4   4   12.27    0.42
   0  -4   4   11.80    0.36
   0  -4   4   11.70    0.34
   0   4  -4   12.18    0.31
   0   4  -4   11.93    0.30
   0   4  -4   11.54    0.43
   1  -4   5   29.45    0.76
   1  -4   5   29.34    0.82
  -1   4  -5   29.87    0.71
  -1   4  -5   26.17    0.69
  -1   4  -5   30.74    0.98
   2  -4   6    1.70    0.09
   2  -4   6    1.31    0.08
  -2   4  -6    1.21    0.06
  -2   4  -6    1.32    0.06
   3  -4   7   17.21    0.53
   3  -4   7   17.55    0.48
  -3   4  -7   17.79    0.46
   4  -4   8   14.86    0.39
   4  -4   8   14.97    0.42
   4  -4   8   14.16    0.47
  -4   4  -8   14.82    0.40
   5  -4   9    2.51    0.14
   6  -4  10    4.33    0.21
   9   5   5    8.66    0.30
   9   5   5    8.85    0.28
   8   5   4    0.13    0.05
   8   5   4    0.07    0.04
   7   5   3    4.64    0.17
   7   5   3    4.74    0.18
  -6  -5  -2   22.47    0.58
   6   5   2   21.40    0.57
   6   5   2   21.74    0.56
  -5  -5  -1   82.05    1.99
   5   5   1   79.39    1.93
   5   5   1   80.02    1.88
  -4  -5   0   10.76    0.39
  -4  -5   0   10.99    0.32
  -4  -5   0   10.79    0.31
   4   5   0   10.37    0.30
   4   5   0   10.23    0.40
   4   5   0   10.51    0.33
   4   5   0   10.87    0.30
  -3  -5   1    9.86    0.36
  -3  -5   1    9.67    0.28
  -3  -5   1    9.55    0.29
   3   5  -1    9.68    0.27
   3   5  -1    9.54    0.31
   3   5  -1    9.71    0.27
  -2  -5   2    0.64    0.06
  -2  -5   2    0.64    0.05
  -2  -5   2    0.71    0.05
   2   5  -2    0.72    0.05
   2   5  -2    0.77    0.05
   2   5  -2    0.67    0.06
   2   5  -2    0.68    0.07
  -1  -5   3    0.42    0.07
  -1  -5   3    0.22    0.04
  -1  -5   3    0.27    0.03
   1   5  -3    0.50    0.07
   1   5  -3    0.31    0.03
   0  -5   4   14.83    0.43
   0  -5   4   13.98    0.51
   0  -5   4   14.76    0.41
   0   5  -4   14.59    0.38
   0   5  -4   14.16    0.37
   0   5  -4   14.87    0.52
   1  -5   5    0.31    0.05
  -1   5  -5    0.33    0.04
  -1   5  -5    0.25    0.04
   2  -5   6   13.95    0.42
   2  -5   6   13.01    0.39
  -2   5  -6   13.57    0.36
   3  -5   7    4.01    0.16
   3  -5   7    4.21    0.17
  -3   5  -7    4.03    0.14
   4  -5   8    0.89    0.07
   4  -5   8    0.87    0.06
   4  -5   8    0.89    0.08
  -4   5  -8    0.89    0.07
   5  -5   9    0.41    0.07
   8   6   4    0.89    0.08
   8   6   4    0.81    0.08
   7   6   3    1.48    0.09
   7   6   3    1.55    0.09
  -6  -6  -2    2.75    0.12
   6   6   2    2.51    0.12
   6   6   2    2.66    0.12
  -5  -6  -1   27.26    0.71
   5   6   1   26.10    0.69
   5   6   1   27.42    0.68
  -4  -6   0   12.88    0.37
  -4  -6   0   13.00    0.38
   4   6   0   12.97    0.40
   4   6   0   12.44    0.35
   4   6   0   12.42    0.35
  -3  -6   1   16.60    0.58
  -3  -6   1   15.36    0.45
  -3  -6   1   18.52    0.47
   3   6  -1   16.08    0.58
   3   6  -1   15.39    0.43
   3   6  -1   15.72    0.42
  -2  -6   2    1.04    0.07
  -2  -6   2    1.11    0.06
  -2  -6   2    1.15    0.09
   2   6  -2    1.07    0.06
   2   6  -2    1.12    0.09
   2   6  -2    1.09    0.06
  -1  -6   3   10.93    0.33
  -1  -6   3   11.53    0.34
  -1  -6   3   11.21    0.41
   1   6  -3   11.27    0.30
   1   6  -3   11.22    0.42
   1   6  -3   10.84    0.30
   0  -6   4    0.04    0.03
   0  -6   4    0.08    0.03
   0  -6   4   -0.01    0.04
   0   6  -4   -0.05    0.03
   0   6  -4   -0.02    0.03
   1  -6   5  199.70    5.42
   1  -6   5  194.73    6.39
   1  -6   5  203.28    4.91
  -1   6  -5  196.75    4.73
  -1   6  -5  209.87    4.58
   2  -6   6    4.94    0.19
   2  -6   6    5.23    0.20
  -2   6  -6    5.13    0.17
   3  -6   7    1.35    0.09
   3  -6   7    1.36    0.10
  -3   6  -7    1.31    0.08
   4  -6   8    1.18    0.09
   4  -6   8    1.10    0.09
   4  -6   8    1.21    0.08
  -4   6  -8    1.27    0.08
   5  -6   9    3.27    0.17
   8   7   4    0.71    0.08
   8   7   4    0.68    0.07
   7   7   3    0.20    0.05
   7   7   3    0.23    0.05
  -6  -7  -2   32.87    0.83
   6   7   2   30.06    0.78
   6   7   2   31.05    0.81
  -5  -7  -1    0.09    0.04
   5   7   1    0.05    0.04
   5   7   1    0.02    0.04
  -4  -7   0    3.21    0.14
   4   7   0    3.24    0.13
   4   7   0    3.00    0.13
  -3  -7   1    6.70    0.23
  -3  -7   1    7.13    0.29
   3   7  -1    6.77    0.21
   3   7  -1    6.78    0.21
  -2  -7   2    2.84    0.11
  -2  -7   2    2.59    0.12
  -2  -7   2    2.82    0.15
   2   7  -2    2.62    0.11
   2   7  -2    2.69    0.11
  -1  -7   3    9.83    0.31
  -1  -7   3   10.15    0.31
   1   7  -3   10.20    0.28
   1   7  -3    9.70    0.28
   0  -7   4    1.09    0.08
   0  -7   4    0.88    0.09
   0  -7   4    1.23    0.10
   0   7  -4    0.95    0.08
   0   7  -4    1.14    0.07
   1  -7   5    4.04    0.20
   1  -7   5    4.03    0.16
   1  -7   5    4.00    0.17
  -1   7  -5    4.10    0.15
   2  -7   6    0.94    0.10
   2  -7   6    1.02    0.08
   2  -7   6    0.98    0.08
  -2   7  -6    0.95    0.07
   3  -7   7    0.61    0.07
   3  -7   7    0.64    0.07
  -3   7  -7    0.70    0.07
   4  -7   8    0.07    0.05
   4  -7   8    0.20    0.06
   7   8   3   -0.02    0.04
   7   8   3    0.00    0.04
  -6  -8  -2    3.60    0.16
   6   8   2    3.34    0.15
   6   8   2    3.68    0.15
  -5  -8  -1    7.17    0.25
   5   8   1    7.19    0.24
   5   8   1    6.99    0.23
  -4  -8   0    0.70    0.07
   4   8   0    0.70    0.06
   4   8   0    0.60    0.06
  -3  -8   1    1.01    0.08
   3   8  -1    0.99    0.07
   3   8  -1    1.11    0.07
  -2  -8   2    0.38    0.06
   2   8  -2    0.40    0.05
   2   8  -2    0.42    0.05
  -1  -8   3    4.07    0.17
  -1  -8   3    4.36    0.21
   1   8  -3    3.99    0.15
   1   8  -3    3.82    0.14
   0  -8   4   19.24    0.56
   0  -8   4   19.82    0.71
   0   8  -4   19.70    0.52
   0   8  -4   20.12    0.50
   1  -8   5    3.93    0.20
   1  -8   5    3.96    0.17
  -1   8  -5    4.04    0.15
   2  -8   6    0.65    0.07
   2  -8   6    0.94    0.13
  -2   8  -6    0.74    0.07
   3  -8   7    0.10    0.05
   3  -8   7    0.11    0.05
  -3   8  -7    0.08    0.04
   7   9   3    0.03    0.05
   7   9   3   -0.01    0.05
  -6  -9  -2    1.41    0.10
   6   9   2    1.22    0.09
   6   9   2    1.49    0.10
  -5  -9  -1    9.39    0.31
   5   9   1    9.45    0.30
   5   9   1    9.53    0.30
  -4  -9   0    5.86    0.22
   4   9   0    5.86    0.21
   4   9   0    5.98    0.21
  -3  -9   1    6.09    0.23
   3   9  -1    6.47    0.21
   3   9  -1    6.00    0.21
  -2  -9   2    0.21    0.06
   2   9  -2    0.21    0.05
   2   9  -2    0.25    0.05
  -1  -9   3    2.99    0.17
  -1  -9   3    2.63    0.14
   1   9  -3    2.85    0.13
   1   9  -3    2.86    0.12
   0  -9   4    0.54    0.11
   0  -9   4    0.29    0.06
   0   9  -4    0.42    0.06
   1  -9   5    0.08    0.05
   1  -9   5    0.07    0.08
  -1   9  -5    0.14    0.04
   2  -9   6    0.34    0.06
  -2   9  -6    0.56    0.07
  -6 -10  -2    0.09    0.05
   6  10   2    0.17    0.06
  -5 -10  -1    9.24    0.32
   5  10   1    8.83    0.30
   5  10   1    9.29    0.30
  -4 -10   0    0.21    0.06
   4  10   0    0.22    0.05
   4  10   0    0.24    0.05
  -3 -10   1    0.34    0.06
   3  10  -1    0.20    0.05
   3  10  -1    0.21    0.05
  -2 -10   2    4.57    0.20
   2  10  -2    4.27    0.17
   2  10  -2    4.59    0.17
  -1 -10   3    1.59    0.11
   1  10  -3    1.65    0.10
   1  10  -3    1.69    0.10
   0 -10   4    1.60    0.12
   0  10  -4    1.85    0.11
   1 -10   5    5.77    0.24
  -1  10  -5    6.45    0.23
  -4 -11   0    0.15    0.06
  -3 -11   1    0.83    0.09
   3  11  -1    0.93    0.08
   3  11  -1    0.97    0.08
  -2 -11   2    3.45    0.18
   2  11  -2    3.44    0.15
   2  11  -2    3.47    0.15
  -1 -11   3    0.27    0.07
   1  11  -3    0.27    0.06
  -3  11   2    0.07    0.05
   3 -11  -2    0.03    0.04
   3 -11  -2    0.11    0.07
  -2  11   3    0.71    0.08
   2 -11  -3    0.73    0.08
   2 -11  -3    0.75    0.08
  -1  11   4    0.14    0.04
  -1  11   4    0.00    0.04
   1 -11  -4    0.11    0.07
   1 -11  -4    0.10    0.05
   0  11   5    0.35    0.05
   0 -11  -5    0.46    0.09
   0 -11  -5    0.28    0.06
   1  11   6    0.50    0.06
   1  11   6    0.52    0.07
  -1 -11  -6    0.38    0.06
  -1 -11  -6    0.74    0.11
   2  11   7    0.20    0.05
   2  11   7    0.21    0.05
  -2 -11  -7    0.27    0.06
  -2 -11  -7    0.39    0.10
   3  11   8    2.14    0.12
   3  11   8    2.02    0.11
  -3 -11  -8    2.15    0.16
  -3 -11  -8    2.17    0.13
  -4  10   1    1.12    0.10
  -3  10   2    0.42    0.06
   3 -10  -2    0.50    0.07
   3 -10  -2    0.53    0.07
  -2  10   3    1.89    0.11
   2 -10  -3    1.85    0.11
   2 -10  -3    1.69    0.11
  -1  10   4    0.06    0.04
  -1  10   4    0.07    0.04
   1 -10  -4    0.14    0.06
   1 -10  -4    0.02    0.04
   0  10   5   -0.05    0.04
   0  10   5   -0.03    0.03
   0 -10  -5   -0.06    0.05
   0 -10  -5    0.07    0.04
   1  10   6    2.12    0.11
   1  10   6    2.21    0.11
  -1 -10  -6    2.28    0.12
  -1 -10  -6    2.05    0.13
   2  10   7    0.01    0.04
   2  10   7   -0.05    0.03
  -2 -10  -7   -0.04    0.04
  -2 -10  -7    0.06    0.07
   3  10   8    0.02    0.04
   3  10   8    0.07    0.04
  -3 -10  -8   -0.07    0.07
  -3 -10  -8    0.05    0.05
   4  10   9    3.87    0.16
  -4 -10  -9    3.55    0.17
  -4 -10  -9    3.87    0.22
  -5   9   0    6.20    0.24
   5  -9   0    6.48    0.23
  -4   9   1    0.06    0.05
   4  -9  -1    0.10    0.04
  -3   9   2    1.70    0.10
   3  -9  -2    1.81    0.10
  -2   9   3    0.09    0.04
  -2   9   3    0.16    0.04
   2  -9  -3    0.09    0.04
   2  -9  -3    0.16    0.06
  -1   9   4    3.80    0.15
  -1   9   4    3.75    0.13
   1  -9  -4    3.69    0.17
   1  -9  -4    3.76    0.15
   0   9   5    0.86    0.07
   0   9   5    1.00    0.07
   0  -9  -5    0.96    0.07
   0  -9  -5    0.84    0.08
   1   9   6    8.33    0.25
   1   9   6    8.21    0.25
  -1  -9  -6    8.29    0.32
  -1  -9  -6    8.07    0.27
   2   9   7    0.73    0.06
   2   9   7    0.75    0.07
  -2  -9  -7    0.52    0.06
  -2  -9  -7    0.68    0.08
   3   9   8    0.61    0.06
   3   9   8    0.69    0.06
  -3  -9  -8    0.67    0.07
  -3  -9  -8    0.92    0.13
   4   9   9    0.17    0.06
  -4  -9  -9    0.13    0.05
  -4  -9  -9    0.12    0.09
   5   9  10    0.72    0.08
  -5  -9 -10    0.68    0.08
  -5  -9 -10    1.03    0.16
  -6   8  -1    1.05    0.10
   6  -8   1    1.28    0.10
  -5   8   0    0.08    0.05
   5  -8   0    0.07    0.05
  -4   8   1    0.54    0.06
   4  -8  -1    0.54    0.06
  -3   8   2    2.26    0.11
   3  -8  -2    2.40    0.11
  -2   8   3   13.92    0.35
  -2   8   3   13.15    0.38
   2  -8  -3   13.29    0.39
   2  -8  -3   13.34    0.46
  -1   8   4    6.84    0.21
  -1   8   4    6.98    0.20
   1  -8  -4    6.91    0.23
   1  -8  -4    6.72    0.25
   0   8   5   -0.01    0.03
   0   8   5   -0.02    0.03
   0  -8  -5   -0.02    0.05
   0  -8  -5    0.03    0.03
   1   8   6   22.35    0.56
   1   8   6   23.01    0.57
  -1  -8  -6   21.98    0.76
  -1  -8  -6   21.66    0.60
   2   8   7    0.15    0.04
   2   8   7    0.08    0.04
  -2  -8  -7    0.19    0.07
  -2  -8  -7    0.11    0.04
   3   8   8    1.20    0.08
   3   8   8    1.16    0.07
  -3  -8  -8    1.04    0.08
  -3  -8  -8    1.12    0.10
   4   8   9    1.04    0.08
  -4  -8  -9    0.81    0.08
  -4  -8  -9    0.89    0.11
   5   8  10    2.90    0.14
  -5  -8 -10    2.80    0.14
  -5  -8 -10    3.01    0.19
  -7   7  -2    0.02    0.05
   7  -7   2   -0.05    0.04
  -6   7  -1    9.00    0.30
   6  -7   1    8.85    0.28
  -5   7   0   12.50    0.37
   5  -7   0   12.21    0.36
  -4   7   1    0.87    0.07
   4  -7  -1    1.14    0.07
  -3   7   2    5.40    0.19
  -3   7   2    5.78    0.16
   3  -7  -2    5.86    0.22
   3  -7  -2    5.46    0.19
  -2   7   3    4.79    0.14
  -2   7   3    4.09    0.15
   2  -7  -3    3.95    0.18
   2  -7  -3    4.05    0.15
  -1   7   4    0.90    0.06
  -1   7   4    0.92    0.06
   1  -7  -4    0.81    0.06
   1  -7  -4    0.84    0.08
   1  -7  -4    0.85    0.06
   0   7   5   17.54    0.45
   0   7   5   17.39    0.44
   0  -7  -5   17.50    0.47
   0  -7  -5   16.71    0.54
   0  -7  -5   16.68    0.58
   1   7   6    6.00    0.18
   1   7   6    5.65    0.18
   1   7   6    5.42    0.19
  -1  -7  -6    5.77    0.23
  -1  -7  -6    5.77    0.20
   2   7   7    0.29    0.04
   2   7   7    0.31    0.04
   2   7   7    0.30    0.04
  -2  -7  -7    0.22    0.04
  -2  -7  -7    0.41    0.08
   3   7   8    0.44    0.05
   3   7   8    0.47    0.05
   3   7   8    0.49    0.06
  -3  -7  -8    0.56    0.10
  -3  -7  -8    0.29    0.05
   4   7   9    8.04    0.26
   4   7   9    7.75    0.24
  -4  -7  -9    7.73    0.34
  -4  -7  -9    7.53    0.25
   5   7  10    0.25    0.05
  -5  -7 -10    0.19    0.05
  -5  -7 -10    0.28    0.10
   6   7  11    2.59    0.13
  -6  -7 -11    2.62    0.19
  -7   6  -2    3.28    0.16
   7  -6   2    3.29    0.15
  -6   6  -1    4.06    0.17
   6  -6   1    3.85    0.16
  -5   6   0    6.67    0.23
   5  -6   0    7.04    0.22
   5  -6   0    7.40    0.26
  -4   6   1    1.35    0.08
   4  -6  -1    1.35    0.07
   4  -6  -1    1.47    0.09
  -3   6   2    7.96    0.24
  -3   6   2    8.22    0.21
   3  -6  -2    7.84    0.28
   3  -6  -2    8.00    0.24
   3  -6  -2    7.95    0.27
  -2   6   3    2.68    0.09
  -2   6   3    2.74    0.11
   2  -6  -3    2.63    0.11
   2  -6  -3    2.74    0.13
  -1   6   4    0.52    0.05
  -1   6   4    0.48    0.04
  -1   6   4    0.48    0.05
  -1   6   4    0.43    0.04
   1  -6  -4    0.45    0.04
   1  -6  -4    0.43    0.05
   1  -6  -4    0.51    0.05
   0   6   5   14.24    0.37
   0   6   5   14.64    0.37
   0   6   5   13.93    0.39
   0   6   5   14.50    0.40
   0  -6  -5   13.81    0.45
   0  -6  -5   14.15    0.39
   0  -6  -5   14.40    0.48
   1   6   6   -0.01    0.03
   1   6   6   -0.02    0.02
   1   6   6    0.01    0.02
   1   6   6    0.00    0.02
  -1  -6  -6   -0.04    0.03
  -1  -6  -6   -0.04    0.02
  -1  -6  -6    0.01    0.04
   2   6   7   14.69    0.38
   2   6   7   14.70    0.41
   2   6   7   15.45    0.43
   2   6   7   14.35    0.38
  -2  -6  -7   14.54    0.47
  -2  -6  -7   14.41    0.41
  -2  -6  -7   14.32    0.52
   3   6   8    0.07    0.03
   3   6   8    0.08    0.03
   3   6   8    0.15    0.04
  -3  -6  -8    0.07    0.03
  -3  -6  -8    0.15    0.07
   4   6   9    6.55    0.22
   4   6   9    6.79    0.21
  -4  -6  -9    6.93    0.23
  -4  -6  -9    6.97    0.31
   5   6  10    0.02    0.04
   5   6  10    0.03    0.04
  -5  -6 -10   -0.05    0.04
  -5  -6 -10    0.04    0.08
   6   6  11   -0.02    0.04
   8  -5   3    5.08    0.20
   7  -5   2    4.20    0.17
  -6   5  -1    0.45    0.06
   6  -5   1    0.59    0.06
  -5   5   0    2.92    0.13
   5  -5   0    3.09    0.12
   5  -5   0    3.19    0.14
  -4   5   1    2.47    0.08
  -4   5   1    2.28    0.11
   4  -5  -1    2.49    0.10
   4  -5  -1    2.48    0.10
   4  -5  -1    2.54    0.09
   4  -5  -1    2.50    0.09
   4  -5  -1    2.54    0.12
  -3   5   2   15.63    0.41
   3  -5  -2   15.55    0.48
   3  -5  -2   15.82    0.42
  -2   5   3   33.67    0.79
  -2   5   3   33.84    0.83
  -2   5   3   33.53    0.85
   2  -5  -3   33.49    0.98
   2  -5  -3   33.54    0.85
  -1   5   4    0.15    0.03
  -1   5   4    0.06    0.03
  -1   5   4    0.08    0.02
  -1   5   4    0.17    0.03
   1  -5  -4    0.17    0.02
   1  -5  -4    0.14    0.03
   1  -5  -4    0.10    0.03
   0   5   5   59.76    1.46
   0   5   5   60.45    1.40
   0   5   5   57.68    1.36
   0   5   5   60.05    1.59
   0  -5  -5   56.70    1.88
   0  -5  -5   57.69    1.68
   0  -5  -5   58.43    1.46
   1   5   6    7.96    0.23
   1   5   6    7.44    0.20
   1   5   6    7.39    0.23
   1   5   6    7.38    0.21
  -1  -5  -6    7.64    0.26
  -1  -5  -6    7.01    0.27
  -1  -5  -6    7.40    0.23
   2   5   7    3.63    0.13
   2   5   7    3.54    0.11
   2   5   7    3.30    0.13
   2   5   7    3.53    0.12
  -2  -5  -7    3.36    0.13
  -2  -5  -7    3.46    0.16
   3   5   8    6.43    0.18
   3   5   8    6.10    0.19
   3   5   8    6.34    0.21
  -3  -5  -8    6.30    0.20
  -3  -5  -8    6.14    0.27
   4   5   9    1.80    0.10
   4   5   9    1.62    0.09
   4   5   9    1.62    0.09
  -4  -5  -9    1.58    0.13
  -4  -5  -9    1.64    0.09
   5   5  10    0.40    0.05
   5   5  10    0.43    0.06
   5   5  10    0.43    0.05
  -5  -5 -10    0.80    0.13
  -5  -5 -10    0.39    0.05
   6   5  11    0.39    0.07
   6   5  11    0.42    0.06
   8  -4   3    7.46    0.25
   7  -4   2    2.22    0.11
  -6   4  -1    4.92    0.18
   6  -4   1    4.96    0.17
  -5   4   0    6.29    0.21
   5  -4   0    6.43    0.22
   5  -4   0    6.38    0.18
   5  -4   0    6.25    0.20
  -4   4   1    0.55    0.05
  -4   4   1    0.52    0.03
   4  -4  -1    0.54    0.04
   4  -4  -1    0.52    0.04
   4  -4  -1    0.52    0.04
   4  -4  -1    0.47    0.04
  -3   4   2    0.79    0.05
  -3   4   2    0.76    0.06
  -3   4   2    0.76    0.05
   3  -4  -2    0.77    0.05
   3  -4  -2    0.77    0.05
   3  -4  -2    0.77    0.05
  -2   4   3   89.27    2.18
  -2   4   3   90.71    2.12
  -2   4   3   86.28    2.04
  -2   4   3   90.65    2.41
   2  -4  -3   87.16    2.52
   2  -4  -3   90.24    2.18
  -1   4   4  166.68    4.00
  -1   4   4  161.23    3.74
  -1   4   4  167.39    3.87
   1  -4  -4  164.61    4.62
   1  -4  -4  162.59    4.00
   0   4   5  102.03    2.38
   0   4   5  104.13    2.55
   0   4   5  107.47    2.45
   0  -4  -5  102.39    3.31
   1   4   6   57.41    1.33
   1   4   6   55.93    1.40
   1   4   6   56.19    1.30
  -1  -4  -6   54.83    1.81
   2   4   7    6.77    0.18
   2   4   7    6.87    0.19
   2   4   7    6.82    0.22
   2   4   7    6.45    0.21
  -2  -4  -7    6.68    0.26
   3   4   8   18.25    0.44
   3   4   8   17.66    0.45
   3   4   8   18.23    0.49
   3   4   8   17.61    0.53
  -3  -4  -8   17.65    0.63
   4   4   9    7.06    0.25
   4   4   9    7.06    0.21
   4   4   9    7.16    0.23
  -4  -4  -9    7.02    0.22
  -4  -4  -9    7.13    0.31
   5   4  10    0.41    0.06
   5   4  10    0.47    0.05
   5   4  10    0.44    0.05
  -5  -4 -10    0.45    0.05
   6   4  11    3.85    0.18
   6   4  11    4.07    0.15
   7   4  12    3.19    0.18
   9  -3   4    0.68    0.08
   8  -3   3    3.08    0.14
   7  -3   2    5.73    0.20
   6  -3   1    7.58    0.23
  -5   3   0    0.09    0.03
   5  -3   0    0.05    0.02
   5  -3   0    0.09    0.03
   5  -3   0    0.04    0.02
   5  -3   0    0.10    0.02
  -4   3   1   28.62    0.73
  -4   3   1   28.90    0.72
  -4   3   1   29.33    0.68
   4  -3  -1   29.34    0.69
   4  -3  -1   28.47    0.94
   4  -3  -1   29.04    0.72
   4  -3  -1   30.39    0.94
   4  -3  -1   28.22    0.72
   4  -3  -1   28.73    0.84
  -3   3   2   17.05    0.44
  -3   3   2   17.15    0.49
  -3   3   2   16.98    0.44
  -3   3   2   17.24    0.41
   3  -3  -2   16.65    0.43
   3  -3  -2   16.92    0.43
   3  -3  -2   16.59    0.50
   3  -3  -2   16.82    0.42
  -2   3   3  153.26    3.50
  -2   3   3  146.61    3.38
  -2   3   3  149.12    3.62
  -2   3   3  149.76    4.00
   2  -3  -3  150.09    4.17
   2  -3  -3  143.27    3.50
  -1   3   4   80.39    1.99
  -1   3   4   79.97    1.86
  -1   3   4   82.46    2.20
  -1   3   4   82.14    1.92
   0   3   5   41.97    0.98
   0   3   5   40.93    0.96
   0   3   5   40.88    1.03
   0   3   5   41.51    1.13
   0  -3  -5   40.56    1.32
   1   3   6    5.14    0.17
   1   3   6    5.40    0.16
   1   3   6    5.63    0.14
   1   3   6    5.52    0.18
  -1  -3  -6    5.25    0.21
   2   3   7    0.96    0.04
   2   3   7    1.05    0.06
   2   3   7    0.91    0.06
   2   3   7    0.98    0.06
  -2  -3  -7    0.89    0.07
   3   3   8    1.11    0.07
   3   3   8    1.10    0.07
   3   3   8    1.18    0.06
   3   3   8    1.12    0.05
  -3  -3  -8    1.21    0.09
   4   3   9    4.35    0.18
   4   3   9    4.20    0.16
   4   3   9    4.27    0.14
  -4  -3  -9    4.24    0.21
   5   3  10    2.79    0.11
   5   3  10    2.69    0.14
   5   3  10    2.77    0.12
  -5  -3 -10    2.73    0.18
   6   3  11    7.40    0.22
   6   3  11    6.85    0.27
   7   3  12    2.76    0.16
   9  -2   4    1.13    0.09
   8  -2   3    0.04    0.04
   7  -2   2    1.99    0.10
   6  -2   1    0.04    0.02
   6  -2   1    0.03    0.03
  -5   2   0   13.68    0.33
   5  -2   0   12.89    0.33
   5  -2   0   12.90    0.33
   5  -2   0   13.04    0.35
   5  -2   0   12.83    0.39
  -4   2   1   15.57    0.46
  -4   2   1   15.32    0.40
   4  -2  -1   14.82    0.51
   4  -2  -1   15.15    0.40
   4  -2  -1   15.54    0.38
   4  -2  -1   16.49    0.51
   4  -2  -1   15.51    0.46
  -3   2   2    9.39    0.25
  -3   2   2    9.14    0.28
  -3   2   2    9.53    0.25
  -3   2   2    9.29    0.23
   3  -2  -2    9.19    0.24
   3  -2  -2    9.30    0.29
   3  -2  -2    9.38    0.25
  -2   2   3   92.06    2.48
  -2   2   3   92.53    2.10
  -2   2   3   89.97    2.24
  -2   2   3   93.90    2.17
   2  -2  -3   90.85    2.17
  -1   2   4   10.43    0.26
  -1   2   4    9.92    0.25
  -1   2   4    9.55    0.28
  -1   2   4   10.06    0.30
   1  -2  -4   10.26    0.25
   1  -2  -4    9.90    0.33
   1  -2  -4   10.64    0.33
   0   2   5    3.29    0.09
   0   2   5    3.03    0.10
   0   2   5    3.04    0.11
   0   2   5    3.09    0.11
   0  -2  -5    3.28    0.08
   0  -2  -5    3.09    0.13
   1   2   6   42.08    1.02
   1   2   6   44.36    1.04
   1   2   6   44.23    1.21
   1   2   6   43.94    1.10
  -1  -2  -6   43.01    1.42
  -1  -2  -6   44.38    1.04
   2   2   7   85.37    1.96
   2   2   7   86.61    2.02
   2   2   7   84.17    2.10
   2   2   7   86.27    2.33
  -2  -2  -7   84.59    2.75
   3   2   8   19.16    0.47
   3   2   8   19.06    0.46
   3   2   8   18.81    0.56
   3   2   8   19.36    0.51
  -3  -2  -8   18.96    0.67
   4   2   9  107.76    2.50
   4   2   9  107.62    2.98
   4   2   9  109.95    2.68
  -4  -2  -9  110.99    3.53
   5   2  10    0.26    0.04
   5   2  10    0.32    0.05
   5   2  10    0.35    0.06
  -5  -2 -10    0.33    0.09
   6   2  11    6.15    0.25
   7   2  12    0.75    0.10
   9  -1   4    5.73    0.21
   8  -1   3    3.14    0.14
   7  -1   2    0.25    0.04
   6  -1   1    2.38    0.09
   6  -1   1    2.38    0.10
  -5   1   0    0.92    0.04
   5  -1   0    0.91    0.05
   5  -1   0    0.90    0.04
   5  -1   0    0.97    0.06
  -4   1   1   24.03    0.68
  -4   1   1   24.00    0.60
   4  -1  -1   23.35    0.59
   4  -1  -1   23.57    0.57
   4  -1  -1   25.02    0.78
   4  -1  -1   23.69    0.68
   4  -1  -1   23.48    0.78
  -3   1   2   90.75    2.10
  -3   1   2   92.18    2.49
   3  -1  -2   98.12    2.94
   3  -1  -2   90.69    2.94
   3  -1  -2   90.34    2.18
   3  -1  -2   90.22    2.11
  -2   1   3    3.72    0.13
  -2   1   3    3.71    0.12
  -2   1   3    3.71    0.11
   2  -1  -3    3.77    0.12
   2  -1  -3    3.90    0.13
   2  -1  -3    3.74    0.11
   2  -1  -3    3.84    0.13
  -1   1   4    1.47    0.06
  -1   1   4    1.42    0.06
  -1   1   4    1.42    0.07
   1  -1  -4    1.45    0.07
   1  -1  -4    1.71    0.05
   1  -1  -4    1.45    0.06
   0   1   5    1.60    0.07
   0   1   5    1.52    0.06
   0   1   5    1.56    0.07
   0  -1  -5    1.54    0.08
   1   1   6   81.93    2.21
   1   1   6   79.81    1.86
   1   1   6   81.11    2.00
  -1  -1  -6   82.31    2.61
   2   1   7    3.45    0.11
   2   1   7    3.33    0.09
   2   1   7    3.40    0.13
   2   1   7    3.37    0.13
   2   1   7    3.58    0.09
  -2  -1  -7    3.29    0.16
   3   1   8    1.39    0.06
   3   1   8    1.27    0.07
   3   1   8    1.34    0.05
   3   1   8    1.36    0.09
  -3  -1  -8    1.30    0.10
   4   1   9   28.05    0.67
   4   1   9   27.89    0.73
   4   1   9   27.80    0.81
  -4  -1  -9   27.76    0.97
   5   1  10    1.05    0.06
   5   1  10    0.91    0.09
   5   1  10    0.93    0.07
   6   1  11   -0.05    0.04
   7   1  12    3.34    0.18
   9   0   4    3.63    0.16
   8   0   3   11.18    0.34
   7   0   2    0.67    0.05
   7   0   2    0.61    0.06
   6   0   1   10.29    0.30
   6   0   1   10.78    0.28
  -5   0   0    2.50    0.11
   5   0   0    2.59    0.09
   5   0   0    2.40    0.10
  -4   0   1   15.96    0.48
  -4   0   1   16.06    0.42
   4   0  -1   16.25    0.55
   4   0  -1   19.13    0.41
   4   0  -1   15.68    0.55
   4   0  -1   15.83    0.42
  -3   0   2   27.25    0.78
  -3   0   2   28.38    0.70
   3   0  -2   27.47    0.68
   3   0  -2   29.11    0.90
   3   0  -2   27.69    0.91
   3   0  -2   27.33    0.67
  -2   0   3   36.06    0.88
  -2   0   3   34.89    0.97
  -2   0   3   34.54    0.82
   2   0  -3   34.74    0.83
   2   0  -3   35.09    0.84
   2   0  -3   34.62    1.14
   2   0  -3   36.14    1.13
  -1   0   4   12.82    0.31
  -1   0   4   13.03    0.35
  -1   0   4   12.62    0.37
   1   0  -4   12.66    0.32
   1   0  -4   12.93    0.31
   1   0  -4   12.89    0.44
   0   0   5   12.67    0.37
   0   0   5   12.32    0.31
   0   0   5   12.31    0.34
   0   0  -5   12.60    0.32
   0   0  -5   12.44    0.43
   1   0   6    5.82    0.20
   1   0   6    6.04    0.16
   1   0   6    5.82    0.18
  -1   0  -6    6.04    0.24
   2   0   7   34.91    0.82
   2   0   7   35.07    0.89
   2   0   7   36.29    0.84
   2   0   7   34.28    0.99
  -2   0  -7   35.04    1.17
   3   0   8   17.41    0.47
   3   0   8   16.96    0.52
   3   0   8   17.17    0.42
   3   0   8   17.75    0.43
  -3   0  -8   17.48    0.62
   4   0   9    0.93    0.08
   4   0   9    0.88    0.05
   4   0   9    0.85    0.07
  -4   0  -9    0.76    0.09
   5   0  10    5.91    0.20
   5   0  10    5.55    0.23
   6   0  11    0.07    0.05
   7   0  12    9.18    0.35
   9   1   4    1.39    0.10
   8   1   3    3.20    0.14
   7   1   2    5.66    0.18
   7   1   2    5.65    0.19
   6   1   1    9.91    0.27
   6   1   1    9.47    0.28
  -5  -1   0   17.16    0.51
  -5  -1   0   17.91    0.44
   5   1   0   17.15    0.60
   5   1   0   17.53    0.44
   5   1   0   17.02    0.45
  -4  -1   1   14.22    0.37
  -4  -1   1   14.15    0.42
   4   1  -1   14.04    0.49
   4   1  -1   14.07    0.36
   4   1  -1   14.34    0.37
  -3  -1   2   28.87    0.81
  -3  -1   2   29.50    0.74
   3   1  -2   28.87    0.96
   3   1  -2   28.94    0.70
   3   1  -2   29.85    0.71
  -2  -1   3   23.70    0.66
  -2  -1   3   23.21    0.60
   2   1  -3   22.70    0.56
   2   1  -3   23.30    0.56
   2   1  -3   23.40    0.77
  -1  -1   4   17.75    0.46
  -1  -1   4   17.50    0.50
  -1  -1   4   16.90    0.42
   1   1  -4   17.25    0.58
   1   1  -4   17.45    0.42
   1   1  -4   17.00    0.43
   0  -1   5   43.07    1.01
   0  -1   5   43.37    1.21
   0  -1   5   43.23    1.10
   0  -1   5   44.79    1.04
   0   1  -5   44.48    1.43
   0   1  -5   43.98    1.04
   0   1  -5   43.35    1.02
   1  -1   6   19.22    0.56
   1  -1   6   20.05    0.46
   1  -1   6   19.17    0.46
   1  -1   6   18.89    0.51
  -1   1  -6   19.26    0.47
  -1   1  -6   19.65    0.47
  -1   1  -6   18.89    0.66
   2  -1   7    4.08    0.12
   2  -1   7    3.92    0.16
   2  -1   7    3.84    0.14
   2  -1   7    4.15    0.11
  -2   1  -7    4.01    0.19
  -2   1  -7    4.00    0.13
   3  -1   8    1.48    0.06
   3  -1   8    1.39    0.09
   3  -1   8    1.45    0.06
   3  -1   8    1.49    0.08
  -3   1  -8    1.23    0.06
   4  -1   9    0.00    0.04
   4  -1   9    0.04    0.03
   5  -1  10    8.23    0.25
   5  -1  10    7.70    0.29
   6  -1  11   -0.04    0.05
   9   2   4    2.45    0.13
   8   2   3   10.14    0.32
   8   2   3   10.50    0.29
   7   2   2    4.07    0.14
   7   2   2    3.65    0.15
   6   2   1    1.98    0.09
   6   2   1    2.01    0.09
  -5  -2   0   43.13    1.06
  -5  -2   0   43.07    1.19
   5   2   0   42.51    1.41
   5   2   0   43.16    1.02
   5   2   0   42.40    1.05
  -4  -2   1    1.64    0.07
  -4  -2   1    1.59    0.08
   4   2  -1    1.55    0.06
   4   2  -1    1.58    0.07
   4   2  -1    1.61    0.09
   4   2  -1    1.54    0.07
  -3  -2   2   39.28    0.97
  -3  -2   2   38.37    1.06
   3   2  -2   37.83    1.26
   3   2  -2   38.60    0.91
   3   2  -2   38.65    0.93
  -2  -2   3  236.86    6.52
  -2  -2   3  255.87    5.97
   2   2  -3  236.02    5.53
   2   2  -3  245.07    5.77
   2   2  -3  240.02    7.78
  -1  -2   4    7.54    0.22
  -1  -2   4    7.46    0.24
   1   2  -4    7.20    0.20
   1   2  -4    7.35    0.28
   1   2  -4    7.76    0.19
   0  -2   5   32.33    1.04
   0  -2   5   31.58    0.89
   0  -2   5   32.09    0.81
   0   2  -5   31.46    0.75
   0   2  -5   31.59    1.05
   0   2  -5   31.53    0.76
   1  -2   6   68.68    1.88
   1  -2   6   68.47    1.58
   1  -2   6   68.94    1.71
  -1   2  -6   69.14    1.59
  -1   2  -6   67.75    1.62
  -1   2  -6   68.67    2.23
   2  -2   7    0.07    0.02
   2  -2   7    0.01    0.02
   2  -2   7    0.02    0.02
   2  -2   7    0.09    0.03
  -2   2  -7    0.04    0.04
  -2   2  -7    0.06    0.02
  -2   2  -7    0.01    0.01
   3  -2   8   30.96    0.74
   3  -2   8   31.55    0.91
   3  -2   8   31.65    0.76
   3  -2   8   30.54    0.81
  -3   2  -8   31.64    0.75
  -3   2  -8   32.08    1.07
  -3   2  -8   31.03    0.76
   4  -2   9    6.65    0.22
   4  -2   9    6.46    0.25
   5  -2  10    0.73    0.08
   6  -2  11    3.74    0.19
   9   3   4    0.07    0.05
   8   3   3    0.20    0.05
   8   3   3    0.19    0.04
   7   3   2   13.78    0.39
   7   3   2   13.98    0.37
   6   3   1   13.20    0.35
   6   3   1   12.81    0.36
  -5  -3   0    5.66    0.18
  -5  -3   0    5.69    0.20
   5   3   0    5.80    0.18
   5   3   0    5.75    0.24
   5   3   0    5.76    0.18
  -4  -3   1   29.83    0.75
  -4  -3   1   30.09    0.82
   4   3  -1   29.27    0.73
   4   3  -1   29.08    0.71
   4   3  -1   29.47    0.84
   4   3  -1   28.18    0.98
  -3  -3   2    0.61    0.04
  -3  -3   2    0.62    0.05
   3   3  -2    0.56    0.04
   3   3  -2    0.55    0.05
   3   3  -2    0.64    0.06
   3   3  -2    0.65    0.05
  -2  -3   3   -0.01    0.02
  -2  -3   3    0.02    0.02
  -2  -3   3    0.02    0.03
   2   3  -3    0.03    0.02
   2   3  -3    0.07    0.04
   2   3  -3    0.03    0.02
  -1  -3   4    0.05    0.04
  -1  -3   4    0.04    0.02
  -1  -3   4    0.06    0.02
   1   3  -4    0.02    0.04
   1   3  -4    0.02    0.01
   1   3  -4    0.09    0.02
   0  -3   5    5.43    0.19
   0  -3   5    5.59    0.20
   0  -3   5    5.72    0.23
   0   3  -5    5.77    0.24
   0   3  -5    6.42    0.16
   0   3  -5    5.44    0.17
   1  -3   6   35.31    0.92
   1  -3   6   35.41    1.00
  -1   3  -6   35.67    0.86
  -1   3  -6   36.35    0.85
   2  -3   7    2.97    0.13
   2  -3   7    2.86    0.12
  -2   3  -7    2.88    0.17
  -2   3  -7    3.01    0.10
  -2   3  -7    2.92    0.10
   3  -3   8    1.34    0.06
   3  -3   8    1.35    0.09
   3  -3   8    1.34    0.08
  -3   3  -8    1.36    0.07
   4  -3   9   17.34    0.55
   4  -3   9   17.89    0.49
   5  -3  10    7.23    0.28
   6  -3  11    6.89    0.29
   9   4   4    0.94    0.09
   9   4   4    0.99    0.08
   8   4   3    0.44    0.06
   8   4   3    0.51    0.06
   7   4   2    1.59    0.09
   7   4   2    1.50    0.09
  -6  -4  -1    0.15    0.03
   6   4   1    0.15    0.04
   6   4   1    0.02    0.04
  -5  -4   0   64.85    1.80
  -5  -4   0   67.71    1.63
   5   4   0   65.90    2.14
   5   4   0   64.55    1.54
   5   4   0   64.74    1.58
  -4  -4   1    2.20    0.10
  -4  -4   1    2.26    0.10
   4   4  -1    2.30    0.10
   4   4  -1    2.26    0.09
   4   4  -1    2.14    0.13
  -3  -4   2   23.24    0.76
  -3  -4   2   23.02    0.60
  -3  -4   2   22.59    0.64
   3   4  -2   22.29    0.56
   3   4  -2   22.34    0.57
   3   4  -2   21.82    0.77
   3   4  -2   23.09    0.67
  -2  -4   3    4.11    0.15
  -2  -4   3    4.38    0.15
  -2  -4   3    4.35    0.18
   2   4  -3    4.19    0.14
   2   4  -3    4.36    0.19
   2   4  -3    4.37    0.13
   2   4  -3    4.47    0.17
  -1  -4   4    7.05    0.22
  -1  -4   4    7.34    0.28
  -1  -4   4    7.21    0.23
   1   4  -4    7.20    0.20
   1   4  -4    7.05    0.20
   1   4  -4    7.04    0.29
   0  -4   5    4.00    0.17
   0  -4   5    3.80    0.15
   0  -4   5    3.82    0.15
   0   4  -5    3.77    0.13
   0   4  -5    3.89    0.12
   0   4  -5    3.81    0.18
   1  -4   6  222.56    5.41
   1  -4   6  220.21    7.04
   1  -4   6  223.44    5.98
  -1   4  -6  214.66    5.21
  -1   4  -6  227.84    7.06
   2  -4   7    0.36    0.05
   2  -4   7    0.36    0.05
  -2   4  -7    0.34    0.04
  -2   4  -7    0.36    0.04
   3  -4   8    0.37    0.06
   3  -4   8    0.41    0.05
  -3   4  -8    0.48    0.05
   4  -4   9    0.22    0.04
   4  -4   9   -0.03    0.04
   5  -4  10    1.17    0.10
   9   5   4    1.75    0.11
   9   5   4    1.61    0.10
   8   5   3    0.35    0.05
   8   5   3    0.34    0.06
   7   5   2   -0.06    0.03
   7   5   2    0.03    0.04
  -6  -5  -1    0.19    0.04
   6   5   1    0.19    0.05
   6   5   1    0.20    0.04
  -5  -5   0    0.16    0.04
  -5  -5   0    0.31    0.04
   5   5   0    0.29    0.05
   5   5   0    0.20    0.04
  -4  -5   1    1.75    0.08
  -4  -5   1    1.80    0.09
   4   5  -1    1.79    0.12
   4   5  -1    1.84    0.08
   4   5  -1    1.79    0.09
   4   5  -1    1.78    0.09
  -3  -5   2    1.50    0.07
  -3  -5   2    1.47    0.08
   3   5  -2    1.53    0.08
   3   5  -2    1.45    0.08
   3   5  -2    1.64    0.07
   3   5  -2    1.57    0.11
  -2  -5   3    7.50    0.23
  -2  -5   3    7.25    0.29
  -2  -5   3    7.34    0.23
   2   5  -3    7.06    0.21
   2   5  -3    7.15    0.21
  -1  -5   4    1.81    0.10
  -1  -5   4    1.78    0.11
  -1  -5   4    1.91    0.09
   1   5  -4    1.83    0.08
   1   5  -4    1.83    0.12
   1   5  -4    1.97    0.08
   0  -5   5    5.47    0.20
   0  -5   5    5.51    0.20
   0  -5   5    5.54    0.23
   0   5  -5    5.68    0.17
   0   5  -5    5.51    0.17
   0   5  -5    5.80    0.25
   1  -5   6    7.71    0.31
   1  -5   6    7.82    0.26
   1  -5   6    7.32    0.25
  -1   5  -6    7.80    0.22
   2  -5   7    0.61    0.06
   2  -5   7    0.53    0.06
  -2   5  -7    0.66    0.05
   3  -5   8    0.11    0.04
   3  -5   8    0.03    0.04
   4  -5   9    5.77    0.24
   4  -5   9    6.24    0.22
   5  -5  10    0.95    0.10
   8   6   3    3.88    0.17
   8   6   3    3.64    0.16
   7   6   2    0.02    0.04
   7   6   2    0.00    0.03
  -6  -6  -1    5.04    0.18
   6   6   1    5.14    0.18
   6   6   1    4.79    0.18
  -5  -6   0    5.24    0.18
  -5  -6   0    5.14    0.19
   5   6   0    5.00    0.18
   5   6   0    5.21    0.18
  -4  -6   1    2.28    0.11
  -4  -6   1    2.45    0.10
   4   6  -1    2.20    0.10
   4   6  -1    2.28    0.11
  -3  -6   2    3.27    0.13
  -3  -6   2    3.16    0.12
   3   6  -2    3.03    0.16
   3   6  -2    2.89    0.12
   3   6  -2    2.97    0.12
  -2  -6   3    7.88    0.31
  -2  -6   3    7.37    0.25
  -2  -6   3    7.68    0.24
   2   6  -3    7.23    0.22
   2   6  -3    7.79    0.32
   2   6  -3    7.33    0.22
  -1  -6   4    0.26    0.07
  -1  -6   4    0.09    0.03
  -1  -6   4    0.08    0.04
   1   6  -4    0.06    0.03
   1   6  -4    0.06    0.03
   1   6  -4    0.23    0.08
   0  -6   5   97.15    2.65
   0  -6   5   95.42    2.42
   0  -6   5   97.64    3.14
   0   6  -5   97.47    2.25
   0   6  -5   98.72    2.32
   1  -6   6    0.06    0.04
   1  -6   6    0.05    0.04
  -1   6  -6    0.07    0.03
  -1   6  -6    0.08    0.03
   2  -6   7   -0.01    0.03
   2  -6   7    0.08    0.04
  -2   6  -7    0.00    0.02
   3  -6   8    0.03    0.04
   3  -6   8    0.01    0.04
   4  -6   9   17.20    0.50
   4  -6   9   16.59    0.54
   8   7   3    0.09    0.05
   8   7   3    0.13    0.05
   7   7   2    0.11    0.05
   7   7   2    0.10    0.04
  -6  -7  -1    3.53    0.15
   6   7   1    3.87    0.16
   6   7   1    3.45    0.15
  -5  -7   0    9.16    0.29
   5   7   0    8.92    0.28
   5   7   0    8.96    0.28
  -4  -7   1    7.36    0.25
   4   7  -1    7.09    0.23
   4   7  -1    7.41    0.23
  -3  -7   2    4.27    0.17
   3   7  -2    3.96    0.15
   3   7  -2    4.11    0.15
  -2  -7   3    0.18    0.04
  -2  -7   3    0.14    0.04
   2   7  -3    0.19    0.04
   2   7  -3    0.24    0.04
  -1  -7   4    6.50    0.23
  -1  -7   4    6.58    0.22
   1   7  -4    6.39    0.20
   1   7  -4    6.55    0.20
   0  -7   5    3.56    0.16
   0  -7   5    3.80    0.15
   0   7  -5    3.72    0.14
   0   7  -5    3.65    0.14
   1  -7   6    2.08    0.12
   1  -7   6    2.24    0.12
  -1   7  -6    1.95    0.10
   2  -7   7    0.35    0.06
   2  -7   7    0.37    0.06
  -2   7  -7    0.57    0.06
   3  -7   8   -0.02    0.03
   3  -7   8    0.04    0.05
   4  -7   9    4.56    0.21
   7   8   2    0.16    0.05
   7   8   2    0.06    0.05
  -6  -8  -1    6.89    0.24
   6   8   1    6.35    0.23
   6   8   1    6.47    0.23
  -5  -8   0    8.29    0.28
   5   8   0    8.28    0.26
   5   8   0    8.13    0.26
  -4  -8   1    0.27    0.05
   4   8  -1    0.28    0.05
   4   8  -1    0.27    0.05
  -3  -8   2    6.73    0.24
   3   8  -2    6.83    0.22
   3   8  -2    6.66    0.22
  -2  -8   3    3.09    0.15
   2   8  -3    2.80    0.12
   2   8  -3    3.02    0.13
  -1  -8   4    0.74    0.07
   1   8  -4    0.65    0.06
   1   8  -4    0.65    0.07
   0  -8   5    1.33    0.10
   0   8  -5    1.40    0.08
   0   8  -5    1.24    0.08
   1  -8   6    5.25    0.21
  -1   8  -6    5.71    0.19
   2  -8   7   -0.02    0.04
  -2   8  -7   -0.06    0.03
   3  -8   8   13.17    0.44
   3  -8   8   12.86    0.41
  -6  -9  -1    0.55    0.07
   6   9   1    0.39    0.07
   6   9   1    0.41    0.07
  -5  -9   0    0.66    0.08
   5   9   0    0.83    0.08
   5   9   0    0.78    0.08
  -4  -9   1    0.54    0.07
   4   9  -1    0.52    0.06
   4   9  -1    0.48    0.06
  -3  -9   2    0.32    0.06
   3   9  -2    0.35    0.05
   3   9  -2    0.33    0.06
  -2  -9   3    3.97    0.18
   2   9  -3    4.16    0.16
   2   9  -3    3.91    0.16
  -1  -9   4    4.03    0.18
   1   9  -4    3.92    0.15
   1   9  -4    4.20    0.16
   0  -9   5    5.12    0.22
   0   9  -5    5.37    0.19
   1  -9   6    2.62    0.15
  -1   9  -6    2.96    0.14
   2  -9   7    3.51    0.17
  -5 -10   0   -0.02    0.04
   5  10   0   -0.05    0.04
   5  10   0   -0.04    0.05
  -4 -10   1    0.81    0.09
   4  10  -1    0.91    0.09
   4  10  -1    0.78    0.07
  -3 -10   2    0.03    0.05
   3  10  -2    0.05    0.04
   3  10  -2    0.00    0.04
  -2 -10   3    5.56    0.23
   2  10  -3    5.62    0.20
   2  10  -3    5.85    0.20
  -1 -10   4    0.05    0.05
   1  10  -4    0.01    0.04
   0 -10   5    0.07    0.05
   0  10  -5    0.06    0.05
  -2  11   4    0.21    0.06
   2 -11  -4    0.41    0.08
   2 -11  -4    0.26    0.06
  -1  11   5    0.05    0.05
  -1  11   5    0.04    0.04
   1 -11  -5    0.19    0.08
   1 -11  -5    0.12    0.05
   0  11   6    0.18    0.05
   0  11   6    0.20    0.05
   0 -11  -6    0.42    0.09
   0 -11  -6    0.18    0.06
   1  11   7   -0.01    0.04
   1  11   7    0.08    0.05
  -1 -11  -7    0.03    0.08
  -1 -11  -7    0.06    0.05
   2  11   8    0.01    0.04
   2  11   8   -0.05    0.04
  -2 -11  -8    0.02    0.05
  -2 -11  -8   -0.11    0.07
  -4  10   2    0.44    0.07
  -3  10   3    0.24    0.06
   3 -10  -3    0.41    0.08
   3 -10  -3    0.37    0.06
  -2  10   4    0.49    0.07
   2 -10  -4    0.50    0.07
   2 -10  -4    0.51    0.07
  -1  10   5    0.61    0.06
  -1  10   5    0.60    0.07
   1 -10  -5    0.64    0.07
   1 -10  -5    0.50    0.07
   0  10   6    0.57    0.06
   0  10   6    0.49    0.06
   0 -10  -6    0.54    0.07
   0 -10  -6    0.47    0.06
   1  10   7    5.11    0.18
   1  10   7    5.12    0.18
  -1 -10  -7    5.50    0.21
  -1 -10  -7    5.00    0.23
   2  10   8    1.95    0.11
   2  10   8    2.00    0.10
  -2 -10  -8    2.06    0.14
  -2 -10  -8    2.26    0.13
   3  10   9    0.01    0.05
  -3 -10  -9    0.03    0.09
  -3 -10  -9    0.01    0.04
  -5   9   1    1.76    0.12
   5  -9  -1    2.08    0.12
  -4   9   2    0.01    0.04
   4  -9  -2    0.04    0.04
  -3   9   3    0.58    0.07
   3  -9  -3    0.57    0.06
  -2   9   4    3.28    0.14
  -2   9   4    3.57    0.13
   2  -9  -4    3.29    0.15
   2  -9  -4    3.38    0.14
  -1   9   5    0.35    0.05
  -1   9   5    0.34    0.05
   1  -9  -5    0.42    0.06
   1  -9  -5    0.39    0.05
   0   9   6    0.86    0.07
   0   9   6    0.79    0.07
   0  -9  -6    0.67    0.07
   0  -9  -6    0.77    0.08
   1   9   7    5.64    0.19
   1   9   7    5.94    0.20
  -1  -9  -7    5.74    0.21
  -1  -9  -7    5.63    0.25
   2   9   8    0.33    0.05
   2   9   8    0.44    0.06
  -2  -9  -8    0.30    0.06
  -2  -9  -8    0.46    0.09
   3   9   9    0.18    0.05
  -3  -9  -9    0.30    0.10
  -3  -9  -9    0.21    0.06
   4   9  10    5.32    0.20
  -4  -9 -10    5.28    0.21
  -4  -9 -10    4.97    0.27
  -6   8   0    0.24    0.06
   6  -8   0    0.36    0.06
  -5   8   1    0.38    0.06
   5  -8  -1    0.30    0.05
  -4   8   2    0.36    0.06
   4  -8  -2    0.53    0.05
  -3   8   3    0.00    0.01
  -3   8   3    0.04    0.04
   3  -8  -3    0.04    0.03
  -2   8   4    1.37    0.08
  -2   8   4    1.23    0.07
   2  -8  -4    1.26    0.08
   2  -8  -4    1.21    0.07
  -1   8   5    2.70    0.11
  -1   8   5    2.59    0.10
   1  -8  -5    2.75    0.12
   1  -8  -5    2.55    0.12
   0   8   6    1.41    0.08
   0   8   6    1.43    0.08
   0  -8  -6    1.34    0.09
   0  -8  -6    1.33    0.09
   1   8   7    3.89    0.14
   1   8   7    3.79    0.14
  -1  -8  -7    3.81    0.18
  -1  -8  -7    3.60    0.16
   2   8   8    1.12    0.07
   2   8   8    1.07    0.08
  -2  -8  -8    1.03    0.08
  -2  -8  -8    1.03    0.09
   3   8   9    0.69    0.07
  -3  -8  -9    0.73    0.09
  -3  -8  -9    0.75    0.07
   4   8  10    1.91    0.11
  -4  -8 -10    1.84    0.11
  -4  -8 -10    1.75    0.15
   5   8  11    0.40    0.06
  -5  -8 -11    0.67    0.14
  -5  -8 -11    0.33    0.06
  -7   7  -1    0.32    0.07
   7  -7   1    0.29    0.06
  -6   7   0    6.59    0.24
   6  -7   0    6.92    0.23
  -5   7   1    1.66    0.10
   5  -7  -1    1.78    0.10
  -4   7   2   -0.02    0.03
   4  -7  -2   -0.03    0.03
  -3   7   3    0.92    0.06
  -3   7   3    0.97    0.07
   3  -7  -3    1.14    0.07
   3  -7  -3    1.08    0.09
  -2   7   4    5.93    0.19
  -2   7   4    6.14    0.18
   2  -7  -4    6.00    0.23
   2  -7  -4    6.06    0.20
  -1   7   5    2.16    0.09
  -1   7   5    2.05    0.09
  -1   7   5    2.08    0.10
   1  -7  -5    2.00    0.10
   1  -7  -5    2.03    0.09
   0   7   6   14.92    0.39
   0   7   6   15.23    0.43
   0   7   6   15.68    0.40
   0  -7  -6   14.96    0.52
   1   7   7    2.67    0.11
   1   7   7    2.45    0.11
   1   7   7    2.56    0.10
  -1  -7  -7    2.54    0.13
  -1  -7  -7    2.43    0.12
   2   7   8    0.06    0.03
   2   7   8    0.08    0.03
   2   7   8    0.08    0.04
  -2  -7  -8    0.11    0.07
  -2  -7  -8    0.06    0.04
   3   7   9    8.30    0.25
   3   7   9    8.22    0.27
  -3  -7  -9    8.05    0.27
  -3  -7  -9    8.40    0.35
   4   7  10    0.02    0.04
   4   7  10   -0.02    0.04
  -4  -7 -10   -0.03    0.08
  -4  -7 -10   -0.02    0.04
   5   7  11    0.05    0.04
   5   7  11    0.01    0.04
  -5  -7 -11    0.04    0.04
  -5  -7 -11    0.12    0.10
  -7   6  -1    2.35    0.13
   7  -6   1    2.28    0.12
  -6   6   0   20.32    0.56
   6  -6   0   20.56    0.55
  -5   6   1    0.07    0.04
   5  -6  -1    0.09    0.03
   5  -6  -1    0.04    0.04
  -4   6   2    0.35    0.05
  -4   6   2    0.33    0.03
   4  -6  -2    0.40    0.03
   4  -6  -2    0.36    0.04
   4  -6  -2    0.34    0.04
   4  -6  -2    0.40    0.05
  -3   6   3    2.91    0.12
   3  -6  -3    2.88    0.11
   3  -6  -3    2.88    0.14
  -2   6   4   23.48    0.59
  -2   6   4   24.61    0.64
  -2   6   4   24.85    0.62
  -2   6   4   25.31    0.69
   2  -6  -4   24.18    0.74
   2  -6  -4   23.94    0.64
  -1   6   5    0.50    0.05
  -1   6   5    0.61    0.05
  -1   6   5    0.61    0.05
  -1   6   5    0.51    0.06
   1  -6  -5    0.55    0.06
   1  -6  -5    0.57    0.04
   1  -6  -5    0.59    0.06
   0   6   6    5.08    0.16
   0   6   6    5.12    0.15
   0   6   6    4.88    0.16
   0   6   6    4.83    0.17
   0  -6  -6    4.71    0.19
   0  -6  -6    4.90    0.17
   0  -6  -6    4.87    0.19
   1   6   7    0.80    0.06
   1   6   7    0.65    0.06
   1   6   7    0.67    0.05
   1   6   7    0.72    0.05
  -1  -6  -7    0.68    0.06
  -1  -6  -7    0.65    0.07
  -1  -6  -7    0.65    0.07
   2   6   8   13.09    0.33
   2   6   8   12.82    0.38
   2   6   8   12.78    0.37
   2   6   8   12.41    0.34
  -2  -6  -8   12.07    0.46
  -2  -6  -8   12.21    0.36
   3   6   9    1.93    0.11
   3   6   9    1.76    0.09
  -3  -6  -9    1.88    0.13
  -3  -6  -9    1.87    0.10
   4   6  10   10.24    0.31
   4   6  10    9.64    0.29
  -4  -6 -10    9.83    0.41
  -4  -6 -10   10.10    0.31
   5   6  11    0.02    0.03
   5   6  11    0.06    0.04
  -5  -6 -11   -0.03    0.04
  -5  -6 -11   -0.04    0.08
   6   6  12    0.22    0.05
   8  -5   2    5.48    0.21
   7  -5   1    0.15    0.04
  -6   5   0    0.81    0.07
   6  -5   0    0.71    0.06
  -5   5   1    0.81    0.07
   5  -5  -1    0.83    0.07
   5  -5  -1    0.78    0.06
  -4   5   2    2.38    0.11
  -4   5   2    2.45    0.08
   4  -5  -2    2.43    0.11
   4  -5  -2    2.40    0.10
   4  -5  -2    2.55    0.10
   4  -5  -2    2.39    0.10
  -3   5   3    8.13    0.24
  -3   5   3    8.41    0.22
  -3   5   3    8.28    0.26
  -3   5   3    8.19    0.24
   3  -5  -3    8.10    0.24
   3  -5  -3    7.89    0.28
  -2   5   4   10.47    0.30
  -2   5   4    8.88    0.31
  -2   5   4   10.75    0.27
  -2   5   4   10.88    0.29
   2  -5  -4   10.71    0.29
   2  -5  -4   10.36    0.34
  -1   5   5    0.48    0.04
  -1   5   5    0.58    0.04
  -1   5   5    0.60    0.05
  -1   5   5    0.49    0.04
   1  -5  -5    0.50    0.05
   1  -5  -5    0.53    0.04
   1  -5  -5    0.59    0.05
   0   5   6    0.17    0.03
   0   5   6    0.08    0.03
   0   5   6    0.27    0.03
   0   5   6    0.17    0.03
   0  -5  -6    0.11    0.04
   0  -5  -6    0.07    0.03
   0  -5  -6    0.15    0.04
   1   5   7    0.21    0.03
   1   5   7    0.19    0.03
   1   5   7    0.22    0.04
   1   5   7    0.25    0.04
  -1  -5  -7    0.24    0.04
  -1  -5  -7    0.34    0.06
   2   5   8    0.25    0.03
   2   5   8    0.25    0.04
   2   5   8    0.27    0.04
  -2  -5  -8    0.39    0.07
  -2  -5  -8    0.22    0.04
   3   5   9    0.06    0.03
   3   5   9    0.06    0.04
   3   5   9    0.01    0.03
  -3  -5  -9    0.14    0.04
  -3  -5  -9    0.16    0.07
   4   5  10    4.40    0.16
   4   5  10    4.43    0.17
   4   5  10    4.35    0.17
  -4  -5 -10    4.38    0.17
  -4  -5 -10    4.05    0.22
   5   5  11    0.38    0.06
   5   5  11    0.38    0.06
   5   5  11    0.39    0.05
  -5  -5 -11    0.36    0.06
  -5  -5 -11    0.59    0.13
   6   5  12    4.87    0.21
   6   5  12    5.14    0.18
   8  -4   2    0.04    0.04
   7  -4   1    6.12    0.21
   6  -4   0    0.74    0.06
  -5   4   1    6.08    0.21
   5  -4  -1    6.40    0.18
   5  -4  -1    6.67    0.22
   5  -4  -1    6.33    0.20
   5  -4  -1    6.58    0.19
  -4   4   2   16.88    0.50
  -4   4   2   16.65    0.45
  -4   4   2   17.26    0.44
   4  -4  -2   16.43    0.44
   4  -4  -2   17.18    0.52
   4  -4  -2   17.33    0.42
   4  -4  -2   16.64    0.44
  -3   4   3   22.58    0.63
  -3   4   3   22.26    0.57
  -3   4   3   22.50    0.56
  -3   4   3   22.21    0.53
   3  -4  -3   22.06    0.57
   3  -4  -3   21.77    0.55
   3  -4  -3   22.02    0.66
  -2   4   4    6.54    0.20
  -2   4   4    6.55    0.21
  -2   4   4    6.79    0.19
  -2   4   4    6.47    0.18
   2  -4  -4    6.24    0.22
  -1   4   5    0.41    0.04
  -1   4   5    0.41    0.04
  -1   4   5    0.46    0.05
  -1   4   5    0.41    0.04
   1  -4  -5    0.54    0.03
   0   4   6   29.74    0.78
   0   4   6   31.62    0.74
   0   4   6   30.09    0.73
   0   4   6   30.37    0.85
   0  -4  -6   30.30    0.99
   1   4   7    4.26    0.14
   1   4   7    4.45    0.15
   1   4   7    4.38    0.12
  -1  -4  -7    4.05    0.18
   2   4   8    6.14    0.18
   2   4   8    6.21    0.21
   2   4   8    6.19    0.20
  -2  -4  -8    6.21    0.26
   3   4   9    1.78    0.09
   3   4   9    1.63    0.10
   3   4   9    1.70    0.08
  -3  -4  -9    1.61    0.12
   4   4  10   20.42    0.62
   4   4  10   20.67    0.57
   4   4  10   21.03    0.53
  -4  -4 -10   20.69    0.75
   5   4  11   23.07    0.70
   5   4  11   23.20    0.59
   5   4  11   23.57    0.63
  -5  -4 -11   24.11    0.63
  -5  -4 -11   22.16    0.84
   6   4  12    1.08    0.08
   6   4  12    1.06    0.11
   9  -3   3    0.05    0.05
   8  -3   2    0.73    0.07
   7  -3   1    0.82    0.07
   6  -3   0    2.73    0.11
  -5   3   1    6.78    0.19
   5  -3  -1    6.70    0.22
   5  -3  -1    6.53    0.19
   5  -3  -1    6.50    0.20
   5  -3  -1    6.94    0.24
   5  -3  -1    6.59    0.19
  -4   3   2    0.15    0.04
  -4   3   2    0.17    0.04
  -4   3   2    0.16    0.02
  -4   3   2    0.16    0.02
   4  -3  -2    0.17    0.02
   4  -3  -2    0.16    0.03
   4  -3  -2    0.18    0.03
   4  -3  -2    0.21    0.03
  -3   3   3    0.09    0.03
  -3   3   3    0.06    0.02
  -3   3   3    0.06    0.02
  -3   3   3    0.08    0.02
   3  -3  -3    0.09    0.03
   3  -3  -3    0.08    0.02
   3  -3  -3    0.08    0.02
  -2   3   4    0.29    0.03
  -2   3   4    0.32    0.03
  -2   3   4    0.23    0.03
  -2   3   4    0.29    0.04
   2  -3  -4    0.35    0.03
  -1   3   5   27.63    0.72
  -1   3   5   29.39    0.68
  -1   3   5   28.55    0.79
  -1   3   5   27.30    0.67
   1  -3  -5   27.81    0.91
   0   3   6    5.72    0.15
   0   3   6    5.43    0.16
   0   3   6    5.26    0.18
   0   3   6    5.75    0.19
   0  -3  -6    5.61    0.21
   1   3   7   38.55    0.99
   1   3   7   39.95    0.93
   1   3   7   40.64    1.09
   1   3   7   37.97    0.92
  -1  -3  -7   38.40    1.28
   2   3   8    0.11    0.03
   2   3   8   -0.02    0.03
   2   3   8   -0.01    0.02
  -2  -3  -8    0.02    0.05
   3   3   9    0.62    0.07
   3   3   9    0.81    0.06
   3   3   9    0.70    0.06
  -3  -3  -9    0.66    0.08
   4   3  10    0.44    0.06
   4   3  10    0.59    0.07
   4   3  10    0.44    0.05
  -4  -3 -10    0.59    0.11
   5   3  11    2.21    0.10
   5   3  11    2.06    0.11
   5   3  11    1.98    0.12
  -5  -3 -11    2.26    0.16
   6   3  12    5.04    0.22
   9  -2   3    0.23    0.06
   8  -2   2    5.31    0.20
   7  -2   1    9.75    0.29
   6  -2   0    4.45    0.16
   6  -2   0    4.60    0.14
  -5   2   1    2.18    0.08
  -5   2   1    2.10    0.10
   5  -2  -1    2.13    0.09
   5  -2  -1    2.08    0.10
   5  -2  -1    2.16    0.09
   5  -2  -1    2.14    0.07
   5  -2  -1    2.26    0.09
  -4   2   2   15.92    0.47
  -4   2   2   16.15    0.42
   4  -2  -2   15.53    0.40
   4  -2  -2   16.25    0.47
   4  -2  -2   16.02    0.41
   4  -2  -2   15.33    0.52
   4  -2  -2   16.63    0.53
  -3   2   3    0.09    0.02
  -3   2   3    0.10    0.02
  -3   2   3    0.09    0.03
   3  -2  -3    0.06    0.02
   3  -2  -3    0.10    0.03
  -2   2   4   10.87    0.30
  -2   2   4   10.79    0.33
  -2   2   4   11.12    0.28
   2  -2  -4   11.16    0.28
   2  -2  -4   10.93    0.29
   2  -2  -4   10.99    0.37
  -1   2   5   71.69    1.72
  -1   2   5   74.24    1.84
  -1   2   5   79.16    1.77
  -1   2   5   73.85    2.03
   1  -2  -5   74.84    1.76
   1  -2  -5   74.43    2.39
   0   2   6    3.37    0.13
   0   2   6    3.40    0.11
   0   2   6    3.44    0.13
   0  -2  -6    3.49    0.09
   0  -2  -6    3.68    0.09
   0  -2  -6    3.65    0.15
   1   2   7   10.48    0.32
   1   2   7   10.21    0.30
   1   2   7   10.23    0.27
  -1  -2  -7   10.17    0.37
   2   2   8    2.30    0.11
   2   2   8    2.43    0.09
   2   2   8    2.50    0.11
  -2  -2  -8    2.41    0.13
   3   2   9    3.86    0.13
   3   2   9    3.57    0.16
   3   2   9    3.80    0.14
  -3  -2  -9    3.86    0.19
   4   2  10   -0.01    0.03
   4   2  10   -0.02    0.04
   4   2  10   -0.01    0.02
  -4  -2 -10   -0.04    0.07
   5   2  11    1.52    0.11
   5   2  11    1.47    0.08
   5   2  11    1.47    0.09
  -5  -2 -11    1.48    0.13
   6   2  12    0.44    0.08
   9  -1   3   -0.01    0.05
   8  -1   2    6.34    0.22
   7  -1   1    2.01    0.10
   6  -1   0    9.42    0.25
   6  -1   0    9.01    0.27
  -5   1   1    0.39    0.03
  -5   1   1    0.33    0.04
   5  -1  -1    0.38    0.05
   5  -1  -1    0.32    0.04
   5  -1  -1    0.38    0.03
   5  -1  -1    0.33    0.04
  -4   1   2    1.03    0.05
   4  -1  -2    1.03    0.06
   4  -1  -2    0.94    0.06
   4  -1  -2    0.93    0.05
   4  -1  -2    0.93    0.05
   4  -1  -2    0.94    0.06
  -3   1   3   72.44    1.70
  -3   1   3   75.64    1.82
  -3   1   3   73.90    2.02
   3  -1  -3   72.06    1.71
   3  -1  -3   74.87    1.76
   3  -1  -3   72.29    2.36
   3  -1  -3   76.89    2.36
  -2   1   4    3.14    0.11
  -2   1   4    3.16    0.12
  -2   1   4    3.12    0.10
   2  -1  -4    3.14    0.12
   2  -1  -4    3.22    0.09
   2  -1  -4    3.04    0.11
   2  -1  -4    3.36    0.12
  -1   1   5   13.26    0.37
  -1   1   5   14.27    0.40
  -1   1   5   13.23    0.33
   1  -1  -5   13.62    0.33
   1  -1  -5   13.27    0.46
   1  -1  -5   13.22    0.35
   0   1   6    4.86    0.14
   0   1   6    4.80    0.16
   0   1   6    4.83    0.17
   0  -1  -6    4.78    0.19
   1   1   7   14.01    0.35
   1   1   7   14.04    0.39
   1   1   7   13.91    0.42
  -1  -1  -7   13.72    0.49
   2   1   8    5.97    0.20
   2   1   8    6.07    0.17
   2   1   8    6.00    0.21
  -2  -1  -8    6.00    0.25
   3   1   9    5.43    0.16
   3   1   9    5.24    0.18
   3   1   9    5.00    0.20
  -3  -1  -9    5.40    0.24
   4   1  10    0.21    0.04
   4   1  10    0.06    0.03
   4   1  10    0.03    0.04
  -4  -1 -10    0.14    0.08
   5   1  11    1.70    0.12
   5   1  11    1.87    0.10
   6   1  12    0.07    0.06
   9   0   3    8.91    0.29
   8   0   2   13.36    0.39
   7   0   1    0.02    0.03
   7   0   1   -0.06    0.03
   6   0   0    0.35    0.04
   6   0   0    0.38    0.04
  -5   0   1   16.82    0.42
  -5   0   1   16.42    0.49
   5   0  -1   15.88    0.42
   5   0  -1   16.57    0.47
   5   0  -1   15.58    0.41
   5   0  -1   15.92    0.55
  -4   0   2   22.13    0.54
  -4   0   2   20.68    0.61
   4   0  -2   20.91    0.53
   4   0  -2   21.02    0.52
   4   0  -2   20.72    0.70
   4   0  -2   21.73    0.70
  -3   0   3  120.87    2.90
  -3   0   3  116.71    3.22
   3   0  -3  115.59    3.78
   3   0  -3  114.93    2.73
   3   0  -3  124.84    3.78
   3   0  -3  120.45    2.80
  -2   0   4    9.94    0.31
  -2   0   4    9.92    0.26
  -2   0   4   10.09    0.28
   2   0  -4   10.19    0.26
   2   0  -4   10.55    0.35
   2   0  -4   10.37    0.27
   2   0  -4   10.10    0.35
  -1   0   5    3.41    0.13
  -1   0   5    3.35    0.11
  -1   0   5    3.42    0.12
   1   0  -5    3.43    0.15
   1   0  -5    3.42    0.12
   1   0  -5    3.51    0.09
   0   0   6   12.54    0.31
   0   0   6   12.57    0.37
   0   0   6   12.05    0.34
   0   0  -6   12.35    0.44
   0   0  -6   12.41    0.32
   1   0   7   32.52    0.92
   1   0   7   33.51    0.77
   1   0   7   32.74    0.84
  -1   0  -7   31.65    1.09
   2   0   8   18.23    0.48
   2   0   8   17.72    0.43
   2   0   8   17.27    0.53
  -2   0  -8   17.61    0.63
   3   0   9    1.47    0.09
   3   0   9    1.53    0.10
   3   0   9    1.52    0.07
  -3   0  -9    1.58    0.12
   4   0  10    0.32    0.04
   4   0  10    0.22    0.05
   4   0  10    0.25    0.04
  -4   0 -10    0.17    0.07
   5   0  11    1.29    0.09
   5   0  11    1.27    0.10
   6   0  12    2.65    0.16
   9   1   3    3.63    0.16
   8   1   2    0.12    0.04
   8   1   2    0.18    0.04
   7   1   1    9.83    0.27
   7   1   1    9.46    0.29
   6   1   0    4.38    0.15
   6   1   0    4.25    0.15
  -5  -1   1   12.86    0.33
  -5  -1   1   11.83    0.37
   5   1  -1   11.98    0.33
   5   1  -1   11.94    0.44
   5   1  -1   12.11    0.32
   5   1  -1   12.50    0.36
  -4  -1   2    3.88    0.12
  -4  -1   2    3.36    0.13
   4   1  -2    3.38    0.15
   4   1  -2    3.39    0.12
   4   1  -2    3.58    0.12
  -3  -1   3   95.39    2.62
  -3  -1   3   97.71    2.37
   3   1  -3   99.13    2.29
   3   1  -3   96.85    3.09
   3   1  -3   94.70    2.23
  -2  -1   4   34.93    0.98
  -2  -1   4   35.25    0.89
   2   1  -4   34.25    0.83
   2   1  -4   35.85    0.84
   2   1  -4   34.66    1.15
  -1  -1   5    1.61    0.08
  -1  -1   5    1.66    0.08
   1   1  -5    1.59    0.07
   1   1  -5    1.80    0.05
   1   1  -5    1.73    0.10
   0  -1   6    0.21    0.02
   0  -1   6    0.18    0.03
   0  -1   6    0.25    0.04
   0  -1   6    0.17    0.02
   0   1  -6    0.14    0.03
   0   1  -6    0.25    0.05
   0   1  -6    0.17    0.02
   1  -1   7    3.08    0.08
   1  -1   7    2.86    0.13
   1  -1   7    2.99    0.10
   1  -1   7    2.83    0.12
  -1   1  -7    2.88    0.15
  -1   1  -7    3.03    0.11
   2  -1   8    1.16    0.07
   2  -1   8    1.10    0.08
   2  -1   8    1.18    0.06
  -2   1  -8    1.13    0.07
  -2   1  -8    1.20    0.10
   3  -1   9   28.88    0.86
   3  -1   9   29.97    0.78
   3  -1   9   29.82    0.70
  -3   1  -9   29.74    1.02
   4  -1  10    2.28    0.11
   4  -1  10    2.10    0.12
   5  -1  11    7.50    0.29
   6  -1  12    1.36    0.12
   9   2   3    1.26    0.09
   8   2   2    1.88    0.10
   8   2   2    1.96    0.11
   7   2   1    6.27    0.19
   7   2   1    6.03    0.21
  -6  -2   0    7.93    0.27
   6   2   0    8.11    0.24
   6   2   0    8.12    0.24
  -5  -2   1   74.24    1.83
  -5  -2   1   76.07    2.04
   5   2  -1   74.75    1.74
   5   2  -1   73.58    2.41
   5   2  -1   74.21    1.79
  -4  -2   2    7.52    0.24
  -4  -2   2    7.23    0.21
   4   2  -2    7.16    0.21
   4   2  -2    7.06    0.28
   4   2  -2    7.20    0.21
  -3  -2   3    6.51    0.21
  -3  -2   3    6.64    0.20
   3   2  -3    6.29    0.19
   3   2  -3    6.55    0.26
   3   2  -3    6.74    0.19
  -2  -2   4    2.83    0.11
  -2  -2   4    2.90    0.11
   2   2  -4    2.59    0.10
   2   2  -4    2.86    0.09
   2   2  -4    2.70    0.13
  -1  -2   5    2.49    0.10
  -1  -2   5    2.55    0.11
   1   2  -5    2.57    0.13
   1   2  -5    2.50    0.08
   1   2  -5    2.50    0.10
   0  -2   6   16.18    0.44
   0  -2   6   16.01    0.48
   0   2  -6   15.96    0.41
   0   2  -6   16.27    0.57
   0   2  -6   16.15    0.39
   1  -2   7   30.85    0.88
   1  -2   7   30.85    0.73
   1  -2   7   30.23    0.80
  -1   2  -7   31.45    1.05
  -1   2  -7   31.18    0.74
  -1   2  -7   30.90    0.74
   2  -2   8    1.49    0.08
   2  -2   8    1.57    0.07
   2  -2   8    1.45    0.09
  -2   2  -8    1.55    0.12
  -2   2  -8    1.63    0.08
   3  -2   9    5.13    0.19
   3  -2   9    5.19    0.15
   3  -2   9    5.09    0.21
  -3   2  -9    5.25    0.25
  -3   2  -9    5.34    0.16
   4  -2  10    3.70    0.18
   4  -2  10    4.07    0.16
   5  -2  11    1.03    0.10
   6  -2  12    2.42    0.16
   9   3   3    1.10    0.08
   9   3   3    1.06    0.09
   8   3   2    0.50    0.06
   8   3   2    0.47    0.05
   7   3   1    2.12    0.11
   7   3   1    2.22    0.11
  -6  -3   0   38.61    1.09
  -6  -3   0   38.28    0.98
   6   3   0   39.51    0.94
   6   3   0   38.70    0.96
  -5  -3   1    3.83    0.15
  -5  -3   1    3.55    0.13
   5   3  -1    3.60    0.14
   5   3  -1    3.55    0.13
   5   3  -1    3.55    0.18
  -4  -3   2   30.64    0.88
  -4  -3   2   31.48    0.80
   4   3  -2   32.54    0.90
   4   3  -2   30.97    1.04
   4   3  -2   30.85    0.76
   4   3  -2   30.46    0.77
  -3  -3   3    0.63    0.05
  -3  -3   3    0.70    0.05
   3   3  -3    0.72    0.05
   3   3  -3    0.64    0.05
   3   3  -3    0.61    0.07
  -2  -3   4    1.52    0.08
  -2  -3   4    1.32    0.07
   2   3  -4    1.26    0.07
   2   3  -4    1.40    0.06
   2   3  -4    1.38    0.09
  -1  -3   5    0.80    0.06
  -1  -3   5    0.88    0.06
   1   3  -5    0.85    0.04
   1   3  -5    0.82    0.07
   1   3  -5    0.90    0.06
   0  -3   6   56.79    1.44
   0  -3   6   57.25    1.58
   0   3  -6   58.09    1.87
   0   3  -6   55.09    1.33
   0   3  -6   57.75    1.36
   1  -3   7   63.49    1.58
   1  -3   7   61.99    1.73
  -1   3  -7   59.00    2.05
  -1   3  -7   64.31    1.46
  -1   3  -7   64.20    1.49
   2  -3   8    2.05    0.11
   2  -3   8    2.48    0.12
  -2   3  -8    2.04    0.14
   3  -3   9    4.22    0.16
   3  -3   9    4.01    0.18
   4  -3  10    6.41    0.22
   4  -3  10    6.03    0.25
   5  -3  11    0.13    0.06
   9   4   3    3.51    0.15
   9   4   3    3.65    0.16
   8   4   2    3.34    0.15
   8   4   2    3.67    0.15
   7   4   1    6.12    0.20
   7   4   1    5.74    0.20
  -6  -4   0   16.43    0.49
  -6  -4   0   16.45    0.44
   6   4   0   16.13    0.44
   6   4   0   15.93    0.43
  -5  -4   1    6.66    0.21
  -5  -4   1    6.73    0.23
   5   4  -1    6.51    0.21
   5   4  -1    6.45    0.21
   5   4  -1    6.50    0.28
  -4  -4   2   44.65    1.09
  -4  -4   2   42.33    1.19
   4   4  -2   42.92    1.05
   4   4  -2   40.65    1.03
   4   4  -2   44.28    1.24
   4   4  -2   42.64    1.42
  -3  -4   3    0.83    0.06
  -3  -4   3    0.70    0.06
   3   4  -3    0.84    0.06
   3   4  -3    0.79    0.06
   3   4  -3    0.71    0.07
   3   4  -3    0.77    0.05
  -2  -4   4    4.37    0.16
  -2  -4   4    4.41    0.16
   2   4  -4    4.35    0.15
   2   4  -4    4.45    0.20
   2   4  -4    4.43    0.14
  -1  -4   5   14.09    0.41
  -1  -4   5   14.35    0.43
   1   4  -5   14.33    0.52
   1   4  -5   14.45    0.37
   1   4  -5   14.39    0.38
   0  -4   6    1.99    0.11
   0  -4   6    2.56    0.11
   0   4  -6    2.03    0.08
   0   4  -6    2.14    0.10
   1  -4   7   10.10    0.33
   1  -4   7    9.77    0.31
  -1   4  -7   10.22    0.28
  -1   4  -7   10.28    0.40
  -1   4  -7   10.25    0.27
   2  -4   8    4.49    0.18
   2  -4   8    4.25    0.17
  -2   4  -8    4.26    0.14
   3  -4   9    5.74    0.21
   3  -4   9    5.49    0.22
   4  -4  10    7.87    0.30
   4  -4  10    8.01    0.27
   5  -4  11    0.13    0.06
   9   5   3    2.41    0.13
   9   5   3    2.36    0.13
   8   5   2    0.70    0.07
   8   5   2    0.76    0.07
   7   5   1    5.28    0.20
   7   5   1    5.78    0.20
  -6  -5   0    6.73    0.24
  -6  -5   0    6.88    0.22
   6   5   0    6.76    0.22
   6   5   0    6.54    0.22
  -5  -5   1   26.53    0.76
  -5  -5   1   26.34    0.70
   5   5  -1   26.86    0.92
   5   5  -1   26.22    0.68
   5   5  -1   26.08    0.67
  -4  -5   2    0.19    0.04
  -4  -5   2    0.29    0.04
   4   5  -2    0.16    0.03
   4   5  -2    0.19    0.04
   4   5  -2    0.27    0.08
   4   5  -2    0.20    0.04
  -3  -5   3    1.92    0.09
  -3  -5   3    1.77    0.09
   3   5  -3    1.83    0.09
   3   5  -3    1.88    0.08
   3   5  -3    1.94    0.12
  -2  -5   4    0.00    0.02
  -2  -5   4    0.03    0.03
   2   5  -4   -0.03    0.04
   2   5  -4   -0.02    0.02
   2   5  -4   -0.01    0.02
  -1  -5   5   12.97    0.39
  -1  -5   5   13.29    0.40
   1   5  -5   13.05    0.35
   1   5  -5   13.33    0.35
   0  -5   6    0.07    0.04
   0  -5   6    0.02    0.04
   0   5  -6    0.08    0.08
   0   5  -6   -0.05    0.03
   0   5  -6    0.08    0.03
   1  -5   7    0.76    0.08
   1  -5   7    0.81    0.08
  -1   5  -7    0.94    0.06
   2  -5   8    4.89    0.19
   2  -5   8    5.02    0.20
   3  -5   9    0.11    0.04
   3  -5   9    0.03    0.04
   4  -5  10    7.97    0.31
   4  -5  10    8.13    0.28
   8   6   2    1.85    0.11
   8   6   2    1.59    0.10
   7   6   1    1.59    0.10
   7   6   1    1.41    0.10
  -6  -6   0   20.50    0.55
  -6  -6   0   20.04    0.59
   6   6   0   19.86    0.53
   6   6   0   19.43    0.54
  -5  -6   1   34.39    0.89
  -5  -6   1   34.51    0.96
   5   6  -1   35.04    1.17
   5   6  -1   33.02    0.86
   5   6  -1   33.28    0.84
  -4  -6   2    0.19    0.04
  -4  -6   2    0.16    0.03
   4   6  -2    0.12    0.04
   4   6  -2    0.21    0.08
   4   6  -2    0.13    0.03
  -3  -6   3   12.80    0.38
  -3  -6   3   12.65    0.38
   3   6  -3   12.11    0.34
   3   6  -3   12.43    0.35
  -2  -6   4    0.21    0.04
  -2  -6   4    0.29    0.05
   2   6  -4    0.24    0.04
   2   6  -4    0.29    0.09
   2   6  -4    0.18    0.04
  -1  -6   5   12.18    0.38
  -1  -6   5   12.79    0.39
   1   6  -5   12.56    0.34
   1   6  -5   12.64    0.34
   0  -6   6   -0.06    0.05
   0  -6   6    0.24    0.05
   0   6  -6    0.20    0.04
   0   6  -6    0.02    0.04
   1  -6   7    0.14    0.04
   1  -6   7    0.07    0.04
  -1   6  -7    0.14    0.03
   2  -6   8    0.45    0.06
   2  -6   8    0.46    0.06
   3  -6   9    1.47    0.11
   3  -6   9    1.25    0.11
   4  -6  10    0.00    0.04
   4  -6  10   -0.02    0.05
   8   7   2    6.05    0.23
   8   7   2    5.84    0.22
   7   7   1    0.42    0.06
   7   7   1    0.45    0.06
  -6  -7   0   18.87    0.52
   6   7   0   16.91    0.49
   6   7   0   18.27    0.50
  -5  -7   1    4.45    0.18
   5   7  -1    4.62    0.17
   5   7  -1    4.19    0.17
  -4  -7   2    2.95    0.14
   4   7  -2    2.88    0.12
   4   7  -2    2.76    0.13
  -3  -7   3    0.87    0.07
  -3  -7   3    0.88    0.08
   3   7  -3    0.90    0.07
   3   7  -3    1.04    0.07
  -2  -7   4   12.55    0.40
  -2  -7   4   13.68    0.40
   2   7  -4   12.91    0.36
   2   7  -4   13.05    0.36
  -1  -7   5    2.53    0.12
  -1  -7   5    2.49    0.13
   1   7  -5    2.32    0.11
   1   7  -5    2.55    0.11
   0  -7   6   27.90    0.78
   0  -7   6   28.22    0.82
   0   7  -6   29.21    0.72
   0   7  -6   27.85    0.70
   1  -7   7    3.64    0.17
   1  -7   7    4.09    0.17
  -1   7  -7    3.92    0.15
   2  -7   8    6.24    0.24
   2  -7   8    6.47    0.25
   3  -7   9    2.69    0.16
   3  -7   9    2.88    0.16
   7   8   1    9.08    0.29
   7   8   1    8.30    0.28
  -6  -8   0    0.00    0.04
   6   8   0    0.05    0.04
   6   8   0    0.00    0.04
  -5  -8   1    0.41    0.06
   5   8  -1    0.46    0.06
   5   8  -1    0.45    0.06
  -4  -8   2    3.39    0.16
   4   8  -2    3.23    0.14
   4   8  -2    3.31    0.15
  -3  -8   3    5.00    0.21
   3   8  -3    5.15    0.19
   3   8  -3    5.43    0.18
  -2  -8   4   10.86    0.36
   2   8  -4   11.16    0.33
   2   8  -4   11.88    0.33
  -1  -8   5    0.63    0.07
   1   8  -5    0.74    0.07
   1   8  -5    0.72    0.07
   0  -8   6    3.47    0.17
   0   8  -6    3.68    0.14
   1  -8   7   -0.04    0.04
   2  -8   8    0.69    0.08
  -6  -9   0    0.00    0.05
   6   9   0    0.04    0.05
   6   9   0   -0.02    0.04
  -5  -9   1    0.77    0.08
   5   9  -1    0.72    0.08
   5   9  -1    0.72    0.07
  -4  -9   2   -0.04    0.04
   4   9  -2   -0.03    0.04
   4   9  -2    0.01    0.04
  -3  -9   3    6.78    0.26
   3   9  -3    7.12    0.23
   3   9  -3    7.10    0.24
  -2  -9   4    0.89    0.09
   2   9  -4    1.03    0.08
   2   9  -4    0.96    0.08
  -1  -9   5    1.33    0.11
   1   9  -5    1.32    0.09
   1   9  -5    1.37    0.09
   0  -9   6    5.97    0.24
   0   9  -6    5.99    0.21
   1  -9   7    0.34    0.07
  -4 -10   2    4.40    0.21
   4  10  -2    4.56    0.19
   4  10  -2    4.18    0.18
  -3 -10   3   -0.02    0.05
   3  10  -3    0.01    0.04
   3  10  -3   -0.01    0.04
  -2 -10   4    1.01    0.10
   2  10  -4    0.98    0.09
   2  10  -4    1.08    0.09
  -1 -10   5    0.31    0.07
  -2  11   5    1.09    0.09
   2 -11  -5    1.28    0.10
   2 -11  -5    1.14    0.09
  -1  11   6    0.05    0.04
  -1  11   6    0.03    0.04
   1 -11  -6    0.10    0.07
   1 -11  -6   -0.02    0.04
   0  11   7    1.46    0.10
   0  11   7    1.50    0.10
   0 -11  -7    1.72    0.12
   0 -11  -7    1.43    0.11
  -4  10   3    1.45    0.11
  -3  10   4    0.37    0.06
   3 -10  -4    0.44    0.06
   3 -10  -4    0.54    0.07
  -2  10   5    0.02    0.04
  -2  10   5   -0.02    0.04
   2 -10  -5    0.07    0.05
   2 -10  -5    0.02    0.04
  -1  10   6    0.25    0.05
  -1  10   6    0.26    0.05
   1 -10  -6    0.21    0.05
   1 -10  -6    0.37    0.08
   0  10   7    0.00    0.04
   0  10   7   -0.01    0.04
   0 -10  -7   -0.01    0.04
   0 -10  -7   -0.01    0.06
   1  10   8    0.44    0.06
  -1 -10  -8    0.74    0.11
  -1 -10  -8    0.40    0.07
   2  10   9    1.69    0.10
  -2 -10  -9    1.59    0.13
  -2 -10  -9    1.50    0.11
  -5   9   2    1.43    0.11
   5  -9  -2    1.38    0.10
  -4   9   3    0.76    0.08
   4  -9  -3    0.77    0.07
  -3   9   4    1.49    0.10
   3  -9  -4    1.63    0.09
   3  -9  -4    1.65    0.10
  -2   9   5    0.02    0.03
  -2   9   5   -0.04    0.04
   2  -9  -5   -0.05    0.03
   2  -9  -5   -0.05    0.04
  -1   9   6    1.03    0.07
  -1   9   6    1.02    0.08
   1  -9  -6    0.96    0.08
   1  -9  -6    0.93    0.08
   0   9   7    5.29    0.18
   0   9   7    5.42    0.19
   0  -9  -7    5.63    0.21
   0  -9  -7    5.25    0.23
   1   9   8    0.47    0.06
  -1  -9  -8    0.26    0.06
  -1  -9  -8    0.42    0.09
   2   9   9    0.85    0.08
  -2  -9  -9    0.86    0.10
  -2  -9  -9    0.93    0.09
   3   9  10    0.02    0.04
  -3  -9 -10    0.01    0.05
  -3  -9 -10    0.12    0.09
  -6   8   1    7.40    0.27
   6  -8  -1    7.96    0.26
  -5   8   2    0.04    0.05
   5  -8  -2    0.04    0.04
  -4   8   3    1.30    0.09
   4  -8  -3    1.27    0.08
  -3   8   4   -0.04    0.03
  -3   8   4    0.02    0.03
   3  -8  -4    0.00    0.03
  -2   8   5    4.01    0.15
  -2   8   5    3.96    0.14
   2  -8  -5    3.81    0.15
   2  -8  -5    4.21    0.16
  -1   8   6    2.22    0.10
  -1   8   6    2.21    0.10
   1  -8  -6    2.12    0.11
   1  -8  -6    2.18    0.11
   0   8   7    1.58    0.08
   0   8   7    1.51    0.09
   0   8   7    1.48    0.09
   0  -8  -7    1.47    0.09
   0  -8  -7    1.31    0.09
   1   8   8    0.12    0.04
   1   8   8    0.13    0.04
  -1  -8  -8    0.06    0.04
  -1  -8  -8    0.15    0.07
   2   8   9    1.33    0.09
   2   8   9    1.41    0.09
  -2  -8  -9    1.31    0.10
  -2  -8  -9    1.45    0.12
   3   8  10    0.38    0.06
   3   8  10    0.43    0.06
  -3  -8 -10    0.44    0.12
  -3  -8 -10    0.37    0.06
   4   8  11    2.27    0.12
   4   8  11    2.12    0.12
  -4  -8 -11    2.21    0.17
  -4  -8 -11    2.27    0.13
  -7   7   0    2.77    0.15
   7  -7   0    2.66    0.13
  -6   7   1    0.61    0.08
   6  -7  -1    0.69    0.07
  -5   7   2    0.05    0.04
   5  -7  -2    0.01    0.03
  -4   7   3    0.32    0.05
   4  -7  -3    0.29    0.04
   4  -7  -3    0.27    0.05
  -3   7   4    1.00    0.06
   3  -7  -4    0.95    0.07
  -2   7   5   13.20    0.36
  -2   7   5   12.49    0.37
  -2   7   5   13.47    0.34
   2  -7  -5   12.57    0.37
   2  -7  -5   12.58    0.43
  -1   7   6    1.69    0.09
  -1   7   6    1.69    0.08
   1  -7  -6    1.54    0.08
   1  -7  -6    1.67    0.09
   0   7   7   37.14    0.88
   0   7   7   34.62    0.92
   0   7   7   34.70    0.86
   0  -7  -7   35.73    1.17
   0  -7  -7   35.32    0.92
   1   7   8    0.55    0.06
   1   7   8    0.50    0.06
  -1  -7  -8    0.57    0.06
  -1  -7  -8    0.50    0.07
   2   7   9    1.11    0.08
   2   7   9    1.11    0.08
  -2  -7  -9    1.05    0.08
  -2  -7  -9    1.09    0.10
   3   7  10    0.23    0.05
   3   7  10    0.19    0.05
  -3  -7 -10    0.23    0.05
  -3  -7 -10    0.20    0.10
   4   7  11    0.18    0.05
   4   7  11    0.21    0.05
  -4  -7 -11    0.33    0.11
  -4  -7 -11    0.12    0.05
   5   7  12    0.49    0.07
   5   7  12    0.45    0.07
  -5  -7 -12    0.77    0.15
  -5  -7 -12    0.43    0.07
   7  -6   0   12.58    0.37
  -6   6   1    0.47    0.06
   6  -6  -1    0.49    0.06
  -5   6   2    0.94    0.07
   5  -6  -2    0.98    0.07
  -4   6   3    0.68    0.06
   4  -6  -3    0.80    0.06
   4  -6  -3    0.72    0.07
   4  -6  -3    0.74    0.06
  -3   6   4   20.79    0.59
  -3   6   4   20.39    0.54
  -3   6   4   20.11    0.53
  -3   6   4   20.24    0.50
   3  -6  -4   20.37    0.54
   3  -6  -4   20.17    0.63
  -2   6   5    6.78    0.23
  -2   6   5    7.24    0.22
  -2   6   5    6.96    0.20
   2  -6  -5    8.27    0.27
   2  -6  -5    6.71    0.22
  -1   6   6    3.27    0.12
  -1   6   6    3.40    0.14
  -1   6   6    3.47    0.13
  -1   6   6    3.61    0.12
   1  -6  -6    3.48    0.13
   1  -6  -6    3.48    0.16
   1  -6  -6    3.39    0.14
   0   6   7    0.85    0.06
   0   6   7    0.84    0.06
   0   6   7    0.78    0.06
   0   6   7    0.82    0.07
   0  -6  -7    0.81    0.07
   0  -6  -7    0.73    0.07
   1   6   8    1.16    0.07
   1   6   8    1.24    0.08
   1   6   8    1.27    0.08
  -1  -6  -8    1.11    0.08
  -1  -6  -8    1.12    0.09
   2   6   9    0.25    0.05
   2   6   9    0.23    0.05
   2   6   9    0.23    0.04
  -2  -6  -9    0.19    0.04
  -2  -6  -9    0.49    0.09
   3   6  10    0.72    0.07
   3   6  10    0.78    0.07
  -3  -6 -10    0.72    0.10
  -3  -6 -10    0.87    0.08
   4   6  11    0.04    0.04
   4   6  11   -0.02    0.04
  -4  -6 -11   -0.04    0.04
  -4  -6 -11    0.01    0.08
   5   6  12    4.37    0.18
   5   6  12    4.16    0.16
  -5  -6 -12    4.20    0.18
  -5  -6 -12    4.04    0.24
   8  -5   1    0.74    0.08
   7  -5   0    4.20    0.17
  -6   5   1    0.66    0.07
   6  -5  -1    0.73    0.06
  -5   5   2    3.21    0.14
   5  -5  -2    3.19    0.12
  -4   5   3    2.33    0.10
  -4   5   3    2.35    0.11
  -4   5   3    2.35    0.11
  -4   5   3    2.51    0.09
   4  -5  -3    2.49    0.12
   4  -5  -3    2.44    0.10
   4  -5  -3    2.41    0.10
   4  -5  -3    2.69    0.10
  -3   5   4    6.69    0.19
  -3   5   4    6.36    0.20
  -3   5   4    6.62    0.22
  -3   5   4    6.57    0.20
   3  -5  -4    6.64    0.20
   3  -5  -4    6.48    0.24
   3  -5  -4    6.63    0.20
  -2   5   5    6.79    0.20
  -2   5   5    6.78    0.21
  -2   5   5    6.68    0.22
  -2   5   5    6.71    0.19
   2  -5  -5    6.64    0.21
   2  -5  -5    6.43    0.24
  -1   5   6   14.84    0.36
  -1   5   6   13.64    0.41
  -1   5   6   14.14    0.39
  -1   5   6   13.44    0.36
   1  -5  -6   14.13    0.39
   1  -5  -6   13.64    0.46
   1  -5  -6   13.74    0.45
   0   5   7   21.90    0.55
   0   5   7   22.55    0.64
   0   5   7   21.68    0.60
   0   5   7   23.44    0.56
   0  -5  -7   22.50    0.75
   1   5   8   13.17    0.35
   1   5   8   12.65    0.37
   1   5   8   13.31    0.39
  -1  -5  -8   12.70    0.46
   2   5   9    2.16    0.11
   2   5   9    2.16    0.10
   2   5   9    2.09    0.11
  -2  -5  -9    2.11    0.13
   3   5  10   23.42    0.63
   3   5  10   22.97    0.59
   3   5  10   23.74    0.68
  -3  -5 -10   22.74    0.82
   4   5  11    0.06    0.04
   4   5  11    0.05    0.04
   4   5  11    0.05    0.04
  -4  -5 -11    0.04    0.04
  -4  -5 -11    0.05    0.08
   5   5  12    0.74    0.09
   5   5  12    0.75    0.08
   5   5  12    0.63    0.07
  -5  -5 -12    0.63    0.07
  -5  -5 -12    0.94    0.16
   8  -4   1    2.29    0.12
   7  -4   0    3.50    0.15
   6  -4  -1    1.35    0.08
  -5   4   2    0.39    0.04
  -5   4   2    0.36    0.05
   5  -4  -2    0.43    0.04
   5  -4  -2    0.41    0.04
   5  -4  -2    0.34    0.03
   5  -4  -2    0.51    0.05
   5  -4  -2    0.42    0.04
  -4   4   3   42.03    0.97
  -4   4   3   41.50    1.02
  -4   4   3   41.68    1.04
  -4   4   3   40.80    1.16
   4  -4  -3   41.80    1.20
   4  -4  -3   41.90    1.04
   4  -4  -3   41.31    0.98
   4  -4  -3   40.01    1.01
  -3   4   4    0.40    0.05
  -3   4   4    0.44    0.04
  -3   4   4    0.44    0.04
  -3   4   4    0.44    0.05
   3  -4  -4    0.42    0.05
   3  -4  -4    0.42    0.04
  -2   4   5    0.72    0.05
  -2   4   5    0.69    0.06
  -2   4   5    0.74    0.05
  -2   4   5    0.77    0.05
   2  -4  -5    0.86    0.06
   2  -4  -5    0.74    0.04
  -1   4   6   13.29    0.38
  -1   4   6   13.67    0.35
  -1   4   6   13.28    0.40
  -1   4   6   14.34    0.35
   1  -4  -6   13.59    0.45
   0   4   7    2.24    0.10
   0   4   7    2.41    0.08
   0   4   7    2.28    0.09
   0   4   7    2.41    0.10
   0  -4  -7    2.40    0.11
   1   4   8    3.65    0.15
   1   4   8    4.58    0.14
   1   4   8    4.06    0.15
  -1  -4  -8    3.77    0.18
   2   4   9    0.05    0.03
   2   4   9    0.08    0.04
   2   4   9    0.06    0.03
  -2  -4  -9    0.13    0.06
   3   4  10    1.91    0.10
   3   4  10    1.87    0.10
   3   4  10    1.91    0.11
  -3  -4 -10    1.85    0.13
   4   4  11    0.05    0.03
   4   4  11   -0.01    0.03
   4   4  11   -0.10    0.04
  -4  -4 -11    0.04    0.08
   5   4  12    0.08    0.05
   5   4  12    0.05    0.05
   5   4  12    0.10    0.04
  -5  -4 -12    0.03    0.10
   9  -3   2    0.58    0.08
   8  -3   1    5.80    0.21
   7  -3   0    0.54    0.06
   6  -3  -1    2.21    0.09
   6  -3  -1    2.18    0.10
  -5   3   2    0.01    0.02
  -5   3   2    0.00    0.03
   5  -3  -2    0.09    0.04
   5  -3  -2    0.01    0.02
   5  -3  -2    0.06    0.03
   5  -3  -2    0.00    0.02
   5  -3  -2   -0.02    0.02
   5  -3  -2    0.06    0.02
  -4   3   3    2.85    0.10
  -4   3   3    2.84    0.10
  -4   3   3    2.78    0.12
   4  -3  -3    2.97    0.12
   4  -3  -3    2.79    0.11
   4  -3  -3    2.70    0.10
  -3   3   4    0.18    0.03
  -3   3   4    0.13    0.03
  -3   3   4    0.20    0.03
  -3   3   4    0.19    0.04
   3  -3  -4    0.18    0.03
   3  -3  -4    0.14    0.02
  -2   3   5    8.46    0.22
  -2   3   5    7.85    0.25
  -2   3   5    7.84    0.22
  -2   3   5    7.95    0.24
   2  -3  -5    8.23    0.21
  -1   3   6   16.86    0.41
  -1   3   6   15.83    0.44
  -1   3   6   16.07    0.41
  -1   3   6   16.33    0.48
   1  -3  -6   16.00    0.54
   1  -3  -6   16.80    0.40
   0   3   7    7.03    0.17
   0   3   7    6.49    0.22
   0   3   7    6.52    0.19
   0   3   7    6.50    0.21
   0  -3  -7    6.79    0.17
   0  -3  -7    6.39    0.25
   1   3   8    0.13    0.04
   1   3   8    0.17    0.03
   1   3   8    0.15    0.04
  -1  -3  -8    0.33    0.07
   2   3   9   10.41    0.31
   2   3   9   10.17    0.28
   2   3   9   10.66    0.34
  -2  -3  -9   10.45    0.40
   3   3  10   13.56    0.36
   3   3  10   14.09    0.40
   3   3  10   13.24    0.43
  -3  -3 -10   13.54    0.52
   4   3  11    0.06    0.04
   4   3  11    0.13    0.04
   4   3  11    0.03    0.04
  -4  -3 -11    0.09    0.08
   5   3  12   14.95    0.50
   5   3  12   15.68    0.41
   5   3  12   15.82    0.45
  -5  -3 -12   15.19    0.60
   6   3  13    0.87    0.10
   9  -2   2    6.85    0.24
   8  -2   1    1.51    0.10
   7  -2   0    1.11    0.08
   6  -2  -1    0.76    0.06
   6  -2  -1    0.74    0.06
  -5   2   2   26.42    0.67
  -5   2   2   27.09    0.77
   5  -2  -2   27.12    0.77
   5  -2  -2   26.45    0.67
   5  -2  -2   26.37    0.87
   5  -2  -2   26.18    0.65
  -4   2   3   20.71    0.62
  -4   2   3   21.26    0.55
  -4   2   3   21.43    0.51
   4  -2  -3   21.04    0.63
   4  -2  -3   22.66    0.69
   4  -2  -3   20.14    0.69
   4  -2  -3   21.19    0.53
   4  -2  -3   21.54    0.53
  -3   2   4   34.18    0.97
  -3   2   4   34.02    0.88
  -3   2   4   35.14    0.82
   3  -2  -4   34.46    0.83
   3  -2  -4   34.13    1.12
   3  -2  -4   36.10    1.12
   3  -2  -4   34.76    0.84
  -2   2   5   22.06    0.59
  -2   2   5   22.51    0.65
  -2   2   5   22.58    0.55
   2  -2  -5   22.84    0.57
   2  -2  -5   23.31    0.56
   2  -2  -5   23.60    0.74
   2  -2  -5   22.75    0.75
  -1   2   6    0.01    0.02
  -1   2   6    0.07    0.02
   1  -2  -6    0.08    0.01
   1  -2  -6    0.23    0.04
   0   2   7    2.35    0.10
   0   2   7    2.27    0.09
   0   2   7    2.18    0.10
   0  -2  -7    2.19    0.11
   1   2   8    0.21    0.03
   1   2   8    0.22    0.04
   1   2   8    0.26    0.04
  -1  -2  -8    0.33    0.07
   2   2   9   13.16    0.37
   2   2   9   12.63    0.40
   2   2   9   12.38    0.33
  -2  -2  -9   12.09    0.47
   3   2  10   -0.01    0.03
   3   2  10   -0.01    0.04
   3   2  10    0.06    0.04
  -3  -2 -10    0.07    0.07
   4   2  11    5.33    0.17
   4   2  11    5.40    0.19
   4   2  11    5.16    0.21
  -4  -2 -11    5.01    0.26
   5   2  12    0.43    0.07
   5   2  12    0.38    0.06
   5   2  12    0.35    0.05
   6   2  13    0.09    0.06
   9  -1   2    1.31    0.10
   8  -1   1    0.32    0.05
   7  -1   0    0.27    0.04
   7  -1   0    0.23    0.04
  -6   1   1    0.58    0.07
   6  -1  -1    0.56    0.05
   6  -1  -1    0.47    0.05
  -5   1   2   15.58    0.41
  -5   1   2   15.21    0.47
   5  -1  -2   15.65    0.40
   5  -1  -2   16.12    0.46
   5  -1  -2   15.68    0.41
   5  -1  -2   14.98    0.53
  -4   1   3    0.09    0.03
  -4   1   3    0.10    0.03
   4  -1  -3    0.10    0.03
   4  -1  -3    0.24    0.04
   4  -1  -3    0.16    0.03
  -3   1   4  132.46    3.17
  -3   1   4  127.48    3.51
  -3   1   4  128.99    2.96
   3  -1  -4  126.29    2.98
   3  -1  -4  124.84    4.13
   3  -1  -4  135.46    4.12
   3  -1  -4  133.26    3.06
  -2   1   5   23.72    0.69
  -2   1   5   24.32    0.59
  -2   1   5   24.30    0.63
   2  -1  -5   25.45    0.80
   2  -1  -5   24.58    0.59
   2  -1  -5   24.37    0.80
   2  -1  -5   23.90    0.60
  -1   1   6   26.62    0.69
  -1   1   6   26.66    0.75
  -1   1   6   26.02    0.63
   1  -1  -6   26.70    0.63
   1  -1  -6   26.03    0.65
   1  -1  -6   26.32    0.87
   0   1   7    0.04    0.02
   0   1   7    0.00    0.02
   0   1   7    0.03    0.02
   1   1   8   11.29    0.33
   1   1   8   11.81    0.30
   1   1   8   11.24    0.36
  -1  -1  -8   11.43    0.43
   2   1   9   33.83    0.80
   2   1   9   33.01    0.96
   2   1   9   33.26    0.87
  -2  -1  -9   33.56    1.13
   3   1  10   58.34    1.65
   3   1  10   59.45    1.50
   3   1  10   58.96    1.38
  -3  -1 -10   60.29    1.96
   4   1  11    0.82    0.06
   4   1  11    0.76    0.07
   4   1  11    0.77    0.08
  -4  -1 -11    0.72    0.10
   5   1  12    5.20    0.23
   5   1  12    5.29    0.20
   9   0   2    0.28    0.06
   8   0   1    3.65    0.15
   7   0   0    4.68    0.16
   7   0   0    4.51    0.17
  -6   0   1    4.95    0.19
   6   0  -1    4.95    0.22
   6   0  -1    5.31    0.17
   6   0  -1    5.15    0.17
  -5   0   2   38.89    1.11
  -5   0   2   41.28    0.99
   5   0  -2   38.41    1.29
   5   0  -2   39.18    0.97
   5   0  -2   39.36    0.94
  -4   0   3   43.52    1.06
  -4   0   3   41.59    1.18
   4   0  -3   41.91    1.01
   4   0  -3   42.32    1.37
   4   0  -3   41.90    1.02
  -3   0   4    2.67    0.11
  -3   0   4    2.60    0.11
   3   0  -4    2.93    0.12
   3   0  -4    2.88    0.09
   3   0  -4    2.91    0.11
   3   0  -4    2.77    0.13
  -2   0   5    3.95    0.15
  -2   0   5    4.02    0.12
  -2   0   5    4.12    0.14
   2   0  -5    3.99    0.17
   2   0  -5    3.96    0.11
   2   0  -5    4.05    0.14
   2   0  -5    4.33    0.16
  -1   0   6    3.58    0.14
  -1   0   6    3.65    0.12
  -1   0   6    3.55    0.13
   1   0  -6    3.52    0.13
   1   0  -6    3.88    0.10
   1   0  -6    3.62    0.16
   0   0   7   13.19    0.41
   0   0   7   13.27    0.38
   0   0   7   13.33    0.34
   0   0  -7   13.47    0.48
   0   0  -7   13.06    0.35
   1   0   8   27.52    0.66
   1   0   8   27.34    0.72
   1   0   8   27.02    0.79
  -1   0  -8   27.34    0.67
  -1   0  -8   27.17    0.93
   2   0   9    0.06    0.04
   2   0   9    0.06    0.03
   2   0   9    0.00    0.03
  -2   0  -9    0.06    0.06
   3   0  10    6.89    0.19
   3   0  10    6.47    0.25
   3   0  10    6.57    0.23
  -3   0 -10    6.87    0.30
   4   0  11   -0.02    0.02
   4   0  11    0.06    0.04
   4   0  11    0.03    0.03
  -4   0 -11   -0.01    0.08
   5   0  12    7.70    0.31
   5   0  12    8.25    0.27
   9   1   2    2.23    0.12
   8   1   1    0.57    0.06
   8   1   1    0.49    0.06
   7   1   0    0.81    0.07
   7   1   0    0.83    0.07
  -6  -1   1    7.52    0.26
   6   1  -1    7.33    0.30
   6   1  -1    7.60    0.23
   6   1  -1    7.69    0.23
  -5  -1   2    1.99    0.09
  -5  -1   2    2.05    0.11
   5   1  -2    1.98    0.10
   5   1  -2    1.97    0.12
   5   1  -2    2.16    0.09
  -4  -1   3    2.82    0.12
  -4  -1   3    2.54    0.10
   4   1  -3    2.64    0.11
   4   1  -3    2.56    0.13
   4   1  -3    2.74    0.10
  -3  -1   4   17.27    0.51
  -3  -1   4   17.30    0.46
   3   1  -4   16.99    0.44
   3   1  -4   17.31    0.43
   3   1  -4   17.13    0.59
  -2  -1   5   36.07    0.94
  -2  -1   5   36.72    1.03
   2   1  -5   37.08    0.88
   2   1  -5   36.51    0.88
   2   1  -5   37.27    1.21
  -1  -1   6    2.31    0.10
  -1  -1   6    2.12    0.10
  -1  -1   6    2.30    0.08
   1   1  -6    2.33    0.12
   1   1  -6    2.46    0.07
   1   1  -6    2.10    0.09
   0  -1   7  157.06    3.78
   0  -1   7  150.47    4.18
   0  -1   7  154.51    3.52
   0   1  -7  155.93    4.93
   0   1  -7  153.82    3.54
   1  -1   8   46.08    1.07
   1  -1   8   44.65    1.16
   1  -1   8   44.92    1.28
  -1   1  -8   46.27    1.51
  -1   1  -8   45.95    1.08
   2  -1   9    0.03    0.03
   2  -1   9    0.14    0.05
   2  -1   9    0.02    0.02
  -2   1  -9    0.01    0.06
  -2   1  -9    0.02    0.03
   3  -1  10    8.98    0.24
   3  -1  10    8.47    0.31
   3  -1  10    8.94    0.28
  -3   1 -10    8.91    0.26
  -3   1 -10    8.89    0.37
   4  -1  11    0.23    0.06
   4  -1  11    0.15    0.04
   5  -1  12    2.21    0.14
   9   2   2    6.02    0.22
   8   2   1    0.10    0.04
   8   2   1    0.14    0.04
   7   2   0    6.87    0.22
   7   2   0    6.63    0.22
   6   2  -1    2.79    0.12
   6   2  -1    2.85    0.16
   6   2  -1    2.89    0.12
  -5  -2   2    4.13    0.16
  -5  -2   2    3.94    0.14
   5   2  -2    3.97    0.14
   5   2  -2    3.87    0.19
   5   2  -2    3.94    0.15
  -4  -2   3   16.63    0.45
  -4  -2   3   16.93    0.50
   4   2  -3   16.43    0.43
   4   2  -3   16.93    0.59
   4   2  -3   16.82    0.44
  -3  -2   4    0.15    0.03
  -3  -2   4    0.17    0.03
   3   2  -4    0.13    0.03
   3   2  -4    0.14    0.02
   3   2  -4    0.19    0.06
  -2  -2   5    0.26    0.04
  -2  -2   5    0.28    0.04
   2   2  -5    0.56    0.08
   2   2  -5    0.37    0.04
   2   2  -5    0.32    0.03
  -1  -2   6    6.88    0.23
  -1  -2   6    6.69    0.22
   1   2  -6    7.01    0.28
   1   2  -6    6.73    0.21
   1   2  -6    7.12    0.18
   0  -2   7   17.58    0.53
   0  -2   7   17.47    0.49
   0   2  -7   18.03    0.46
   0   2  -7   18.25    0.64
   1  -2   8    3.41    0.11
   1  -2   8    3.63    0.14
   1  -2   8    3.35    0.15
  -1   2  -8    3.51    0.19
  -1   2  -8    3.31    0.12
   2  -2   9    6.84    0.19
   2  -2   9    6.66    0.23
   2  -2   9    6.64    0.25
  -2   2  -9    7.13    0.21
  -2   2  -9    7.01    0.31
   3  -2  10    2.12    0.11
   3  -2  10    1.92    0.12
   4  -2  11    6.63    0.27
   4  -2  11    6.93    0.24
   5  -2  12    0.11    0.06
   9   3   2    4.72    0.19
   9   3   2    4.77    0.18
   8   3   1    2.22    0.11
   8   3   1    2.18    0.12
   7   3   0    0.33    0.05
   7   3   0    0.46    0.06
  -6  -3   1    2.27    0.10
  -6  -3   1    2.33    0.12
   6   3  -1    2.23    0.14
   6   3  -1    2.33    0.12
   6   3  -1    2.30    0.11
  -5  -3   2    6.24    0.22
  -5  -3   2    5.89    0.19
   5   3  -2    5.72    0.25
   5   3  -2    6.02    0.20
   5   3  -2    6.18    0.19
  -4  -3   3    3.03    0.13
   4   3  -3    2.89    0.11
   4   3  -3    2.75    0.12
   4   3  -3    2.76    0.15
  -3  -3   4   10.89    0.32
  -3  -3   4   10.79    0.34
   3   3  -4   10.81    0.30
   3   3  -4   11.10    0.41
   3   3  -4   11.19    0.29
  -2  -3   5    2.39    0.11
  -2  -3   5    2.47    0.11
   2   3  -5    2.56    0.09
   2   3  -5    2.55    0.11
   2   3  -5    2.44    0.14
  -1  -3   6   33.88    0.90
  -1  -3   6   34.47    0.97
   1   3  -6   34.10    0.83
   1   3  -6   35.53    0.83
   1   3  -6   33.92    1.16
   0  -3   7   30.05    0.80
   0  -3   7   30.42    0.87
   0   3  -7   30.53    0.74
   0   3  -7   29.65    1.03
   1  -3   8   13.29    0.43
   1  -3   8   13.65    0.40
  -1   3  -8   13.98    0.52
  -1   3  -8   13.70    0.36
   2  -3   9    9.70    0.33
   2  -3   9   10.09    0.31
  -2   3  -9    9.51    0.27
   3  -3  10    2.70    0.15
   3  -3  10    2.90    0.14
   4  -3  11    8.01    0.31
   4  -3  11    8.77    0.29
   5  -3  12    1.67    0.13
   9   4   2    1.25    0.09
   9   4   2    1.25    0.10
   8   4   1    0.04    0.04
   8   4   1    0.07    0.04
   7   4   0    0.83    0.08
   7   4   0    1.00    0.08
  -6  -4   1   32.86    0.85
  -6  -4   1   33.92    0.95
   6   4  -1   32.44    0.83
   6   4  -1   33.13    1.13
   6   4  -1   32.66    0.82
  -5  -4   2   23.54    0.68
  -5  -4   2   23.45    0.62
   5   4  -2   23.10    0.60
   5   4  -2   22.49    0.81
   5   4  -2   23.50    0.59
  -4  -4   3    4.90    0.18
  -4  -4   3    4.72    0.17
   4   4  -3    4.57    0.17
   4   4  -3    4.88    0.18
   4   4  -3    4.67    0.22
   4   4  -3    4.52    0.15
  -3  -4   4    5.75    0.20
   3   4  -4    5.49    0.17
   3   4  -4    5.50    0.25
   3   4  -4    5.36    0.18
  -2  -4   5    1.54    0.09
   2   4  -5    1.63    0.07
   2   4  -5    1.55    0.11
   2   4  -5    1.74    0.09
  -1  -4   6   39.05    1.04
  -1  -4   6   39.03    1.12
   1   4  -6   40.56    0.97
   1   4  -6   39.88    1.34
   1   4  -6   41.61    0.97
   0  -4   7    8.87    0.30
   0  -4   7    8.68    0.29
   0   4  -7    9.05    0.36
   0   4  -7    8.58    0.25
   1  -4   8   20.16    0.61
   1  -4   8   20.28    0.57
  -1   4  -8   20.72    0.51
  -1   4  -8   19.61    0.73
   2  -4   9    0.06    0.05
   2  -4   9    0.07    0.04
   3  -4  10    0.65    0.07
   3  -4  10    0.54    0.07
   4  -4  11    0.29    0.06
   4  -4  11    0.35    0.07
   8   5   1    3.74    0.16
   8   5   1    3.60    0.16
   7   5   0   -0.02    0.04
   7   5   0    0.03    0.04
  -6  -5   1   31.00    0.81
  -6  -5   1   31.19    0.89
   6   5  -1   30.15    0.79
   6   5  -1   29.99    0.77
   6   5  -1   31.59    1.07
  -5  -5   2    2.73    0.12
  -5  -5   2    2.63    0.12
   5   5  -2    2.71    0.17
   5   5  -2    2.82    0.12
   5   5  -2    2.57    0.12
  -4  -5   3    5.19    0.19
  -4  -5   3    5.20    0.19
   4   5  -3    5.28    0.17
   4   5  -3    5.33    0.25
   4   5  -3    5.23    0.18
  -3  -5   4    0.19    0.04
  -3  -5   4    0.21    0.04
   3   5  -4    0.18    0.04
   3   5  -4    0.28    0.08
  -2  -5   5    4.84    0.18
  -2  -5   5    4.55    0.18
   2   5  -5    4.68    0.17
   2   5  -5    4.74    0.15
   2   5  -5    4.75    0.23
  -1  -5   6    1.30    0.08
  -1  -5   6    1.28    0.09
   1   5  -6    1.21    0.08
   1   5  -6    1.29    0.07
   1   5  -6    1.17    0.11
   0  -5   7  103.37    2.59
   0  -5   7  100.17    2.84
   0   5  -7  106.65    2.41
   0   5  -7  105.45    3.37
   1  -5   8    2.31    0.12
   1  -5   8    2.20    0.12
  -1   5  -8    2.31    0.10
   2  -5   9   14.00    0.43
   2  -5   9   14.02    0.46
   3  -5  10    3.04    0.16
   3  -5  10    3.45    0.16
   4  -5  11   -0.02    0.04
   8   6   1    5.03    0.20
   8   6   1    5.28    0.21
   7   6   0    6.06    0.22
   7   6   0    6.78    0.23
  -6  -6   1    0.10    0.04
  -6  -6   1    0.17    0.04
   6   6  -1    0.09    0.04
   6   6  -1    0.13    0.05
  -5  -6   2    0.73    0.08
  -5  -6   2    0.79    0.07
   5   6  -2    0.76    0.10
   5   6  -2    0.89    0.07
   5   6  -2    0.85    0.07
  -4  -6   3    0.26    0.05
  -4  -6   3    0.15    0.04
   4   6  -3    0.22    0.09
   4   6  -3    0.22    0.05
   4   6  -3    0.22    0.04
  -3  -6   4    9.50    0.30
  -3  -6   4    8.91    0.30
   3   6  -4    8.89    0.28
   3   6  -4    9.23    0.38
   3   6  -4    9.21    0.27
  -2  -6   5   29.95    0.85
  -2  -6   5   29.42    0.80
   2   6  -5   28.78    0.73
   2   6  -5   29.89    0.74
  -1  -6   6    0.31    0.06
  -1  -6   6    0.33    0.05
   1   6  -6    0.31    0.05
   1   6  -6    0.39    0.04
   0  -6   7    8.14    0.28
   0  -6   7    7.79    0.28
   0   6  -7    8.01    0.24
   1  -6   8    0.48    0.07
   1  -6   8    0.53    0.07
   2  -6   9   10.23    0.36
   2  -6   9   10.15    0.34
   3  -6  10    0.29    0.06
   3  -6  10    0.34    0.07
   7   7   0    2.73    0.14
   7   7   0    2.86    0.14
  -6  -7   1    0.11    0.04
   6   7  -1    0.10    0.05
   6   7  -1    0.13    0.04
  -5  -7   2    3.31    0.15
   5   7  -2    3.25    0.14
   5   7  -2    3.21    0.14
  -4  -7   3    0.44    0.06
  -4  -7   3    0.47    0.07
   4   7  -3    0.45    0.06
   4   7  -3    0.59    0.06
  -3  -7   4    8.73    0.28
  -3  -7   4    8.22    0.29
   3   7  -4    8.49    0.26
   3   7  -4    8.10    0.26
  -2  -7   5    7.50    0.26
  -2  -7   5    7.49    0.27
   2   7  -5    7.53    0.23
   2   7  -5    7.45    0.24
  -1  -7   6    0.65    0.08
  -1  -7   6    0.65    0.07
   1   7  -6    0.75    0.07
   1   7  -6    0.63    0.06
   0  -7   7    0.13    0.05
   0  -7   7    0.09    0.04
   0   7  -7    0.09    0.04
   1  -7   8    1.20    0.09
   1  -7   8    1.34    0.11
   2  -7   9    0.04    0.05
   2  -7   9    0.04    0.05
   7   8   0    1.55    0.11
  -6  -8   1    1.26    0.10
   6   8  -1    1.21    0.09
   6   8  -1    1.18    0.10
  -5  -8   2    0.15    0.05
   5   8  -2    0.21    0.05
   5   8  -2    0.23    0.05
  -4  -8   3    3.84    0.18
   4   8  -3    3.70    0.16
   4   8  -3    3.92    0.16
  -3  -8   4    0.11    0.05
   3   8  -4    0.09    0.05
   3   8  -4    0.14    0.04
  -2  -8   5    0.05    0.05
   2   8  -5    0.10    0.05
   2   8  -5    0.13    0.04
  -1  -8   6    0.01    0.04
   1   8  -6    0.04    0.03
   1   8  -6    0.04    0.04
   0  -8   7    0.91    0.09
   1  -8   8    4.35    0.20
  -5  -9   2    0.18    0.05
   5   9  -2    0.09    0.05
   5   9  -2    0.03    0.05
  -4  -9   3    3.32    0.17
   4   9  -3    3.29    0.16
   4   9  -3    3.25    0.14
  -3  -9   4    0.59    0.08
   3   9  -4    0.50    0.07
   3   9  -4    0.58    0.07
  -2  -9   5    0.70    0.09
   2   9  -5    0.69    0.07
   2   9  -5    0.53    0.07
  -1  -9   6    2.00    0.14
  -3  10   5    0.06    0.05
   3 -10  -5    0.06    0.04
   3 -10  -5    0.04    0.05
  -2  10   6    1.61    0.09
  -2  10   6    1.53    0.10
   2 -10  -6    1.53    0.10
   2 -10  -6    1.53    0.11
  -1  10   7   -0.03    0.04
  -1  10   7    0.05    0.04
   1 -10  -7   -0.02    0.06
   1 -10  -7    0.00    0.04
   0  10   8    0.21    0.06
   0 -10  -8    0.36    0.09
   0 -10  -8    0.22    0.06
   1  10   9    0.02    0.04
  -1 -10  -9    0.00    0.07
  -1 -10  -9    0.04    0.05
  -5   9   3    2.27    0.13
   5  -9  -3    2.20    0.12
  -4   9   4    0.00    0.04
   4  -9  -4    0.01    0.04
   4  -9  -4    0.06    0.04
  -3   9   5    2.79    0.13
   3  -9  -5    2.63    0.12
   3  -9  -5    2.86    0.14
  -2   9   6    2.86    0.12
  -2   9   6    2.57    0.12
   2  -9  -6    2.76    0.13
   2  -9  -6    2.47    0.12
  -1   9   7    1.04    0.08
  -1   9   7    1.13    0.08
   1  -9  -7    1.08    0.09
   1  -9  -7    0.95    0.08
   0   9   8    5.49    0.19
   0  -9  -8    5.10    0.23
   0  -9  -8    5.33    0.21
   1   9   9    0.35    0.06
   1   9   9    0.48    0.06
  -1  -9  -9    0.45    0.06
  -1  -9  -9    0.66    0.11
   2   9  10    2.20    0.12
   2   9  10    2.33    0.13
  -2  -9 -10    2.12    0.15
  -2  -9 -10    2.22    0.13
   3   9  11    0.06    0.05
   3   9  11   -0.06    0.04
  -3  -9 -11   -0.04    0.05
  -3  -9 -11    0.08    0.10
  -6   8   2    1.76    0.12
   6  -8  -2    1.86    0.11
  -5   8   3    0.27    0.06
   5  -8  -3    0.32    0.06
  -4   8   4    0.16    0.05
   4  -8  -4    0.22    0.05
   4  -8  -4    0.16    0.04
  -3   8   5    1.35    0.08
  -3   8   5    1.26    0.09
   3  -8  -5    1.31    0.07
   3  -8  -5    1.27    0.09
  -2   8   6    1.03    0.07
  -2   8   6    0.87    0.07
   2  -8  -6    0.92    0.06
   2  -8  -6    1.03    0.08
  -1   8   7    2.87    0.13
  -1   8   7    2.88    0.12
  -1   8   7    3.13    0.13
   1  -8  -7    3.03    0.14
   1  -8  -7    2.79    0.13
   0   8   8    2.89    0.12
   0   8   8    3.16    0.14
   0  -8  -8    2.93    0.15
   0  -8  -8    2.91    0.14
   1   8   9    0.02    0.04
   1   8   9    0.00    0.04
  -1  -8  -9    0.06    0.07
  -1  -8  -9   -0.01    0.04
   2   8  10    0.08    0.04
   2   8  10    0.10    0.04
  -2  -8 -10    0.09    0.05
  -2  -8 -10    0.19    0.09
   3   8  11    2.36    0.13
   3   8  11    2.09    0.12
  -3  -8 -11    2.47    0.14
  -3  -8 -11    2.42    0.17
  -7   7   1    1.28    0.11
   7  -7  -1    1.17    0.10
  -6   7   2    0.04    0.05
   6  -7  -2    0.03    0.04
  -5   7   3    2.26    0.12
   5  -7  -3    2.43    0.11
  -4   7   4    1.28    0.07
  -4   7   4    1.11    0.08
   4  -7  -4    1.13    0.08
   4  -7  -4    1.05    0.07
  -3   7   5    2.55    0.12
  -3   7   5    2.59    0.10
  -3   7   5    2.54    0.12
   3  -7  -5    2.48    0.11
  -2   7   6    3.99    0.14
  -2   7   6    4.15    0.16
  -2   7   6    4.17    0.15
   2  -7  -6    4.06    0.16
   2  -7  -6    3.85    0.15
  -1   7   7    0.14    0.04
  -1   7   7    0.16    0.04
  -1   7   7    0.09    0.04
   1  -7  -7    0.20    0.05
   1  -7  -7    0.21    0.06
   0   7   8    2.50    0.11
   0   7   8    2.61    0.13
   0  -7  -8    2.60    0.13
   0  -7  -8    2.61    0.12
   1   7   9    2.70    0.13
   1   7   9    2.83    0.12
  -1  -7  -9    2.79    0.13
  -1  -7  -9    2.75    0.15
   2   7  10    0.23    0.05
   2   7  10    0.21    0.05
  -2  -7 -10    0.16    0.08
  -2  -7 -10    0.11    0.05
   3   7  11    7.48    0.24
   3   7  11    8.03    0.27
  -3  -7 -11    7.45    0.34
  -3  -7 -11    7.27    0.26
   4   7  12   -0.01    0.05
   4   7  12    0.09    0.05
  -4  -7 -12    0.11    0.10
  -4  -7 -12   -0.01    0.04
   7  -6  -1    0.96    0.08
  -6   6   2    0.12    0.05
   6  -6  -2    0.10    0.04
  -5   6   3    0.66    0.07
   5  -6  -3    0.65    0.06
  -4   6   4    1.85    0.08
  -4   6   4    1.83    0.09
  -4   6   4    1.72    0.10
  -4   6   4    1.58    0.10
   4  -6  -4    1.78    0.09
   4  -6  -4    1.79    0.09
   4  -6  -4    1.78    0.11
   4  -6  -4    1.79    0.09
  -3   6   5    3.58    0.14
  -3   6   5    3.49    0.13
  -3   6   5    3.66    0.14
  -3   6   5    3.57    0.15
   3  -6  -5    3.59    0.13
   3  -6  -5    3.52    0.14
  -2   6   6   -0.01    0.03
  -2   6   6    0.00    0.03
  -2   6   6    0.07    0.03
  -2   6   6    0.08    0.03
   2  -6  -6   -0.04    0.03
   2  -6  -6    0.05    0.02
  -1   6   7   18.39    0.48
  -1   6   7   20.42    0.49
  -1   6   7   18.75    0.53
   1  -6  -7   18.98    0.52
   1  -6  -7   19.10    0.64
   0   6   8    1.44    0.08
   0   6   8    1.34    0.09
   0  -6  -8    1.38    0.09
   0  -6  -8    1.36    0.09
   1   6   9    2.21    0.10
   1   6   9    2.41    0.12
  -1  -6  -9    2.29    0.13
  -1  -6  -9    2.31    0.11
   2   6  10    0.75    0.07
   2   6  10    0.67    0.07
   2   6  10    0.66    0.06
  -2  -6 -10    0.72    0.07
  -2  -6 -10    0.76    0.09
   3   6  11   -0.01    0.04
   3   6  11    0.04    0.04
  -3  -6 -11    0.02    0.04
  -3  -6 -11   -0.09    0.07
   4   6  12    0.82    0.08
   4   6  12    0.89    0.08
  -4  -6 -12    1.11    0.15
  -4  -6 -12    0.91    0.09
   8  -5   0   -0.01    0.04
   7  -5  -1    0.00    0.04
   6  -5  -2    1.54    0.09
  -5   5   3    0.01    0.02
  -5   5   3    0.00    0.03
   5  -5  -3    0.01    0.03
   5  -5  -3   -0.03    0.02
   5  -5  -3   -0.02    0.03
  -4   5   4    0.52    0.06
  -4   5   4    0.47    0.06
  -4   5   4    0.54    0.05
  -4   5   4    0.60    0.06
   4  -5  -4    0.52    0.05
   4  -5  -4    0.52    0.05
   4  -5  -4    0.56    0.05
   4  -5  -4    0.54    0.06
  -3   5   5    3.02    0.13
  -3   5   5    3.16    0.11
  -3   5   5    3.27    0.13
  -3   5   5    3.32    0.12
   3  -5  -5    3.00    0.12
   3  -5  -5    3.11    0.14
   3  -5  -5    3.17    0.11
  -2   5   6    2.28    0.11
  -2   5   6    2.43    0.10
  -2   5   6    2.55    0.10
  -2   5   6    2.32    0.11
   2  -5  -6    2.48    0.09
   2  -5  -6    2.41    0.12
  -1   5   7   19.10    0.47
  -1   5   7   17.53    0.46
  -1   5   7   18.56    0.54
  -1   5   7   18.35    0.51
   1  -5  -7   18.43    0.61
   0   5   8    0.00    0.03
   0   5   8   -0.02    0.03
   0   5   8    0.03    0.03
   0  -5  -8    0.04    0.05
   1   5   9    0.84    0.07
   1   5   9    0.90    0.08
   1   5   9    0.88    0.06
  -1  -5  -9    0.95    0.09
   2   5  10    3.44    0.15
   2   5  10    3.32    0.13
   2   5  10    3.45    0.15
  -2  -5 -10    3.57    0.19
   3   5  11    0.05    0.04
   3   5  11    0.10    0.04
   3   5  11    0.11    0.04
  -3  -5 -11    0.04    0.08
   4   5  12    0.82    0.09
   4   5  12    1.04    0.08
   4   5  12    1.21    0.09
  -4  -5 -12    1.04    0.12
  -4  -5 -12    1.18    0.09
   5   5  13    0.14    0.05
   5   5  13    0.07    0.05
   5   5  13    0.02    0.06
  -5  -5 -13    0.14    0.11
  -5  -5 -13    0.10    0.05
   8  -4   0    0.09    0.05
   7  -4  -1    0.10    0.04
   6  -4  -2    1.84    0.10
  -5   4   3    0.11    0.04
  -5   4   3    0.09    0.03
  -5   4   3    0.15    0.03
   5  -4  -3    0.06    0.03
   5  -4  -3    0.10    0.03
  -4   4   4    4.66    0.18
  -4   4   4    4.69    0.16
  -4   4   4    4.62    0.16
  -4   4   4    4.46    0.14
   4  -4  -4    4.61    0.16
   4  -4  -4    4.67    0.18
   4  -4  -4    4.73    0.16
   4  -4  -4    4.71    0.15
  -3   4   5    8.16    0.27
  -3   4   5    8.41    0.24
  -3   4   5    8.09    0.25
  -3   4   5    8.39    0.23
   3  -4  -5    8.42    0.25
   3  -4  -5    8.01    0.28
   3  -4  -5    8.58    0.23
  -2   4   6    1.65    0.09
  -2   4   6    1.71    0.08
  -2   4   6    1.76    0.08
  -2   4   6    1.62    0.09
   2  -4  -6    1.62    0.07
   2  -4  -6    1.79    0.07
  -1   4   7   10.05    0.30
  -1   4   7    9.82    0.27
  -1   4   7   10.11    0.32
   1  -4  -7   10.45    0.26
   1  -4  -7   10.15    0.35
   0   4   8    0.22    0.04
   0   4   8    0.25    0.04
   0   4   8    0.17    0.04
   0  -4  -8    0.29    0.06
   1   4   9    0.18    0.04
   1   4   9    0.17    0.03
   1   4   9    0.25    0.05
  -1  -4  -9    0.38    0.08
   2   4  10    0.79    0.06
   2   4  10    0.92    0.07
   2   4  10    0.78    0.08
  -2  -4 -10    0.97    0.09
   3   4  11    0.31    0.05
   3   4  11    0.31    0.05
   3   4  11    0.32    0.05
  -3  -4 -11    0.41    0.11
   4   4  12    0.60    0.06
   4   4  12    0.68    0.07
   4   4  12    0.69    0.08
  -4  -4 -12    1.07    0.15
   5   4  13    0.09    0.06
   5   4  13    0.07    0.04
   5   4  13    0.20    0.06
  -5  -4 -13    0.23    0.12
   8  -3   0    0.08    0.04
   7  -3  -1    1.46    0.09
   6  -3  -2    0.87    0.07
   6  -3  -2    0.95    0.07
  -5   3   3    0.40    0.05
  -5   3   3    0.43    0.05
   5  -3  -3    0.41    0.04
   5  -3  -3    0.34    0.05
   5  -3  -3    0.36    0.04
  -4   3   4   -0.02    0.02
  -4   3   4   -0.03    0.03
  -4   3   4   -0.05    0.02
   4  -3  -4    0.00    0.02
   4  -3  -4    0.00    0.03
   4  -3  -4   -0.06    0.02
  -3   3   5   44.51    1.13
  -3   3   5   44.58    1.25
  -3   3   5   44.89    1.06
   3  -3  -5   46.55    1.08
   3  -3  -5   44.43    1.07
  -2   3   6    3.10    0.12
  -2   3   6    2.98    0.13
  -2   3   6    3.09    0.11
   2  -3  -6    3.07    0.12
   2  -3  -6    3.24    0.10
   2  -3  -6    3.30    0.12
  -1   3   7    3.91    0.15
  -1   3   7    3.72    0.15
  -1   3   7    3.86    0.13
   1  -3  -7    4.08    0.16
   0   3   8    1.97    0.10
   0   3   8    1.96    0.08
   0   3   8    1.96    0.10
   0  -3  -8    1.82    0.11
   1   3   9    5.45    0.17
   1   3   9    5.37    0.19
   1   3   9    5.32    0.20
  -1  -3  -9    5.29    0.23
   2   3  10   20.12    0.56
   2   3  10   20.55    0.60
   2   3  10   19.67    0.50
  -2  -3 -10   19.86    0.72
   3   3  11   20.75    0.65
   3   3  11   21.44    0.54
   3   3  11   22.41    0.60
  -3  -3 -11   21.88    0.78
   4   3  12    0.62    0.06
   4   3  12    0.59    0.08
   4   3  12    0.66    0.07
  -4  -3 -12    1.07    0.15
   5   3  13    0.77    0.07
   5   3  13    0.74    0.09
   5   3  13    0.75    0.08
   9  -2   1    1.24    0.10
   8  -2   0    0.48    0.06
   7  -2  -1    3.72    0.15
  -6   2   2    5.16    0.21
   6  -2  -2    5.32    0.21
   6  -2  -2    5.50    0.18
   6  -2  -2    5.46    0.18
  -5   2   3    7.31    0.25
  -5   2   3    7.33    0.22
   5  -2  -3    7.43    0.22
   5  -2  -3    7.16    0.27
   5  -2  -3    7.50    0.22
  -4   2   4    1.90    0.08
  -4   2   4    2.16    0.10
  -4   2   4    2.02    0.09
   4  -2  -4    1.87    0.09
   4  -2  -4    1.94    0.09
   4  -2  -4    1.99    0.09
   4  -2  -4    2.02    0.08
  -3   2   5    1.65    0.09
  -3   2   5    1.63    0.07
  -3   2   5    1.60    0.09
   3  -2  -5    1.74    0.09
   3  -2  -5    1.76    0.07
   3  -2  -5    1.74    0.08
   3  -2  -5    1.67    0.08
  -2   2   6    0.08    0.03
  -2   2   6    0.12    0.03
  -2   2   6    0.09    0.03
   2  -2  -6    0.20    0.04
   2  -2  -6    0.10    0.03
   2  -2  -6    0.15    0.02
   2  -2  -6    0.17    0.04
  -1   2   7    2.35    0.09
  -1   2   7    2.41    0.11
  -1   2   7    2.27    0.11
   1  -2  -7    2.25    0.11
   0   2   8   12.16    0.35
   0   2   8   12.22    0.32
   0   2   8   12.08    0.38
   0  -2  -8   11.92    0.44
   1   2   9   -0.04    0.03
   1   2   9    0.05    0.03
   1   2   9    0.00    0.02
  -1  -2  -9   -0.03    0.05
   2   2  10    6.13    0.18
   2   2  10    5.97    0.21
   2   2  10    5.73    0.22
  -2  -2 -10    5.67    0.26
   3   2  11    5.18    0.17
   3   2  11    4.99    0.19
   3   2  11    4.77    0.21
  -3  -2 -11    5.03    0.25
   4   2  12    0.71    0.07
   4   2  12    0.69    0.08
   4   2  12    0.60    0.06
  -4  -2 -12    0.81    0.11
   5   2  13    4.92    0.23
   5   2  13    5.20    0.20
   9  -1   1    1.13    0.09
   8  -1   0    8.07    0.26
   7  -1  -1    0.40    0.05
   7  -1  -1    0.24    0.04
  -6   1   2   10.05    0.34
   6  -1  -2   10.19    0.38
   6  -1  -2   11.24    0.30
   6  -1  -2   10.72    0.30
  -5   1   3    0.51    0.05
  -5   1   3    0.49    0.06
   5  -1  -3    0.51    0.06
   5  -1  -3    0.48    0.05
   5  -1  -3    0.50    0.05
  -4   1   4    3.63    0.13
  -4   1   4    3.38    0.14
   4  -1  -4    3.35    0.14
   4  -1  -4    3.31    0.13
   4  -1  -4    3.51    0.12
  -3   1   5    0.00    0.03
  -3   1   5    0.09    0.03
  -3   1   5    0.08    0.03
   3  -1  -5    0.09    0.04
   3  -1  -5    0.09    0.03
   3  -1  -5    0.06    0.02
  -2   1   6    4.73    0.16
  -2   1   6    4.42    0.17
  -2   1   6    4.64    0.14
   2  -1  -6    4.69    0.13
   2  -1  -6    4.81    0.19
   2  -1  -6    4.55    0.16
  -1   1   7    0.55    0.04
  -1   1   7    0.43    0.05
  -1   1   7    0.54    0.05
   1  -1  -7    0.58    0.06
   1  -1  -7    0.51    0.05
   0   1   8   35.70    0.94
   0   1   8   35.93    0.86
   0   1   8   37.00    1.03
   0  -1  -8   35.51    1.20
   0  -1  -8   36.89    0.88
   1   1   9   12.46    0.40
   1   1   9   12.83    0.33
   1   1   9   13.47    0.38
  -1  -1  -9   12.53    0.48
   2   1  10    0.16    0.05
   2   1  10    0.02    0.04
   2   1  10    0.07    0.03
  -2  -1 -10    0.03    0.07
   3   1  11    0.35    0.06
   3   1  11    0.35    0.05
   3   1  11    0.47    0.05
  -3  -1 -11    0.64    0.11
   4   1  12    1.40    0.08
   4   1  12    1.26    0.09
   4   1  12    1.22    0.10
  -4  -1 -12    1.37    0.13
   5   1  13    1.99    0.14
   5   1  13    2.06    0.12
   9   0   1    1.41    0.10
   8   0   0    0.61    0.06
   8   0   0    0.65    0.07
   7   0  -1    0.49    0.05
   7   0  -1    0.47    0.06
  -6   0   2    1.57    0.10
   6   0  -2    1.66    0.11
   6   0  -2    1.77    0.09
   6   0  -2    1.55    0.08
  -5   0   3    0.26    0.04
  -5   0   3    0.26    0.05
   5   0  -3    0.27    0.06
   5   0  -3    0.12    0.04
   5   0  -3    0.23    0.05
  -4   0   4    0.05    0.03
  -4   0   4    0.03    0.02
   4   0  -4    0.09    0.03
   4   0  -4    0.11    0.05
   4   0  -4    0.07    0.03
  -3   0   5    0.82    0.07
  -3   0   5    0.84    0.06
   3   0  -5    0.90    0.06
   3   0  -5    0.90    0.05
   3   0  -5    0.84    0.07
  -2   0   6    1.10    0.06
  -2   0   6    0.93    0.07
  -2   0   6    1.05    0.07
   2   0  -6    1.04    0.07
   2   0  -6    1.07    0.08
   2   0  -6    0.99    0.04
  -1   0   7    0.01    0.02
  -1   0   7   -0.02    0.03
  -1   0   7    0.18    0.03
   1   0  -7    0.07    0.05
   1   0  -7    0.02    0.03
   0   0   8   17.09    0.43
   0   0   8   17.10    0.48
   0   0   8   16.97    0.52
   0   0  -8   17.14    0.45
   0   0  -8   17.27    0.61
   1   0   9    0.71    0.07
   1   0   9    0.57    0.06
   1   0   9    0.62    0.05
  -1   0  -9    0.60    0.08
  -1   0  -9    0.62    0.06
   2   0  10    5.77    0.22
   2   0  10    5.78    0.18
   2   0  10    5.65    0.21
  -2   0 -10    5.86    0.27
  -2   0 -10    6.23    0.20
   3   0  11    0.02    0.04
   3   0  11    0.03    0.04
   3   0  11    0.01    0.03
  -3   0 -11    0.01    0.07
  -3   0 -11    0.01    0.03
   4   0  12    5.24    0.20
   4   0  12    4.98    0.22
   5   0  13    1.65    0.13
   9   1   1    5.28    0.21
   8   1   0    0.25    0.05
   8   1   0    0.19    0.05
   7   1  -1   -0.01    0.03
   7   1  -1    0.01    0.04
  -6  -1   2    7.98    0.28
   6   1  -2    8.14    0.33
   6   1  -2    8.35    0.25
   6   1  -2    8.66    0.25
  -5  -1   3   54.58    1.55
  -5  -1   3   57.19    1.39
   5   1  -3   55.92    1.32
   5   1  -3   55.35    1.81
   5   1  -3   55.21    1.35
  -4  -1   4    3.11    0.12
  -4  -1   4    2.85    0.13
   4   1  -4    2.86    0.12
   4   1  -4    2.83    0.14
   4   1  -4    3.00    0.11
  -3  -1   5    4.57    0.17
  -3  -1   5    4.33    0.16
   3   1  -5    4.54    0.16
   3   1  -5    4.62    0.14
   3   1  -5    4.29    0.19
  -2  -1   6    9.08    0.29
  -2  -1   6    8.34    0.27
   2   1  -6    8.78    0.34
   2   1  -6    9.18    0.23
   2   1  -6    8.55    0.26
  -1  -1   7    6.20    0.18
  -1  -1   7    6.18    0.22
  -1  -1   7    6.38    0.21
   1   1  -7    6.38    0.26
   1   1  -7    6.30    0.20
   0  -1   8    6.16    0.21
   0  -1   8    6.24    0.23
   0  -1   8    6.37    0.18
   0   1  -8    6.26    0.20
   0   1  -8    6.16    0.27
   1  -1   9    3.74    0.16
   1  -1   9    3.84    0.13
   1  -1   9    3.83    0.17
  -1   1  -9    3.80    0.14
  -1   1  -9    3.88    0.20
   2  -1  10    3.10    0.11
   2  -1  10    2.97    0.14
   2  -1  10    2.80    0.14
  -2   1 -10    3.02    0.13
  -2   1 -10    2.96    0.18
   3  -1  11    5.09    0.16
   3  -1  11    4.95    0.20
   3  -1  11    5.02    0.22
  -3   1 -11    5.33    0.18
  -3   1 -11    5.04    0.26
   4  -1  12    1.89    0.13
   4  -1  12    1.94    0.12
   9   2   1    1.71    0.12
   9   2   1    1.77    0.10
   8   2   0    0.53    0.06
   8   2   0    0.49    0.06
  -7  -2   1    0.09    0.05
   7   2  -1    0.02    0.04
   7   2  -1    0.03    0.04
  -6  -2   2    2.53    0.13
   6   2  -2    2.25    0.11
   6   2  -2    2.79    0.16
   6   2  -2    2.37    0.12
  -5  -2   3   23.09    0.68
  -5  -2   3   22.28    0.61
   5   2  -3   22.33    0.79
   5   2  -3   23.58    0.59
   5   2  -3   23.63    0.59
  -4  -2   4    0.12    0.03
  -4  -2   4    0.02    0.03
   4   2  -4    0.04    0.03
   4   2  -4    0.07    0.06
   4   2  -4    0.10    0.03
  -3  -2   5    2.97    0.13
  -3  -2   5    3.00    0.13
   3   2  -5    2.92    0.15
   3   2  -5    2.99    0.10
   3   2  -5    2.97    0.12
  -2  -2   6    5.31    0.19
  -2  -2   6    5.27    0.19
   2   2  -6    5.48    0.15
   2   2  -6    5.23    0.18
   2   2  -6    5.21    0.23
  -1  -2   7    0.01    0.03
  -1  -2   7    0.04    0.03
   1   2  -7   -0.01    0.05
   1   2  -7    0.00    0.03
   0  -2   8    4.57    0.18
   0  -2   8    4.79    0.19
   0   2  -8    4.81    0.23
   0   2  -8    4.73    0.17
   1  -2   9    0.11    0.04
   1  -2   9    0.10    0.04
  -1   2  -9    0.11    0.04
  -1   2  -9    0.06    0.08
   2  -2  10    2.12    0.13
   2  -2  10    2.19    0.12
   2  -2  10    2.24    0.09
  -2   2 -10    2.36    0.11
  -2   2 -10    2.25    0.16
   3  -2  11    0.23    0.06
   3  -2  11    0.02    0.03
   4  -2  12    5.46    0.21
   4  -2  12    4.94    0.23
   9   3   1    0.06    0.05
   9   3   1    0.07    0.05
   8   3   0    0.00    0.04
   8   3   0    0.00    0.04
  -7  -3   1    0.94    0.09
   7   3  -1    0.82    0.08
   7   3  -1    0.83    0.07
  -6  -3   2   75.38    1.87
  -6  -3   2   76.25    2.08
   6   3  -2   73.11    2.45
   6   3  -2   75.49    1.82
   6   3  -2   76.13    1.78
  -5  -3   3    0.13    0.04
  -5  -3   3    0.17    0.04
   5   3  -3    0.18    0.04
   5   3  -3    0.15    0.04
   5   3  -3    0.21    0.08
  -4  -3   4    6.93    0.24
   4   3  -4    6.70    0.29
   4   3  -4    6.83    0.22
   4   3  -4    6.80    0.20
  -3  -3   5    4.87    0.18
  -3  -3   5    4.70    0.17
   3   3  -5    4.76    0.22
   3   3  -5    4.73    0.15
   3   3  -5    4.74    0.17
  -2  -3   6    9.75    0.31
  -2  -3   6    9.81    0.32
   2   3  -6    9.78    0.29
   2   3  -6   10.20    0.39
   2   3  -6   10.25    0.26
  -1  -3   7    2.45    0.12
  -1  -3   7    2.55    0.13
   1   3  -7    2.73    0.12
   1   3  -7    2.70    0.16
   0  -3   8   56.05    1.42
   0  -3   8   54.75    1.55
   0   3  -8   56.13    1.85
   0   3  -8   55.74    1.32
   1  -3   9    2.33    0.13
   1  -3   9    2.47    0.13
  -1   3  -9    2.48    0.11
  -1   3  -9    2.63    0.17
   2  -3  10    1.61    0.11
   2  -3  10    1.55    0.11
  -2   3 -10    1.59    0.09
   3  -3  11    0.10    0.05
   3  -3  11    0.10    0.05
   4  -3  12    2.81    0.17
   4  -3  12    2.92    0.15
   8   4   0    2.00    0.12
   8   4   0    2.11    0.12
  -7  -4   1    0.84    0.08
   7   4  -1    0.75    0.07
   7   4  -1    0.62    0.07
  -6  -4   2    6.45    0.21
  -6  -4   2    6.04    0.23
   6   4  -2    6.13    0.28
   6   4  -2    5.92    0.21
   6   4  -2    6.21    0.21
  -5  -4   3    0.85    0.07
  -5  -4   3    0.84    0.07
   5   4  -3    0.88    0.07
   5   4  -3    0.94    0.06
   5   4  -3    0.74    0.10
  -4  -4   4    0.71    0.07
  -4  -4   4    0.64    0.07
   4   4  -4    0.65    0.06
   4   4  -4    0.66    0.05
   4   4  -4    0.57    0.08
  -3  -4   5    6.12    0.22
  -3  -4   5    6.04    0.22
   3   4  -5    6.34    0.28
   3   4  -5    6.30    0.21
   3   4  -5    6.31    0.19
  -2  -4   6    8.46    0.28
  -2  -4   6    8.49    0.29
   2   4  -6    8.47    0.35
   2   4  -6    8.85    0.24
   2   4  -6    8.62    0.26
  -1  -4   7    1.57    0.10
  -1  -4   7    1.58    0.10
   1   4  -7    1.65    0.10
   1   4  -7    1.73    0.13
   0  -4   8    8.52    0.30
   0  -4   8    8.78    0.29
   0   4  -8    8.72    0.26
   0   4  -8    8.85    0.37
   1  -4   9    5.87    0.23
   1  -4   9    5.85    0.23
  -1   4  -9    6.03    0.19
   2  -4  10   13.04    0.44
   2  -4  10   13.35    0.41
   3  -4  11    1.43    0.11
   3  -4  11    1.61    0.11
   8   5   0    1.88    0.12
   8   5   0    1.92    0.11
  -7  -5   1    1.32    0.10
   7   5  -1    1.17    0.09
   7   5  -1    1.21    0.09
  -6  -5   2    0.99    0.08
  -6  -5   2    0.87    0.08
   6   5  -2    0.89    0.11
   6   5  -2    1.04    0.08
   6   5  -2    0.87    0.08
  -5  -5   3    7.43    0.25
  -5  -5   3    7.15    0.24
   5   5  -3    6.69    0.23
   5   5  -3    7.27    0.23
   5   5  -3    6.94    0.31
  -4  -5   4    0.41    0.06
  -4  -5   4    0.51    0.06
   4   5  -4    0.79    0.11
   4   5  -4    0.46    0.05
   4   5  -4    0.52    0.06
  -3  -5   5   41.74    1.11
  -3  -5   5   42.58    1.20
   3   5  -5   42.05    1.04
   3   5  -5   42.94    1.45
   3   5  -5   44.54    1.05
  -2  -5   6    0.42    0.06
  -2  -5   6    0.43    0.06
   2   5  -6    0.45    0.06
   2   5  -6    0.61    0.11
   2   5  -6    0.52    0.05
  -1  -5   7    1.83    0.11
  -1  -5   7    1.68    0.11
   1   5  -7    1.91    0.10
   1   5  -7    1.91    0.15
   0  -5   8    2.70    0.13
   0  -5   8    2.56    0.14
   0   5  -8    2.55    0.12
   1  -5   9    0.82    0.09
   1  -5   9    0.74    0.08
   2  -5  10    0.55    0.07
   2  -5  10    0.53    0.08
   3  -5  11   12.21    0.43
   3  -5  11   11.96    0.39
   8   6   0    1.31    0.10
   8   6   0    1.20    0.10
  -7  -6   1    0.32    0.06
   7   6  -1    0.27    0.06
   7   6  -1    0.17    0.05
  -6  -6   2    0.20    0.05
  -6  -6   2    0.23    0.05
   6   6  -2    0.25    0.05
   6   6  -2    0.25    0.10
   6   6  -2    0.22    0.05
  -5  -6   3    0.68    0.07
  -5  -6   3    0.57    0.07
   5   6  -3    0.94    0.13
   5   6  -3    0.58    0.07
   5   6  -3    0.60    0.06
  -4  -6   4   -0.02    0.03
  -4  -6   4   -0.04    0.04
   4   6  -4   -0.01    0.03
   4   6  -4    0.07    0.08
   4   6  -4   -0.05    0.03
  -3  -6   5    2.00    0.12
  -3  -6   5    2.06    0.11
   3   6  -5    2.02    0.10
   3   6  -5    1.96    0.15
   3   6  -5    2.09    0.11
  -2  -6   6    0.41    0.06
  -2  -6   6    0.45    0.06
   2   6  -6    0.41    0.05
   2   6  -6    0.35    0.06
  -1  -6   7    6.61    0.25
  -1  -6   7    6.43    0.24
   1   6  -7    6.60    0.22
   0  -6   8    2.87    0.15
   0  -6   8    2.94    0.14
   0   6  -8    3.23    0.13
   1  -6   9    1.36    0.11
   1  -6   9    1.40    0.10
   2  -6  10    1.07    0.10
   2  -6  10    1.16    0.10
   7   7  -1    3.18    0.15
   7   7  -1    3.12    0.15
  -6  -7   2    0.57    0.07
   6   7  -2    0.58    0.07
   6   7  -2    0.54    0.06
  -5  -7   3    0.16    0.05
   5   7  -3    0.24    0.06
   5   7  -3    0.15    0.04
  -4  -7   4    6.96    0.25
  -4  -7   4    7.10    0.26
   4   7  -4    6.88    0.22
   4   7  -4    6.89    0.24
  -3  -7   5    0.02    0.04
  -3  -7   5    0.00    0.04
   3   7  -5   -0.02    0.03
   3   7  -5   -0.02    0.03
  -2  -7   6   11.39    0.36
  -2  -7   6   10.98    0.37
   2   7  -6   10.66    0.33
  -1  -7   7    0.58    0.07
  -1  -7   7    0.36    0.07
   1   7  -7    0.38    0.06
   0  -7   8   -0.01    0.04
   0  -7   8    0.06    0.04
   1  -7   9    0.71    0.08
   1  -7   9    0.70    0.08
  -6  -8   2    3.27    0.16
   6   8  -2    3.32    0.15
   6   8  -2    3.09    0.15
  -5  -8   3    0.43    0.07
   5   8  -3    0.28    0.05
   5   8  -3    0.51    0.07
  -4  -8   4    0.24    0.06
   4   8  -4    0.36    0.05
   4   8  -4    0.22    0.05
  -3  -8   5    0.09    0.06
   3   8  -5    0.18    0.04
   3   8  -5    0.11    0.05
  -2  -8   6    0.12    0.06
   2   8  -6    0.03    0.05
  -1  -8   7    3.93    0.19
   1   8  -7    4.00    0.16
   0  -8   8    0.82    0.09
  -3  -9   5    3.46    0.19
  -2  10   7    0.09    0.04
   2 -10  -7    0.10    0.06
   2 -10  -7    0.06    0.05
  -1  10   8   -0.02    0.04
   1 -10  -8   -0.04    0.06
   1 -10  -8    0.01    0.05
  -4   9   5    0.04    0.05
   4  -9  -5    0.01    0.04
   4  -9  -5    0.08    0.04
   4  -9  -5    0.09    0.04
  -3   9   6    1.45    0.08
  -3   9   6    1.48    0.10
   3  -9  -6    1.32    0.08
   3  -9  -6    1.36    0.10
  -2   9   7    2.43    0.11
   2  -9  -7    2.40    0.13
   2  -9  -7    2.26    0.12
  -1   9   8    2.38    0.11
   1  -9  -8    2.28    0.13
   1  -9  -8    2.28    0.13
   0   9   9    0.28    0.06
   0   9   9    0.24    0.06
   0  -9  -9    0.42    0.09
   0  -9  -9    0.20    0.05
   1   9  10    1.58    0.11
   1   9  10    1.48    0.10
  -1  -9 -10    1.36    0.12
  -1  -9 -10    1.30    0.10
  -5   8   4    0.13    0.05
   5  -8  -4    0.13    0.04
  -4   8   5    0.05    0.04
   4  -8  -5    0.01    0.03
   4  -8  -5    0.02    0.04
  -3   8   6    0.19    0.04
  -3   8   6    0.19    0.05
   3  -8  -6    0.12    0.04
   3  -8  -6    0.20    0.05
   3  -8  -6    0.25    0.04
  -2   8   7    0.15    0.05
  -2   8   7    0.13    0.05
   2  -8  -7    0.19    0.05
   2  -8  -7    0.11    0.05
  -1   8   8    3.21    0.15
  -1   8   8    3.02    0.13
   1  -8  -8    3.02    0.14
   1  -8  -8    3.20    0.15
   0   8   9    2.63    0.14
   0   8   9    2.35    0.11
   0  -8  -9    2.41    0.13
   0  -8  -9    2.47    0.14
   1   8  10    0.21    0.05
   1   8  10    0.23    0.05
  -1  -8 -10    0.25    0.06
  -1  -8 -10    0.37    0.10
   2   8  11    0.40    0.06
   2   8  11    0.46    0.07
  -2  -8 -11    0.34    0.07
  -2  -8 -11    0.77    0.13
  -6   7   3    0.35    0.07
   6  -7  -3    0.45    0.06
  -5   7   4    0.25    0.06
   5  -7  -4    0.25    0.05
  -4   7   5    0.13    0.04
  -4   7   5    0.08    0.04
  -4   7   5    0.01    0.04
   4  -7  -5    0.08    0.04
   4  -7  -5    0.08    0.04
  -3   7   6    0.11    0.04
  -3   7   6    0.13    0.04
  -3   7   6    0.16    0.04
   3  -7  -6    0.12    0.04
   3  -7  -6    0.17    0.04
  -2   7   7    8.67    0.28
  -2   7   7    8.23    0.24
   2  -7  -7    8.64    0.27
   2  -7  -7    8.27    0.30
  -1   7   8    0.10    0.04
  -1   7   8    0.14    0.05
   1  -7  -8    0.29    0.06
   1  -7  -8    0.16    0.04
   0   7   9    0.50    0.06
   0   7   9    0.55    0.06
   0  -7  -9    0.43    0.06
   0  -7  -9    0.61    0.07
   1   7  10    0.39    0.06
   1   7  10    0.49    0.06
  -1  -7 -10    0.62    0.10
  -1  -7 -10    0.45    0.06
   2   7  11    0.49    0.07
   2   7  11    0.43    0.06
  -2  -7 -11    0.69    0.12
  -2  -7 -11    0.44    0.06
   3   7  12    1.03    0.09
   3   7  12    1.07    0.08
  -3  -7 -12    1.05    0.09
  -3  -7 -12    0.89    0.11
   7  -6  -2    0.01    0.04
   6  -6  -3    0.02    0.04
  -5   6   4    0.19    0.05
   5  -6  -4    0.14    0.04
   5  -6  -4    0.15    0.04
  -4   6   5    3.50    0.14
  -4   6   5    3.41    0.14
  -4   6   5    3.54    0.13
  -4   6   5    3.62    0.15
   4  -6  -5    3.41    0.14
   4  -6  -5    3.42    0.13
   4  -6  -5    3.59    0.14
  -3   6   6    5.12    0.19
  -3   6   6    5.12    0.17
  -3   6   6    4.96    0.16
  -3   6   6    5.19    0.19
   3  -6  -6    5.07    0.18
   3  -6  -6    4.95    0.16
  -2   6   7    0.15    0.04
  -2   6   7    0.02    0.04
  -2   6   7    0.02    0.03
   2  -6  -7    0.04    0.04
   2  -6  -7    0.07    0.04
  -1   6   8    0.13    0.04
  -1   6   8    0.21    0.04
  -1   6   8    0.16    0.04
   1  -6  -8    0.31    0.06
   1  -6  -8    0.26    0.05
   0   6   9    0.90    0.08
   0   6   9    0.93    0.07
   0   6   9    0.85    0.07
   0  -6  -9    0.96    0.08
   0  -6  -9    0.83    0.08
   1   6  10    0.24    0.05
   1   6  10    0.16    0.05
   1   6  10    0.18    0.04
  -1  -6 -10    0.22    0.05
  -1  -6 -10    0.31    0.09
   2   6  11    1.99    0.12
   2   6  11    2.08    0.11
  -2  -6 -11    2.03    0.14
  -2  -6 -11    2.20    0.12
   3   6  12   -0.04    0.04
   3   6  12   -0.02    0.04
  -3  -6 -12    0.02    0.08
  -3  -6 -12   -0.03    0.04
   7  -5  -2    0.69    0.07
   6  -5  -3    1.15    0.08
  -5   5   4    0.23    0.04
  -5   5   4    0.15    0.05
   5  -5  -4    0.22    0.04
   5  -5  -4    0.24    0.05
   5  -5  -4    0.20    0.04
  -4   5   5   13.73    0.38
  -4   5   5   13.54    0.42
  -4   5   5   13.62    0.39
  -4   5   5   13.53    0.36
   4  -5  -5   13.95    0.39
   4  -5  -5   13.59    0.38
   4  -5  -5   13.60    0.44
   4  -5  -5   13.48    0.37
  -3   5   6    6.66    0.20
  -3   5   6    7.09    0.21
  -3   5   6    6.72    0.24
  -3   5   6    6.82    0.23
   3  -5  -6    7.01    0.26
   3  -5  -6    7.08    0.20
   3  -5  -6    7.05    0.22
  -2   5   7    1.08    0.08
  -2   5   7    1.02    0.07
  -2   5   7    0.98    0.07
   2  -5  -7    1.02    0.06
  -1   5   8    6.36    0.22
  -1   5   8    6.69    0.23
  -1   5   8    6.25    0.20
   1  -5  -8    6.57    0.25
   0   5   9    0.10    0.04
   0   5   9    0.27    0.05
   0   5   9    0.15    0.04
   0  -5  -9    0.21    0.07
   1   5  10    1.80    0.10
   1   5  10    1.66    0.10
   1   5  10    1.69    0.09
  -1  -5 -10    1.79    0.12
   2   5  11    0.16    0.05
   2   5  11    0.17    0.05
   2   5  11    0.25    0.05
  -2  -5 -11    0.33    0.10
   3   5  12    2.79    0.14
   3   5  12    2.74    0.14
   3   5  12    2.69    0.12
  -3  -5 -12    2.63    0.18
   4   5  13    9.60    0.29
   4   5  13    9.56    0.32
   4   5  13    9.84    0.34
  -4  -5 -13    9.18    0.42
   8  -4  -1    0.86    0.08
   7  -4  -2    0.00    0.03
  -6   4   3    4.96    0.20
   6  -4  -3    4.86    0.19
   6  -4  -3    5.17    0.18
   6  -4  -3    5.29    0.18
  -5   4   4    0.15    0.05
  -5   4   4    0.19    0.04
  -5   4   4    0.16    0.04
   5  -4  -4    0.19    0.05
   5  -4  -4    0.19    0.03
   5  -4  -4    0.19    0.04
   5  -4  -4    0.20    0.04
  -4   4   5    1.40    0.09
  -4   4   5    1.32    0.07
  -4   4   5    1.38    0.08
   4  -4  -5    1.41    0.07
   4  -4  -5    1.38    0.09
   4  -4  -5    1.41    0.09
  -3   4   6    6.56    0.23
  -3   4   6    6.69    0.20
  -3   4   6    6.86    0.22
   3  -4  -6    6.73    0.21
   3  -4  -6    6.91    0.19
   3  -4  -6    6.45    0.24
  -2   4   7    1.64    0.09
  -2   4   7    1.51    0.08
  -2   4   7    1.51    0.09
   2  -4  -7    1.57    0.08
  -1   4   8    2.70    0.12
  -1   4   8    2.66    0.11
  -1   4   8    2.61    0.12
   1  -4  -8    2.52    0.13
   0   4   9    3.44    0.15
   0   4   9    3.77    0.13
   0   4   9    3.95    0.16
   0  -4  -9    3.56    0.17
   1   4  10    0.96    0.08
   1   4  10    1.35    0.07
   1   4  10    0.94    0.08
  -1  -4 -10    1.00    0.09
   2   4  11    0.85    0.07
   2   4  11    0.84    0.08
   2   4  11    0.94    0.08
  -2  -4 -11    0.85    0.10
   3   4  12    1.27    0.10
   3   4  12    1.36    0.10
   3   4  12    1.46    0.09
  -3  -4 -12    1.20    0.12
   4   4  13    1.57    0.11
   4   4  13    1.51    0.11
   4   4  13    1.54    0.10
  -4  -4 -13    1.38    0.14
   8  -3  -1    5.11    0.20
   7  -3  -2    0.06    0.04
  -6   3   3    3.36    0.16
   6  -3  -3    3.34    0.13
   6  -3  -3    3.49    0.14
   6  -3  -3    3.28    0.15
  -5   3   4    5.98    0.23
  -5   3   4    6.34    0.20
   5  -3  -4    5.97    0.22
   5  -3  -4    6.40    0.20
   5  -3  -4    6.43    0.21
  -4   3   5    4.63    0.16
  -4   3   5    4.38    0.14
  -4   3   5    4.68    0.18
   4  -3  -5    4.43    0.16
   4  -3  -5    4.49    0.17
   4  -3  -5    4.46    0.18
   4  -3  -5    4.69    0.15
  -3   3   6    1.99    0.10
  -3   3   6    1.91    0.10
  -3   3   6    1.99    0.09
   3  -3  -6    1.92    0.10
   3  -3  -6    1.98    0.08
   3  -3  -6    1.83    0.09
  -2   3   7    4.71    0.18
  -2   3   7    4.93    0.18
  -2   3   7    4.94    0.16
   2  -3  -7    4.79    0.19
   2  -3  -7    4.86    0.17
  -1   3   8    0.81    0.07
  -1   3   8    0.90    0.07
  -1   3   8    1.02    0.06
   1  -3  -8    0.85    0.07
   0   3   9   21.45    0.53
   0   3   9   20.58    0.62
   0   3   9   21.20    0.58
   0  -3  -9   21.07    0.73
   1   3  10   -0.01    0.03
   1   3  10    0.00    0.03
   1   3  10   -0.03    0.03
  -1  -3 -10   -0.04    0.06
   2   3  11    2.33    0.13
   2   3  11    2.43    0.11
   2   3  11    2.43    0.13
  -2  -3 -11    2.37    0.16
   3   3  12    0.05    0.04
   3   3  12    0.01    0.04
   3   3  12   -0.03    0.04
  -3  -3 -12    0.08    0.09
   4   3  13    2.43    0.14
   4   3  13    2.29    0.11
   4   3  13    2.56    0.14
  -4  -3 -13    2.38    0.18
   8  -2  -1    0.62    0.07
   7  -2  -2    0.17    0.04
   7  -2  -2    0.09    0.04
  -6   2   3    1.70    0.11
   6  -2  -3    1.57    0.09
   6  -2  -3    1.72    0.10
   6  -2  -3    1.60    0.09
  -5   2   4    1.15    0.09
  -5   2   4    1.08    0.07
   5  -2  -4    0.76    0.07
   5  -2  -4    1.05    0.07
   5  -2  -4    1.10    0.08
  -4   2   5    0.50    0.05
  -4   2   5    0.43    0.05
  -4   2   5    0.45    0.05
   4  -2  -5    0.44    0.05
   4  -2  -5    0.37    0.04
   4  -2  -5    0.49    0.05
  -3   2   6    4.09    0.15
  -3   2   6    4.02    0.14
  -3   2   6    4.03    0.16
   3  -2  -6    4.10    0.17
   3  -2  -6    4.24    0.13
   3  -2  -6    4.08    0.15
  -2   2   7    8.00    0.28
  -2   2   7    8.18    0.26
  -2   2   7    8.47    0.23
   2  -2  -7    8.56    0.31
   2  -2  -7    8.49    0.25
  -1   2   8    7.68    0.25
  -1   2   8    7.35    0.26
  -1   2   8    7.63    0.22
   1  -2  -8    7.69    0.30
   1  -2  -8    7.80    0.24
   0   2   9   23.91    0.69
   0   2   9   22.63    0.64
   0   2   9   24.02    0.58
   0  -2  -9   23.52    0.81
   1   2  10    4.73    0.16
   1   2  10    4.71    0.18
   1   2  10    4.65    0.19
  -1  -2 -10    4.63    0.22
   2   2  11   10.99    0.31
   2   2  11   10.84    0.37
   2   2  11   11.49    0.35
  -2  -2 -11   11.27    0.45
   3   2  12    1.05    0.09
   3   2  12    0.95    0.07
   3   2  12    1.10    0.10
  -3  -2 -12    1.09    0.12
   4   2  13   -0.02    0.03
   4   2  13   -0.01    0.04
   4   2  13    0.03    0.05
  -4  -2 -13    0.03    0.09
   9  -1   0    1.85    0.11
   8  -1  -1    0.03    0.04
  -7   1   2    0.18    0.06
   7  -1  -2    0.28    0.09
   7  -1  -2    0.39    0.06
   7  -1  -2    0.21    0.05
  -6   1   3   -0.08    0.04
   6  -1  -3   -0.05    0.05
   6  -1  -3   -0.01    0.03
  -5   1   4   44.40    1.28
  -5   1   4   46.05    1.14
   5  -1  -4   44.55    1.48
   5  -1  -4   45.23    1.09
   5  -1  -4   46.52    1.11
  -4   1   5   19.93    0.60
  -4   1   5   20.42    0.55
   4  -1  -5   20.45    0.53
   4  -1  -5   20.82    0.51
   4  -1  -5   19.97    0.69
  -3   1   6    1.46    0.09
  -3   1   6    1.38    0.08
  -3   1   6    1.44    0.07
   3  -1  -6    1.43    0.08
   3  -1  -6    1.42    0.09
   3  -1  -6    1.44    0.06
  -2   1   7    2.12    0.09
  -2   1   7    2.10    0.11
  -2   1   7    2.09    0.10
   2  -1  -7    2.10    0.10
   2  -1  -7    2.19    0.12
  -1   1   8   -0.03    0.02
  -1   1   8   -0.02    0.03
  -1   1   8   -0.03    0.03
   1  -1  -8   -0.01    0.03
   1  -1  -8   -0.02    0.05
   0   1   9    0.03    0.04
   0   1   9    0.10    0.03
   0   1   9    0.16    0.04
   0  -1  -9    0.16    0.05
   0  -1  -9    0.25    0.08
   1   1  10   12.50    0.38
   1   1  10   12.15    0.40
   1   1  10   12.27    0.33
  -1  -1 -10   12.64    0.35
  -1  -1 -10   12.61    0.48
   2   1  11    0.08    0.04
   2   1  11    0.13    0.04
   2   1  11    0.11    0.05
  -2  -1 -11    0.12    0.05
  -2  -1 -11    0.15    0.09
   3   1  12    2.76    0.14
   3   1  12    2.68    0.11
   3   1  12    2.75    0.15
  -3  -1 -12    2.90    0.19
   4   1  13    0.76    0.09
   4   1  13    0.83    0.09
   4   1  13    0.75    0.07
   9   0   0    0.19    0.06
   8   0  -1   -0.07    0.03
   8   0  -1   -0.03    0.04
  -7   0   2    0.35    0.07
   7   0  -2    0.54    0.06
   7   0  -2    0.61    0.11
   7   0  -2    0.39    0.06
  -6   0   3    6.82    0.25
   6   0  -3    6.98    0.28
   6   0  -3    6.86    0.22
   6   0  -3    6.84    0.22
  -5   0   4   11.31    0.37
  -5   0   4   11.68    0.33
   5   0  -4   11.42    0.32
   5   0  -4   11.17    0.42
   5   0  -4   11.50    0.33
  -4   0   5   13.98    0.39
  -4   0   5   13.82    0.43
   4   0  -5   14.27    0.38
   4   0  -5   13.93    0.36
   4   0  -5   13.26    0.49
  -3   0   6    3.48    0.14
  -3   0   6    3.40    0.15
   3   0  -6    3.41    0.14
   3   0  -6    3.61    0.11
   3   0  -6    3.54    0.17
  -2   0   7   11.48    0.37
  -2   0   7   11.34    0.34
  -2   0   7   11.40    0.31
   2   0  -7   11.74    0.43
   2   0  -7   11.45    0.33
  -1   0   8    1.35    0.07
  -1   0   8    1.43    0.09
  -1   0   8    1.46    0.09
   1   0  -8    1.36    0.09
   1   0  -8    1.35    0.10
   0   0   9    1.91    0.11
   0   0   9    1.87    0.09
   0   0   9    1.88    0.11
   0   0  -9    1.93    0.10
   0   0  -9    1.78    0.13
   1   0  10   17.42    0.54
   1   0  10   17.67    0.45
   1   0  10   17.66    0.51
  -1   0 -10   17.85    0.65
  -1   0 -10   17.83    0.47
   2   0  11    0.44    0.07
   2   0  11    0.32    0.06
   2   0  11    0.43    0.05
  -2   0 -11    0.62    0.12
  -2   0 -11    0.43    0.06
   3   0  12    3.27    0.17
   3   0  12    3.46    0.13
   3   0  12    3.50    0.16
  -3   0 -12    3.51    0.21
  -3   0 -12    3.36    0.15
   4   0  13    3.31    0.16
   4   0  13    3.53    0.19
   9   1   0    0.02    0.05
   8   1  -1    0.00    0.04
   8   1  -1   -0.05    0.04
  -7  -1   2    7.11    0.27
   7   1  -2    6.99    0.30
   7   1  -2    7.06    0.23
   7   1  -2    7.31    0.24
  -6  -1   3   55.33    1.55
   6   1  -3   56.52    1.35
   6   1  -3   54.31    1.32
   6   1  -3   54.96    1.81
  -5  -1   4    3.04    0.13
  -5  -1   4    3.21    0.15
   5   1  -4    3.21    0.17
   5   1  -4    3.15    0.14
   5   1  -4    3.22    0.12
  -4  -1   5    7.89    0.27
  -4  -1   5    7.67    0.25
   4   1  -5    8.08    0.22
   4   1  -5    7.68    0.24
   4   1  -5    7.68    0.31
  -3  -1   6    0.50    0.06
  -3  -1   6    0.52    0.05
   3   1  -6    0.64    0.04
   3   1  -6    0.58    0.06
   3   1  -6    0.51    0.07
  -2  -1   7   20.68    0.61
  -2  -1   7   19.72    0.56
   2   1  -7   20.66    0.53
   2   1  -7   21.11    0.72
  -1  -1   8   14.25    0.45
  -1  -1   8   14.54    0.37
  -1  -1   8   14.08    0.42
   1   1  -8   14.64    0.53
   1   1  -8   14.41    0.40
   0  -1   9    2.10    0.12
   0  -1   9    2.05    0.11
   0  -1   9    2.15    0.10
   0   1  -9    2.15    0.11
   0   1  -9    2.12    0.14
   1  -1  10    6.18    0.25
   1  -1  10    6.93    0.24
   1  -1  10    6.75    0.20
  -1   1 -10    6.49    0.30
  -1   1 -10    6.71    0.22
   2  -1  11    1.24    0.10
   2  -1  11    1.22    0.09
   2  -1  11    1.36    0.08
  -2   1 -11    1.31    0.09
  -2   1 -11    1.49    0.13
   3  -1  12    0.67    0.08
   3  -1  12    0.65    0.08
   4  -1  13    3.47    0.17
   4  -1  13    3.48    0.19
   9   2   0    0.55    0.07
   9   2   0    0.63    0.07
   8   2  -1    5.52    0.20
   8   2  -1    5.75    0.21
  -7  -2   2   18.76    0.59
   7   2  -2   18.56    0.69
   7   2  -2   19.54    0.52
   7   2  -2   19.41    0.51
  -6  -2   3    0.08    0.05
   6   2  -3    0.06    0.08
   6   2  -3    0.03    0.04
   6   2  -3    0.04    0.04
  -5  -2   4    2.39    0.12
  -5  -2   4    2.30    0.11
   5   2  -4    2.09    0.14
   5   2  -4    2.24    0.11
   5   2  -4    2.31    0.10
  -4  -2   5    4.79    0.19
  -4  -2   5    4.55    0.17
   4   2  -5    4.76    0.15
   4   2  -5    4.56    0.22
   4   2  -5    4.49    0.17
  -3  -2   6    0.86    0.07
  -3  -2   6    0.86    0.07
   3   2  -6    0.79    0.07
   3   2  -6    0.91    0.09
   3   2  -6    0.87    0.05
  -2  -2   7    0.10    0.04
  -2  -2   7    0.21    0.05
   2   2  -7    0.31    0.08
   2   2  -7    0.26    0.05
  -1  -2   8   14.51    0.44
  -1  -2   8   14.58    0.46
   1   2  -8   15.11    0.41
   1   2  -8   15.34    0.56
   0  -2   9   52.19    1.38
   0  -2   9   53.24    1.51
   0   2  -9   54.71    1.79
   0   2  -9   54.89    1.29
   1  -2  10   24.18    0.67
   1  -2  10   22.88    0.72
  -1   2 -10   24.55    0.61
  -1   2 -10   23.97    0.86
   2  -2  11   16.34    0.48
   2  -2  11   15.02    0.52
  -2   2 -11   16.53    0.63
  -2   2 -11   16.90    0.44
   3  -2  12    0.97    0.10
   3  -2  12    0.94    0.09
   8   3  -1    6.60    0.23
   8   3  -1    6.79    0.23
  -7  -3   2    0.26    0.06
   7   3  -2    0.22    0.05
   7   3  -2    0.22    0.09
   7   3  -2    0.20    0.05
  -6  -3   3    3.20    0.13
  -6  -3   3    3.09    0.15
   6   3  -3    3.23    0.13
   6   3  -3    2.99    0.18
   6   3  -3    3.29    0.14
  -5  -3   4    9.74    0.32
  -5  -3   4    9.09    0.29
   5   3  -4    9.29    0.29
   5   3  -4    9.84    0.28
   5   3  -4    9.13    0.38
  -4  -3   5    0.33    0.05
  -4  -3   5    0.34    0.05
   4   3  -5    0.34    0.05
   4   3  -5    0.38    0.04
   4   3  -5    0.51    0.10
  -3  -3   6   38.63    1.09
  -3  -3   6   37.88    1.00
   3   3  -6   38.54    1.30
   3   3  -6   38.17    0.94
  -2  -3   7    8.66    0.29
  -2  -3   7    8.95    0.31
   2   3  -7    9.20    0.37
   2   3  -7    9.08    0.27
  -1  -3   8   17.44    0.54
  -1  -3   8   17.36    0.51
   1   3  -8   17.94    0.47
   1   3  -8   17.59    0.65
   0  -3   9    0.69    0.08
   0  -3   9    0.80    0.08
   0   3  -9    0.97    0.08
   0   3  -9    0.85    0.11
   1  -3  10    1.21    0.09
   1  -3  10    1.46    0.10
  -1   3 -10    1.21    0.13
  -1   3 -10    1.16    0.09
   2  -3  11    2.30    0.13
   2  -3  11    2.19    0.13
   3  -3  12    3.87    0.18
   3  -3  12    3.61    0.19
   8   4  -1    3.18    0.15
   8   4  -1    3.01    0.14
  -7  -4   2    0.01    0.05
   7   4  -2    0.08    0.04
   7   4  -2    0.01    0.04
   7   4  -2    0.04    0.09
  -6  -4   3    1.78    0.10
  -6  -4   3    1.76    0.11
   6   4  -3    1.63    0.13
   6   4  -3    1.72    0.09
   6   4  -3    1.70    0.10
  -5  -4   4    1.26    0.09
  -5  -4   4    1.32    0.09
   5   4  -4    1.24    0.09
   5   4  -4    1.25    0.11
   5   4  -4    1.35    0.08
  -4  -4   5    4.26    0.17
  -4  -4   5    4.31    0.18
   4   4  -5    4.24    0.15
   4   4  -5    4.33    0.17
   4   4  -5    4.18    0.22
  -3  -4   6    2.95    0.14
  -3  -4   6    2.81    0.14
   3   4  -6    2.95    0.18
   3   4  -6    2.91    0.14
  -2  -4   7    0.55    0.06
  -2  -4   7    0.52    0.07
   2   4  -7    0.63    0.06
   2   4  -7    0.81    0.12
  -1  -4   8    2.55    0.13
  -1  -4   8    2.45    0.13
   1   4  -8    2.36    0.12
   1   4  -8    2.38    0.16
   0  -4   9    1.68    0.11
   0  -4   9    1.75    0.11
   0   4  -9    1.85    0.10
   0   4  -9    1.79    0.15
   1  -4  10    3.76    0.18
   1  -4  10    3.71    0.18
  -1   4 -10    4.03    0.15
   2  -4  11    1.38    0.11
   2  -4  11    1.15    0.11
   8   5  -1    5.21    0.21
   8   5  -1    5.12    0.20
  -7  -5   2    1.41    0.10
   7   5  -2    1.35    0.10
   7   5  -2    1.34    0.13
   7   5  -2    1.40    0.10
  -6  -5   3    3.17    0.15
  -6  -5   3    2.87    0.14
   6   5  -3    2.85    0.18
   6   5  -3    3.03    0.14
   6   5  -3    3.17    0.14
  -5  -5   4    0.04    0.04
  -5  -5   4    0.07    0.04
   5   5  -4    0.03    0.08
   5   5  -4    0.07    0.04
   5   5  -4    0.05    0.03
  -4  -5   5    7.53    0.26
  -4  -5   5    7.25    0.26
   4   5  -5    7.75    0.23
   4   5  -5    7.02    0.24
   4   5  -5    7.19    0.33
  -3  -5   6    3.03    0.15
  -3  -5   6    3.00    0.14
   3   5  -6    3.00    0.14
   3   5  -6    3.04    0.19
  -2  -5   7   12.22    0.39
  -2  -5   7   12.26    0.40
   2   5  -7   12.67    0.36
   2   5  -7   12.70    0.50
  -1  -5   8   -0.01    0.04
  -1  -5   8    0.04    0.04
   1   5  -8    0.09    0.08
   1   5  -8    0.03    0.04
   0  -5   9    2.89    0.15
   0  -5   9    2.85    0.15
   0   5  -9    2.93    0.13
   1  -5  10    0.11    0.05
   1  -5  10    0.10    0.05
   2  -5  11    0.97    0.10
   2  -5  11    1.03    0.11
  -7  -6   2    7.55    0.27
   7   6  -2    6.87    0.25
   7   6  -2    7.02    0.25
  -6  -6   3    0.28    0.06
  -6  -6   3    0.42    0.06
   6   6  -3    0.33    0.06
   6   6  -3    0.48    0.12
   6   6  -3    0.41    0.06
  -5  -6   4    5.05    0.20
  -5  -6   4    5.22    0.20
   5   6  -4    5.20    0.18
   5   6  -4    4.89    0.26
   5   6  -4    4.61    0.19
  -4  -6   5    0.09    0.05
  -4  -6   5    0.15    0.05
   4   6  -5    0.20    0.04
   4   6  -5    0.21    0.05
   4   6  -5    0.24    0.10
  -3  -6   6    0.56    0.08
  -3  -6   6    0.47    0.07
   3   6  -6    0.74    0.10
   3   6  -6    0.66    0.07
  -2  -6   7    5.84    0.23
  -2  -6   7    5.99    0.24
   2   6  -7    6.03    0.21
  -1  -6   8    9.05    0.32
  -1  -6   8    8.96    0.32
   1   6  -8    9.62    0.29
   0  -6   9    0.09    0.05
   0  -6   9    0.10    0.05
   0   6  -9    0.09    0.04
   1  -6  10    0.93    0.09
   1  -6  10    0.92    0.10
  -6  -7   3    0.79    0.08
   6   7  -3    0.77    0.08
   6   7  -3    0.83    0.07
  -5  -7   4   -0.01    0.04
   5   7  -4    0.08    0.04
   5   7  -4    0.03    0.04
  -4  -7   5    1.83    0.13
  -4  -7   5    2.03    0.12
   4   7  -5    1.96    0.12
   4   7  -5    2.05    0.11
  -3  -7   6    6.24    0.23
  -3  -7   6    6.07    0.24
   3   7  -6    5.95    0.22
  -2  -7   7    0.46    0.08
  -2  -7   7    0.46    0.07
   2   7  -7    0.52    0.07
  -1  -7   8    4.69    0.21
  -1  -7   8    4.63    0.20
   1   7  -8    4.49    0.18
   0  -7   9    0.68    0.09
   0  -7   9    0.63    0.08
  -4  -8   5    7.28    0.28
   4   8  -5    6.78    0.25
  -3  -8   6    0.93    0.10
   3   8  -6    0.96    0.09
  -2  -8   7   -0.06    0.05
  -3   9   7    0.92    0.08
   3  -9  -7    0.94    0.09
   3  -9  -7    0.80    0.06
  -2   9   8    1.73    0.10
   2  -9  -8    1.60    0.10
   2  -9  -8    1.77    0.12
  -1   9   9    0.02    0.04
  -1   9   9    0.06    0.05
   1  -9  -9   -0.02    0.04
   1  -9  -9   -0.06    0.06
   0   9  10    0.31    0.06
   0   9  10    0.21    0.06
   0  -9 -10    0.40    0.10
   0  -9 -10    0.22    0.06
  -5   8   5   -0.02    0.04
   5  -8  -5    0.04    0.04
  -4   8   6    0.08    0.04
   4  -8  -6    0.05    0.04
  -3   8   7    4.05    0.15
  -3   8   7    4.02    0.17
   3  -8  -7    4.10    0.17
   3  -8  -7    3.82    0.15
  -2   8   8    2.53    0.12
  -2   8   8    2.32    0.13
   2  -8  -8    2.25    0.13
   2  -8  -8    2.42    0.12
  -1   8   9    9.55    0.28
  -1   8   9    9.30    0.31
   1  -8  -9    9.12    0.35
   1  -8  -9    9.06    0.31
   0   8  10    1.27    0.09
   0   8  10    1.39    0.11
   0  -8 -10    1.15    0.10
   0  -8 -10    1.37    0.10
   1   8  11    0.10    0.05
   1   8  11    0.14    0.06
  -1  -8 -11    0.14    0.05
  -1  -8 -11    0.13    0.09
  -6   7   4    0.04    0.05
   6  -7  -4   -0.02    0.03
  -5   7   5    0.03    0.05
   5  -7  -5    0.01    0.04
  -4   7   6    2.94    0.12
  -4   7   6    2.80    0.13
   4  -7  -6    2.94    0.14
   4  -7  -6    2.99    0.12
   4  -7  -6    2.82    0.13
  -3   7   7    1.02    0.08
  -3   7   7    1.00    0.07
   3  -7  -7    1.12    0.08
  -2   7   8    0.01    0.04
  -2   7   8    0.04    0.04
   2  -7  -8    0.01    0.04
   2  -7  -8    0.01    0.04
  -1   7   9    1.49    0.09
  -1   7   9    1.35    0.10
   1  -7  -9    1.42    0.10
   1  -7  -9    1.38    0.10
   0   7  10    0.29    0.05
   0   7  10    0.25    0.06
   0  -7 -10    0.17    0.05
   0  -7 -10    0.51    0.09
   1   7  11    0.35    0.06
   1   7  11    0.49    0.06
  -1  -7 -11    0.55    0.11
  -1  -7 -11    0.41    0.06
   2   7  12    0.09    0.05
   2   7  12    0.02    0.05
  -2  -7 -12    0.07    0.05
  -2  -7 -12    0.13    0.10
   6  -6  -4    0.70    0.07
  -5   6   5    1.84    0.09
  -5   6   5    1.70    0.11
   5  -6  -5    1.64    0.09
   5  -6  -5    1.74    0.10
  -4   6   6    1.63    0.09
  -4   6   6    1.73    0.10
  -4   6   6    1.66    0.10
  -4   6   6    1.67    0.10
   4  -6  -6    1.61    0.10
   4  -6  -6    1.67    0.09
   4  -6  -6    1.75    0.10
  -3   6   7    0.74    0.07
  -3   6   7    0.71    0.06
  -3   6   7    0.72    0.07
   3  -6  -7    0.87    0.08
  -2   6   8    0.94    0.09
  -2   6   8    0.95    0.07
  -2   6   8    1.01    0.08
   2  -6  -8    0.98    0.07
   2  -6  -8    0.95    0.08
  -1   6   9    4.00    0.16
  -1   6   9    3.73    0.14
  -1   6   9    3.63    0.16
   1  -6  -9    3.87    0.17
   1  -6  -9    3.65    0.16
   0   6  10    0.62    0.07
   0   6  10    0.64    0.06
   0   6  10    0.66    0.07
   0  -6 -10    0.69    0.08
   1   6  11    0.04    0.04
   1   6  11    0.00    0.04
  -1  -6 -11   -0.01    0.07
   2   6  12   11.12    0.32
   2   6  12   10.94    0.36
  -2  -6 -12   10.37    0.44
  -2  -6 -12   11.25    0.35
   7  -5  -3   -0.05    0.03
  -6   5   4    0.74    0.08
   6  -5  -4    0.82    0.07
   6  -5  -4    0.71    0.05
  -5   5   5    7.06    0.21
  -5   5   5    7.03    0.26
   5  -5  -5    7.09    0.23
   5  -5  -5    6.88    0.23
   5  -5  -5    7.00    0.22
  -4   5   6    3.52    0.15
  -4   5   6    3.64    0.13
  -4   5   6    3.46    0.16
   4  -5  -6    3.82    0.15
   4  -5  -6    3.87    0.13
   4  -5  -6    3.71    0.15
  -3   5   7    0.17    0.05
  -3   5   7    0.19    0.04
  -3   5   7    0.15    0.04
   3  -5  -7    0.06    0.04
   3  -5  -7    0.24    0.04
  -2   5   8    0.78    0.07
  -2   5   8    0.90    0.07
  -2   5   8    0.84    0.08
   2  -5  -8    0.85    0.06
  -1   5   9    0.34    0.06
  -1   5   9    0.32    0.05
  -1   5   9    0.31    0.05
   1  -5  -9    0.46    0.08
   0   5  10    2.44    0.12
   0   5  10    2.29    0.11
   0   5  10    2.35    0.13
   0  -5 -10    2.39    0.14
   1   5  11    0.02    0.04
   1   5  11    0.02    0.04
   1   5  11    0.02    0.04
  -1  -5 -11    0.05    0.07
   2   5  12    0.46    0.06
   2   5  12    0.31    0.06
   2   5  12    0.46    0.07
  -2  -5 -12    0.67    0.13
   3   5  13   -0.03    0.04
   3   5  13   -0.06    0.05
   3   5  13    0.02    0.04
  -3  -5 -13    0.19    0.10
   7  -4  -3    0.63    0.07
  -6   4   4    0.00    0.04
   6  -4  -4    0.00    0.04
   6  -4  -4    0.05    0.04
   6  -4  -4   -0.01    0.03
  -5   4   5    0.86    0.07
  -5   4   5    0.85    0.06
  -5   4   5    0.86    0.08
   5  -4  -5    0.89    0.08
   5  -4  -5    0.88    0.07
   5  -4  -5    0.82    0.05
  -4   4   6    0.30    0.04
  -4   4   6    0.19    0.04
  -4   4   6    0.30    0.05
   4  -4  -6    0.24    0.03
   4  -4  -6    0.26    0.05
   4  -4  -6    0.22    0.05
   4  -4  -6    0.33    0.04
  -3   4   7    2.61    0.13
  -3   4   7    2.79    0.12
  -3   4   7    2.58    0.11
   3  -4  -7    2.61    0.11
   3  -4  -7    2.59    0.12
  -2   4   8    0.86    0.07
  -2   4   8    0.73    0.06
  -2   4   8    0.79    0.07
   2  -4  -8    0.75    0.06
  -1   4   9    2.74    0.13
  -1   4   9    2.69    0.11
  -1   4   9    2.85    0.13
   1  -4  -9    2.74    0.14
   0   4  10    1.50    0.10
   0   4  10    1.50    0.09
   0   4  10    1.37    0.09
   0  -4 -10    1.36    0.11
   1   4  11    2.25    0.11
   1   4  11    2.25    0.13
   1   4  11    2.45    0.13
  -1  -4 -11    2.33    0.15
   2   4  12    5.88    0.20
   2   4  12    5.97    0.23
   2   4  12    6.02    0.23
  -2  -4 -12    5.92    0.28
   3   4  13    0.55    0.07
   3   4  13    0.44    0.07
   3   4  13    0.51    0.06
  -3  -4 -13    0.66    0.13
   8  -3  -2    0.77    0.07
   7  -3  -3    0.02    0.04
  -6   3   4    0.27    0.06
   6  -3  -4    0.45    0.07
   6  -3  -4    0.35    0.05
   6  -3  -4    0.27    0.05
  -5   3   5    6.62    0.25
  -5   3   5    6.92    0.22
   5  -3  -5    6.66    0.22
   5  -3  -5    6.93    0.21
   5  -3  -5    6.36    0.25
  -4   3   6    3.33    0.14
  -4   3   6    3.31    0.15
  -4   3   6    3.36    0.12
   4  -3  -6    3.52    0.14
   4  -3  -6    3.24    0.14
  -3   3   7    0.85    0.06
  -3   3   7    0.74    0.06
  -3   3   7    0.65    0.07
   3  -3  -7    0.79    0.06
   3  -3  -7    0.69    0.07
  -2   3   8    1.75    0.10
  -2   3   8    1.71    0.08
  -2   3   8    1.62    0.10
   2  -3  -8    1.68    0.10
   2  -3  -8    1.64    0.10
  -1   3   9    1.29    0.09
  -1   3   9    1.24    0.07
  -1   3   9    1.26    0.09
   1  -3  -9    1.22    0.09
   0   3  10    1.27    0.09
   0   3  10    1.37    0.08
   0   3  10    1.35    0.09
   0  -3 -10    1.31    0.10
   1   3  11    2.52    0.13
   1   3  11    2.54    0.11
   1   3  11    2.54    0.13
  -1  -3 -11    2.55    0.16
   2   3  12    0.27    0.06
   2   3  12    0.22    0.05
   2   3  12    0.38    0.05
  -2  -3 -12    0.51    0.12
   3   3  13    0.00    0.05
   3   3  13    0.03    0.04
   3   3  13    0.06    0.04
  -3  -3 -13   -0.09    0.08
   8  -2  -2    0.44    0.06
  -7   2   3    0.11    0.05
   7  -2  -3    0.09    0.04
   7  -2  -3    0.00    0.04
   7  -2  -3    0.06    0.07
  -6   2   4    2.25    0.13
   6  -2  -4    2.44    0.11
   6  -2  -4    2.34    0.12
   6  -2  -4    2.34    0.12
  -5   2   5    0.02    0.04
  -5   2   5   -0.07    0.03
   5  -2  -5   -0.01    0.04
   5  -2  -5    0.04    0.05
   5  -2  -5   -0.05    0.03
  -4   2   6    2.69    0.13
  -4   2   6    2.92    0.12
  -4   2   6    2.92    0.11
   4  -2  -6    2.86    0.13
   4  -2  -6    2.71    0.13
  -3   2   7    0.00    0.04
  -3   2   7    0.15    0.04
  -3   2   7    0.06    0.03
   3  -2  -7    0.17    0.05
   3  -2  -7    0.13    0.05
  -2   2   8    9.44    0.29
  -2   2   8    9.38    0.31
  -2   2   8    9.21    0.26
   2  -2  -8    9.40    0.28
   2  -2  -8    9.17    0.35
  -1   2   9   -0.02    0.03
  -1   2   9    0.03    0.03
  -1   2   9   -0.01    0.04
   1  -2  -9    0.00    0.04
   1  -2  -9    0.03    0.06
   0   2  10    2.28    0.10
   0   2  10    2.30    0.12
   0   2  10    2.23    0.12
   0  -2 -10    2.20    0.12
   0  -2 -10    2.64    0.15
   1   2  11    9.39    0.28
   1   2  11    9.63    0.32
   1   2  11   10.17    0.34
  -1  -2 -11    9.96    0.40
   2   2  12    5.51    0.21
   2   2  12    4.99    0.21
   2   2  12    4.76    0.17
  -2  -2 -12    4.93    0.26
   3   2  13    4.13    0.18
   3   2  13    4.05    0.15
   3   2  13    3.99    0.19
  -3  -2 -13    3.94    0.23
   8  -1  -2    0.08    0.04
  -7   1   3    3.31    0.17
   7  -1  -3    3.29    0.14
   7  -1  -3    3.22    0.14
   7  -1  -3    3.11    0.17
  -6   1   4    4.47    0.20
   6  -1  -4    4.82    0.17
   6  -1  -4    4.75    0.21
   6  -1  -4    5.13    0.18
  -5   1   5   20.83    0.65
  -5   1   5   23.98    0.59
   5  -1  -5   21.71    0.56
   5  -1  -5   21.13    0.74
   5  -1  -5   20.73    0.56
  -4   1   6    4.29    0.18
   4  -1  -6    4.42    0.17
   4  -1  -6    4.31    0.19
  -3   1   7    2.74    0.13
  -3   1   7    2.93    0.11
  -3   1   7    2.90    0.13
   3  -1  -7    2.86    0.13
   3  -1  -7    3.02    0.15
  -2   1   8    3.93    0.14
  -2   1   8    3.79    0.16
  -2   1   8    3.69    0.16
   2  -1  -8    3.81    0.15
   2  -1  -8    3.78    0.18
  -1   1   9    7.35    0.27
  -1   1   9    7.69    0.22
  -1   1   9    7.23    0.25
   1  -1  -9    7.45    0.31
   1  -1  -9    7.78    0.25
   0   1  10    7.19    0.21
   0   1  10    7.27    0.25
   0   1  10    6.79    0.26
   0  -1 -10    6.89    0.30
   0  -1 -10    7.16    0.23
   1   1  11   11.23    0.36
   1   1  11   11.27    0.38
   1   1  11   11.37    0.31
  -1  -1 -11   11.33    0.46
  -1  -1 -11   11.71    0.34
   2   1  12    0.10    0.04
   2   1  12    0.05    0.05
   2   1  12    0.05    0.04
  -2  -1 -12   -0.01    0.08
  -2  -1 -12   -0.04    0.04
   3   1  13    0.06    0.05
   3   1  13    0.07    0.06
   3   1  13    0.12    0.04
  -3  -1 -13    0.18    0.11
  -3  -1 -13    0.06    0.05
   8   0  -2    1.00    0.08
   8   0  -2    1.00    0.09
  -7   0   3    7.39    0.28
   7   0  -3    7.58    0.24
   7   0  -3    7.42    0.24
   7   0  -3    7.17    0.31
  -6   0   4    1.40    0.10
   6   0  -4    1.41    0.09
   6   0  -4    1.35    0.11
   6   0  -4    1.30    0.10
  -5   0   5    4.65    0.17
  -5   0   5    4.53    0.19
   5   0  -5    4.88    0.16
   5   0  -5    4.92    0.18
   5   0  -5    4.62    0.21
  -4   0   6    0.75    0.06
  -4   0   6    0.81    0.07
   4   0  -6    0.87    0.07
   4   0  -6    0.62    0.07
  -3   0   7    0.13    0.04
  -3   0   7    0.21    0.04
   3   0  -7    0.12    0.04
   3   0  -7    0.37    0.08
  -2   0   8    1.32    0.10
  -2   0   8    1.57    0.08
  -2   0   8    1.47    0.09
   2   0  -8    1.48    0.10
   2   0  -8    1.47    0.11
  -1   0   9   26.42    0.73
  -1   0   9   27.82    0.67
  -1   0   9   26.51    0.80
   1   0  -9   27.73    0.69
   1   0  -9   27.40    0.94
   0   0  10    8.34    0.29
   0   0  10    8.10    0.24
   0   0  10    7.96    0.28
   0   0 -10    8.09    0.35
   0   0 -10    8.29    0.26
   1   0  11    4.26    0.19
   1   0  11    4.36    0.16
   1   0  11    4.48    0.19
  -1   0 -11    4.58    0.24
  -1   0 -11    4.68    0.18
   2   0  12    5.42    0.18
   2   0  12    5.19    0.21
   2   0  12    5.38    0.23
  -2   0 -12    5.56    0.20
  -2   0 -12    5.56    0.28
   3   0  13    2.49    0.14
   3   0  13    2.37    0.11
   3   0  13    2.42    0.15
  -3   0 -13    2.46    0.13
  -3   0 -13    2.45    0.18
  -8  -1   2    0.70    0.08
   8   1  -2    0.72    0.08
   8   1  -2    0.72    0.07
  -7  -1   3    5.80    0.23
   7   1  -3    5.78    0.20
   7   1  -3    5.74    0.26
   7   1  -3    5.81    0.21
  -6  -1   4    0.01    0.04
   6   1  -4    0.00    0.07
   6   1  -4    0.00    0.03
   6   1  -4    0.02    0.04
  -5  -1   5    0.14    0.05
  -5  -1   5    0.12    0.04
   5   1  -5    0.11    0.04
   5   1  -5    0.11    0.03
   5   1  -5    0.11    0.08
  -4  -1   6    0.64    0.07
  -4  -1   6    0.62    0.06
   4   1  -6    0.56    0.07
   4   1  -6    0.55    0.08
  -3  -1   7    7.33    0.26
  -3  -1   7    7.07    0.24
   3   1  -7    7.35    0.24
   3   1  -7    7.46    0.30
  -2  -1   8   11.56    0.38
  -2  -1   8   11.43    0.36
   2   1  -8   12.06    0.45
   2   1  -8   12.00    0.35
  -1  -1   9   18.28    0.54
  -1  -1   9   18.77    0.58
   1   1  -9   19.72    0.51
   1   1  -9   19.26    0.69
   0  -1  10   10.89    0.37
   0  -1  10   11.16    0.31
   0  -1  10   11.00    0.35
   0   1 -10   11.09    0.45
   0   1 -10   11.22    0.33
   1  -1  11    0.05    0.05
   1  -1  11    0.14    0.05
   1  -1  11    0.19    0.04
  -1   1 -11    0.15    0.05
  -1   1 -11    0.32    0.11
   2  -1  12    3.12    0.12
   2  -1  12    2.95    0.17
   2  -1  12    3.15    0.16
  -2   1 -12    3.16    0.21
  -2   1 -12    3.27    0.15
   3  -1  13    0.82    0.10
   3  -1  13    0.92    0.09
  -8  -2   2    0.76    0.09
   8   2  -2    0.90    0.09
   8   2  -2    0.84    0.08
  -7  -2   3    0.21    0.06
   7   2  -3    0.33    0.10
   7   2  -3    0.19    0.05
   7   2  -3    0.15    0.06
  -6  -2   4    0.18    0.05
   6   2  -4    0.17    0.05
   6   2  -4    0.15    0.09
   6   2  -4    0.17    0.04
  -5  -2   5    1.83    0.10
  -5  -2   5    1.69    0.11
   5   2  -5    1.71    0.13
   5   2  -5    1.68    0.10
   5   2  -5    1.72    0.09
  -4  -2   6    7.88    0.26
  -4  -2   6    8.05    0.28
   4   2  -6    7.82    0.33
   4   2  -6    7.78    0.25
  -3  -2   7    4.91    0.20
  -3  -2   7    4.76    0.19
   3   2  -7    4.96    0.23
   3   2  -7    4.99    0.19
  -2  -2   8    0.50    0.07
  -2  -2   8    0.50    0.06
   2   2  -8    0.81    0.12
   2   2  -8    0.57    0.07
  -1  -2   9    0.06    0.04
  -1  -2   9    0.11    0.05
   1   2  -9    0.14    0.09
   1   2  -9    0.09    0.04
   0  -2  10    3.08    0.15
   0  -2  10    2.81    0.15
   0   2 -10    3.17    0.14
   0   2 -10    2.87    0.18
   1  -2  11    0.03    0.05
   1  -2  11    0.06    0.04
  -1   2 -11    0.09    0.09
  -1   2 -11    0.04    0.04
   2  -2  12    5.40    0.22
   2  -2  12    5.18    0.23
  -2   2 -12    5.21    0.20
  -8  -3   2    0.70    0.08
   8   3  -2    0.87    0.08
   8   3  -2    0.88    0.09
  -7  -3   3    1.24    0.10
   7   3  -3    1.29    0.09
   7   3  -3    1.17    0.09
   7   3  -3    1.32    0.12
  -6  -3   4    1.02    0.09
  -6  -3   4    0.79    0.08
   6   3  -4    0.94    0.09
   6   3  -4    1.00    0.07
   6   3  -4    1.13    0.11
  -5  -3   5    0.29    0.05
  -5  -3   5    0.21    0.05
   5   3  -5    0.35    0.09
   5   3  -5    0.21    0.05
   5   3  -5    0.20    0.04
  -4  -3   6    0.15    0.05
  -4  -3   6    0.15    0.04
   4   3  -6    0.15    0.05
   4   3  -6    0.21    0.08
  -3  -3   7    0.07    0.05
  -3  -3   7    0.06    0.04
   3   3  -7    0.10    0.04
   3   3  -7    0.21    0.09
  -2  -3   8    5.84    0.23
  -2  -3   8    5.89    0.23
   2   3  -8    6.08    0.22
   2   3  -8    6.60    0.29
  -1  -3   9    6.22    0.24
  -1  -3   9    5.71    0.23
   1   3  -9    6.27    0.29
   1   3  -9    6.44    0.22
   0  -3  10    2.72    0.15
   0  -3  10    2.94    0.15
   0   3 -10    3.06    0.19
   0   3 -10    2.85    0.14
   1  -3  11    0.01    0.05
   1  -3  11   -0.06    0.03
  -1   3 -11    0.05    0.10
  -1   3 -11    0.03    0.04
   2  -3  12    5.88    0.26
   2  -3  12    6.20    0.25
  -8  -4   2    0.00    0.05
   8   4  -2    0.00    0.05
  -7  -4   3    4.72    0.21
   7   4  -3    4.62    0.19
   7   4  -3    4.88    0.18
   7   4  -3    4.68    0.25
  -6  -4   4    0.64    0.07
  -6  -4   4    0.74    0.07
   6   4  -4    0.68    0.09
   6   4  -4    0.64    0.07
   6   4  -4    0.75    0.07
  -5  -4   5    7.58    0.26
  -5  -4   5    7.85    0.28
   5   4  -5    8.14    0.24
   5   4  -5    7.46    0.26
   5   4  -5    7.59    0.34
  -4  -4   6    0.80    0.08
  -4  -4   6    0.68    0.08
   4   4  -6    0.63    0.07
   4   4  -6    0.71    0.10
  -3  -4   7    0.22    0.05
  -3  -4   7    0.15    0.05
   3   4  -7    0.25    0.10
   3   4  -7    0.17    0.05
  -2  -4   8    4.82    0.20
  -2  -4   8    4.90    0.20
   2   4  -8    4.71    0.18
   2   4  -8    4.71    0.25
  -1  -4   9    2.81    0.15
  -1  -4   9    2.71    0.15
   1   4  -9    2.72    0.14
   1   4  -9    3.05    0.19
   0  -4  10    1.05    0.09
   0  -4  10    1.11    0.10
   0   4 -10    1.10    0.13
   0   4 -10    1.07    0.08
   1  -4  11    2.90    0.15
   1  -4  11    2.46    0.15
  -7  -5   3    3.06    0.15
   7   5  -3    2.87    0.19
   7   5  -3    2.88    0.15
   7   5  -3    2.93    0.14
  -6  -5   4    0.61    0.07
  -6  -5   4    0.50    0.07
   6   5  -4    0.91    0.14
   6   5  -4    0.69    0.07
   6   5  -4    0.68    0.08
  -5  -5   5    2.94    0.15
  -5  -5   5    3.17    0.15
   5   5  -5    3.16    0.15
   5   5  -5    3.13    0.20
  -4  -5   6    0.87    0.09
  -4  -5   6    1.02    0.09
   4   5  -6    1.04    0.12
   4   5  -6    1.04    0.09
  -3  -5   7    3.54    0.16
  -3  -5   7    3.57    0.17
   3   5  -7    3.55    0.16
   3   5  -7    3.89    0.22
  -2  -5   8    2.21    0.13
  -2  -5   8    2.06    0.12
   2   5  -8    2.28    0.13
   2   5  -8    2.13    0.16
  -1  -5   9    4.73    0.21
  -1  -5   9    4.92    0.21
   1   5  -9    5.02    0.19
   0  -5  10    0.77    0.09
   0  -5  10    0.66    0.08
   0   5 -10    0.84    0.08
  -6  -6   4    1.34    0.10
  -6  -6   4    1.28    0.10
   6   6  -4    1.43    0.11
   6   6  -4    1.39    0.09
   6   6  -4    1.40    0.14
  -5  -6   5   -0.01    0.04
  -5  -6   5   -0.03    0.04
   5   6  -5    0.03    0.09
   5   6  -5    0.03    0.05
  -4  -6   6    4.10    0.19
  -4  -6   6    4.40    0.19
   4   6  -6    4.46    0.25
   4   6  -6    4.16    0.18
  -3  -6   7    0.30    0.07
  -3  -6   7    0.47    0.07
   3   6  -7    0.44    0.07
  -2  -6   8    4.24    0.19
  -2  -6   8    4.14    0.20
   2   6  -8    4.02    0.17
  -1  -6   9    2.66    0.14
  -1  -6   9    2.83    0.16
   1   6  -9    2.69    0.14
  -4  -7   6    2.99    0.17
  -4  -7   6    3.12    0.15
   4   7  -6    2.82    0.15
  -3  -7   7    0.00    0.05
  -3  -7   7    0.01    0.06
   3   7  -7   -0.01    0.05
  -3   8   8    3.51    0.16
  -3   8   8    3.60    0.14
   3  -8  -8    3.19    0.14
   3  -8  -8    3.49    0.16
  -2   8   9    0.69    0.08
  -2   8   9    0.64    0.07
   2  -8  -9    0.53    0.07
   2  -8  -9    0.59    0.07
  -1   8  10    1.33    0.09
  -1   8  10    1.11    0.10
   1  -8 -10    1.15    0.10
   1  -8 -10    1.25    0.10
  -4   7   7    0.47    0.06
  -4   7   7    0.42    0.07
   4  -7  -7    0.46    0.07
   4  -7  -7    0.59    0.07
  -3   7   8    0.04    0.04
  -3   7   8   -0.05    0.05
   3  -7  -8    0.04    0.04
   3  -7  -8    0.01    0.05
  -2   7   9    3.73    0.15
  -2   7   9    3.82    0.17
   2  -7  -9    3.82    0.17
   2  -7  -9    3.46    0.16
  -1   7  10    0.22    0.05
  -1   7  10    0.11    0.05
   1  -7 -10    0.03    0.05
   1  -7 -10    0.19    0.08
   0   7  11    0.44    0.07
   0   7  11    0.40    0.06
   0  -7 -11    0.52    0.11
   0  -7 -11    0.42    0.07
   1   7  12    0.37    0.07
   1   7  12    0.34    0.06
  -1  -7 -12    0.81    0.13
  -1  -7 -12    0.42    0.07
   6  -6  -5   -0.03    0.04
  -5   6   6    0.37    0.05
  -5   6   6    0.38    0.07
   5  -6  -6    0.46    0.07
  -4   6   7    0.23    0.06
  -4   6   7    0.21    0.05
  -4   6   7    0.20    0.05
   4  -6  -7    0.14    0.05
   4  -6  -7    0.14    0.05
  -3   6   8    0.12    0.04
  -3   6   8    0.09    0.05
  -3   6   8    0.14    0.05
   3  -6  -8    0.17    0.05
   3  -6  -8    0.06    0.04
   3  -6  -8    0.12    0.05
  -2   6   9    0.76    0.08
  -2   6   9    0.74    0.07
  -2   6   9    0.86    0.08
   2  -6  -9    0.79    0.07
   2  -6  -9    0.66    0.07
  -1   6  10    2.01    0.12
  -1   6  10    2.10    0.11
  -1   6  10    2.08    0.13
   1  -6 -10    2.03    0.12
   0   6  11    0.03    0.05
   0   6  11    0.01    0.04
   0   6  11    0.01    0.04
   0  -6 -11    0.06    0.07
   1   6  12    0.03    0.04
   1   6  12    0.00    0.04
  -1  -6 -12    0.08    0.08
  -6   5   5    1.02    0.09
   6  -5  -5    1.10    0.09
   6  -5  -5    1.00    0.06
   6  -5  -5    1.17    0.08
  -5   5   6    0.22    0.06
  -5   5   6    0.24    0.04
   5  -5  -6    0.23    0.06
  -4   5   7    1.64    0.11
  -4   5   7    1.60    0.10
  -4   5   7    1.59    0.09
   4  -5  -7    1.47    0.08
   4  -5  -7    1.63    0.10
  -3   5   8    0.01    0.04
  -3   5   8    0.05    0.04
  -3   5   8    0.03    0.04
   3  -5  -8   -0.01    0.04
   3  -5  -8    0.07    0.04
  -2   5   9    0.56    0.06
  -2   5   9    0.70    0.07
  -2   5   9    0.56    0.07
   2  -5  -9    0.62    0.07
  -1   5  10    2.75    0.12
  -1   5  10    2.93    0.14
  -1   5  10    2.89    0.14
   1  -5 -10    2.92    0.15
   0   5  11   -0.02    0.04
   0   5  11   -0.02    0.03
   0   5  11   -0.01    0.04
   0  -5 -11   -0.02    0.06
   1   5  12    2.08    0.11
   1   5  12    2.14    0.13
   1   5  12    1.98    0.12
  -1  -5 -12    2.01    0.15
   2   5  13    0.19    0.05
   2   5  13    0.05    0.05
   2   5  13    0.02    0.05
  -2  -5 -13    0.03    0.10
   7  -4  -4   -0.13    0.06
   7  -4  -4   -0.05    0.04
  -6   4   5    0.93    0.09
   6  -4  -5    0.97    0.08
   6  -4  -5    0.95    0.08
   6  -4  -5    0.95    0.07
  -5   4   6    1.10    0.09
  -5   4   6    1.27    0.09
  -5   4   6    1.27    0.08
   5  -4  -6    1.10    0.09
   5  -4  -6    1.10    0.07
  -4   4   7    2.11    0.10
  -4   4   7    2.12    0.12
  -4   4   7    2.18    0.11
   4  -4  -7    1.99    0.10
   4  -4  -7    2.13    0.12
  -3   4   8    5.83    0.21
  -3   4   8    5.79    0.18
  -3   4   8    5.43    0.21
   3  -4  -8    5.49    0.20
   3  -4  -8    5.59    0.22
  -2   4   9    0.03    0.04
  -2   4   9    0.05    0.04
  -2   4   9    0.02    0.04
   2  -4  -9    0.06    0.05
   2  -4  -9   -0.02    0.05
  -1   4  10    0.02    0.04
  -1   4  10    0.00    0.04
  -1   4  10   -0.01    0.04
   1  -4 -10   -0.03    0.06
   0   4  11    0.24    0.05
   0   4  11    0.13    0.05
   0   4  11    0.19    0.05
   0  -4 -11    0.29    0.09
   1   4  12    3.72    0.17
   1   4  12    3.42    0.15
   1   4  12    3.79    0.17
  -1  -4 -12    3.51    0.20
   2   4  13    0.08    0.05
   2   4  13    0.06    0.05
   2   4  13    0.01    0.05
  -2  -4 -13   -0.04    0.09
  -7   3   4    2.55    0.15
   7  -3  -4    2.47    0.12
   7  -3  -4    2.56    0.14
   7  -3  -4    2.58    0.13
  -6   3   5    0.74    0.08
   6  -3  -5    0.80    0.07
   6  -3  -5    0.85    0.07
   6  -3  -5    1.00    0.09
  -5   3   6    1.38    0.09
  -5   3   6    1.49    0.11
   5  -3  -6    1.35    0.10
   5  -3  -6    1.35    0.09
  -4   3   7    3.14    0.15
  -4   3   7    3.47    0.13
  -4   3   7    3.39    0.14
   4  -3  -7    3.25    0.15
   4  -3  -7    3.31    0.15
  -3   3   8   -0.02    0.03
  -3   3   8    0.01    0.04
  -3   3   8   -0.01    0.03
   3  -3  -8    0.04    0.04
   3  -3  -8    0.05    0.05
  -2   3   9    7.24    0.26
  -2   3   9    7.28    0.25
  -2   3   9    7.01    0.22
   2  -3  -9    6.66    0.23
   2  -3  -9    6.86    0.28
  -1   3  10    1.86    0.09
  -1   3  10    2.05    0.12
  -1   3  10    1.82    0.11
   1  -3 -10    1.99    0.13
   1  -3 -10    1.79    0.11
   0   3  11   -0.01    0.04
   0   3  11    0.02    0.04
   0   3  11   -0.03    0.04
   0  -3 -11   -0.03    0.04
   0  -3 -11   -0.01    0.07
   1   3  12    4.63    0.20
   1   3  12    4.39    0.16
   1   3  12    4.70    0.19
  -1  -3 -12    4.37    0.23
   2   3  13    0.31    0.06
   2   3  13    0.32    0.06
   2   3  13    0.50    0.07
  -2  -3 -13    0.52    0.12
   8  -2  -3    0.02    0.04
  -7   2   4    6.99    0.27
   7  -2  -4    6.94    0.29
   7  -2  -4    7.12    0.24
   7  -2  -4    7.09    0.24
  -6   2   5    1.74    0.12
   6  -2  -5    1.59    0.11
   6  -2  -5    1.63    0.10
   6  -2  -5    1.86    0.11
  -5   2   6   11.20    0.38
  -5   2   6   11.76    0.35
   5  -2  -6   11.31    0.42
   5  -2  -6   12.06    0.35
  -4   2   7    0.62    0.06
  -4   2   7    0.66    0.07
  -4   2   7    0.52    0.06
   4  -2  -7    0.55    0.06
   4  -2  -7    0.56    0.07
  -3   2   8    0.68    0.07
  -3   2   8    0.67    0.07
  -3   2   8    0.77    0.07
   3  -2  -8    0.70    0.07
   3  -2  -8    0.70    0.07
  -2   2   9    2.19    0.10
  -2   2   9    2.12    0.12
  -2   2   9    2.21    0.12
   2  -2  -9    1.94    0.11
   2  -2  -9    2.12    0.13
  -1   2  10    5.44    0.18
  -1   2  10    5.88    0.23
  -1   2  10    5.60    0.21
   1  -2 -10    5.65    0.25
   1  -2 -10    5.60    0.21
   0   2  11    0.08    0.04
   0   2  11    0.14    0.05
   0   2  11    0.11    0.05
   0  -2 -11    0.11    0.05
   0  -2 -11    0.12    0.08
   1   2  12    0.25    0.06
   1   2  12    0.11    0.06
   1   2  12    0.21    0.05
  -1  -2 -12    0.32    0.11
  -1  -2 -12    0.13    0.05
   2   2  13    0.13    0.06
   2   2  13    0.17    0.05
   2   2  13    0.19    0.06
  -2  -2 -13    0.14    0.10
  -2  -2 -13    0.03    0.06
  -8   1   3    0.04    0.06
   8  -1  -3    0.12    0.05
   8  -1  -3    0.15    0.06
  -7   1   4    9.92    0.36
   7  -1  -4   11.20    0.32
   7  -1  -4   10.58    0.32
   7  -1  -4   10.34    0.40
  -6   1   5    0.16    0.05
   6  -1  -5    0.12    0.06
   6  -1  -5   -0.04    0.04
   6  -1  -5    0.18    0.08
  -5   1   6    0.03    0.04
  -5   1   6   -0.06    0.04
   5  -1  -6    0.07    0.05
   5  -1  -6   -0.02    0.06
  -4   1   7    0.01    0.04
  -4   1   7    0.05    0.04
   4  -1  -7    0.14    0.05
   4  -1  -7    0.10    0.06
  -3   1   8    1.56    0.09
  -3   1   8    1.62    0.10
  -3   1   8    1.58    0.10
   3  -1  -8    1.68    0.10
   3  -1  -8    1.71    0.11
  -2   1   9    0.14    0.04
  -2   1   9    0.12    0.04
  -2   1   9    0.07    0.04
   2  -1  -9    0.10    0.05
   2  -1  -9    0.13    0.07
  -1   1  10   10.15    0.35
  -1   1  10   10.64    0.33
  -1   1  10   10.05    0.29
   1  -1 -10   10.01    0.41
   1  -1 -10    9.94    0.31
   0   1  11    0.82    0.08
   0   1  11    0.72    0.07
   0   1  11    0.70    0.08
   0  -1 -11    0.71    0.08
   0  -1 -11    0.71    0.10
   1   1  12   20.84    0.66
   1   1  12   22.12    0.55
   1   1  12   21.49    0.62
  -1  -1 -12   22.29    0.58
  -1  -1 -12   21.33    0.79
   2   1  13    0.16    0.05
   2   1  13    0.21    0.06
   2   1  13    0.23    0.06
  -2  -1 -13    0.18    0.06
  -2  -1 -13    0.24    0.11
  -8   0   3    0.05    0.05
   8   0  -3    0.10    0.10
   8   0  -3    0.04    0.05
   8   0  -3    0.08    0.05
  -7   0   4    1.25    0.11
   7   0  -4    1.24    0.11
   7   0  -4    1.22    0.10
   7   0  -4    1.37    0.09
  -6   0   5   27.27    0.82
   6   0  -5   28.13    0.94
   6   0  -5   26.76    0.71
  -5   0   6    0.16    0.05
  -5   0   6    0.16    0.05
   5   0  -6    0.11    0.05
   5   0  -6    0.08    0.07
  -4   0   7    3.86    0.16
  -4   0   7    3.83    0.17
   4   0  -7    3.75    0.19
   4   0  -7    3.58    0.16
  -3   0   8    6.94    0.25
  -3   0   8    7.08    0.26
   3   0  -8    7.21    0.30
   3   0  -8    7.11    0.24
  -2   0   9    1.99    0.10
  -2   0   9    2.02    0.12
  -2   0   9    1.98    0.12
   2   0  -9    2.06    0.14
   2   0  -9    2.13    0.12
  -1   0  10    4.74    0.16
  -1   0  10    4.67    0.20
  -1   0  10    4.50    0.19
   1   0 -10    4.71    0.24
   1   0 -10    4.63    0.18
   0   0  11    0.26    0.06
   0   0  11    0.25    0.05
   0   0  11    0.30    0.06
   0   0 -11    0.25    0.06
   0   0 -11    0.51    0.11
   1   0  12    0.21    0.05
   1   0  12    0.13    0.06
   1   0  12    0.25    0.06
  -1   0 -12    0.21    0.06
  -1   0 -12    0.31    0.11
   2   0  13    3.23    0.17
   2   0  13    3.34    0.18
   2   0  13    3.47    0.14
  -2   0 -13    3.56    0.16
  -2   0 -13    3.18    0.21
  -8  -1   3    0.82    0.10
   8   1  -3    0.80    0.08
   8   1  -3    0.63    0.08
   8   1  -3    0.73    0.10
  -7  -1   4    1.87    0.13
   7   1  -4    2.10    0.11
   7   1  -4    1.90    0.14
   7   1  -4    2.04    0.13
  -6  -1   5    1.99    0.13
   6   1  -5    1.89    0.12
   6   1  -5    1.92    0.14
  -5  -1   6    0.26    0.05
  -5  -1   6    0.21    0.05
   5   1  -6    0.17    0.08
   5   1  -6    0.27    0.05
  -4  -1   7    1.15    0.09
  -4  -1   7    1.10    0.08
   4   1  -7    1.19    0.09
   4   1  -7    1.16    0.10
  -3  -1   8    0.24    0.05
  -3  -1   8    0.19    0.05
   3   1  -8    0.20    0.05
   3   1  -8    0.26    0.09
  -2  -1   9    0.71    0.08
  -2  -1   9    0.75    0.08
   2   1  -9    0.65    0.07
   2   1  -9    0.72    0.09
  -1  -1  10    0.65    0.08
  -1  -1  10    0.74    0.08
   1   1 -10    0.59    0.07
   1   1 -10    0.67    0.10
   0  -1  11    0.91    0.09
   0  -1  11    0.95    0.09
   0   1 -11    0.77    0.08
   0   1 -11    0.90    0.11
   1  -1  12    0.63    0.06
   1  -1  12    0.57    0.08
   1  -1  12    0.52    0.07
  -1   1 -12    0.57    0.07
  -1   1 -12    0.92    0.16
   2  -1  13    4.94    0.23
   2  -1  13    5.22    0.18
   2  -1  13    5.54    0.23
  -2   1 -13    5.45    0.29
  -2   1 -13    5.49    0.21
  -8  -2   3    0.36    0.07
   8   2  -3    0.63    0.13
   8   2  -3    0.38    0.07
  -7  -2   4    8.35    0.31
   7   2  -4    8.34    0.37
   7   2  -4    9.17    0.28
   7   2  -4    8.53    0.29
  -6  -2   5    1.09    0.10
   6   2  -5    1.03    0.09
   6   2  -5    0.96    0.11
  -5  -2   6    3.17    0.14
  -5  -2   6    3.20    0.16
   5   2  -6    3.08    0.15
   5   2  -6    3.08    0.18
  -4  -2   7    1.75    0.11
  -4  -2   7    2.01    0.11
   4   2  -7    1.76    0.13
   4   2  -7    1.91    0.12
  -3  -2   8   18.12    0.56
  -3  -2   8   18.25    0.52
   3   2  -8   17.14    0.49
   3   2  -8   17.42    0.65
  -2  -2   9    1.01    0.09
  -2  -2   9    1.22    0.10
   2   2  -9    1.19    0.09
   2   2  -9    1.22    0.12
  -1  -2  10    0.12    0.06
  -1  -2  10    0.24    0.06
   1   2 -10    0.27    0.10
   1   2 -10    0.16    0.05
   0  -2  11    6.30    0.25
   0  -2  11    5.76    0.24
   0   2 -11    6.22    0.23
   0   2 -11    6.41    0.31
   1  -2  12    0.08    0.05
   1  -2  12   -0.01    0.05
  -1   2 -12    0.06    0.05
  -1   2 -12   -0.02    0.09
  -7  -3   4    6.39    0.26
   7   3  -4    6.80    0.24
   7   3  -4    6.62    0.31
   7   3  -4    6.87    0.23
  -6  -3   5    0.56    0.07
  -6  -3   5    0.70    0.09
   6   3  -5    0.67    0.08
   6   3  -5    0.92    0.13
  -5  -3   6    4.81    0.19
  -5  -3   6    4.92    0.21
   5   3  -6    4.95    0.19
   5   3  -6    4.70    0.24
  -4  -3   7    0.15    0.05
  -4  -3   7    0.19    0.05
   4   3  -7    0.43    0.11
   4   3  -7    0.17    0.05
  -3  -3   8    0.28    0.06
  -3  -3   8    0.25    0.06
   3   3  -8    0.32    0.06
   3   3  -8    0.40    0.11
  -2  -3   9    0.14    0.05
  -2  -3   9    0.12    0.05
   2   3  -9    0.06    0.05
   2   3  -9    0.14    0.08
  -1  -3  10    1.51    0.11
  -1  -3  10    1.51    0.11
   1   3 -10    1.69    0.15
   1   3 -10    1.57    0.11
   0  -3  11    3.18    0.17
   0  -3  11    3.32    0.17
   0   3 -11    3.39    0.22
   0   3 -11    3.67    0.16
   1  -3  12    6.32    0.26
   1  -3  12    6.08    0.26
  -1   3 -12    6.46    0.23
  -7  -4   4    3.73    0.18
   7   4  -4    3.65    0.22
   7   4  -4    3.88    0.16
   7   4  -4    4.07    0.18
  -6  -4   5    0.60    0.07
  -6  -4   5    0.72    0.09
   6   4  -5    0.71    0.08
   6   4  -5    1.08    0.15
  -5  -4   6   -0.05    0.04
  -5  -4   6   -0.02    0.04
   5   4  -6    0.00    0.05
   5   4  -6    0.14    0.09
  -4  -4   7   12.86    0.42
  -4  -4   7   12.21    0.40
   4   4  -7   13.00    0.39
   4   4  -7   12.88    0.52
  -3  -4   8    0.09    0.05
  -3  -4   8    0.11    0.05
   3   4  -8    0.15    0.06
   3   4  -8    0.10    0.09
  -2  -4   9    4.99    0.22
  -2  -4   9    5.11    0.22
   2   4  -9    5.48    0.28
   2   4  -9    4.92    0.20
  -1  -4  10    5.03    0.22
  -1  -4  10    5.24    0.22
   1   4 -10    5.28    0.21
   1   4 -10    5.33    0.28
   0  -4  11    0.22    0.06
   0  -4  11    0.14    0.06
   0   4 -11    0.19    0.06
  -6  -5   5    2.04    0.13
  -6  -5   5    1.90    0.12
   6   5  -5    2.04    0.16
   6   5  -5    2.12    0.13
  -5  -5   6    0.23    0.06
  -5  -5   6    0.32    0.07
   5   5  -6    0.31    0.07
   5   5  -6    0.38    0.12
  -4  -5   7    5.11    0.22
  -4  -5   7    4.95    0.21
   4   5  -7    5.21    0.27
   4   5  -7    5.06    0.20
  -3  -5   8    0.74    0.09
  -3  -5   8    0.82    0.09
   3   5  -8    0.97    0.09
   3   5  -8    0.97    0.12
  -2  -5   9    9.64    0.35
  -2  -5   9   10.13    0.35
   2   5  -9   10.13    0.45
   2   5  -9   10.07    0.32
  -1  -5  10    2.88    0.16
  -1  -5  10    2.81    0.16
   1   5 -10    3.09    0.15
  -4  -6   7    5.87    0.24
   4   6  -7    5.79    0.23
  -3   7   9    0.12    0.05
  -3   7   9    0.05    0.05
   3  -7  -9    0.00    0.04
   3  -7  -9    0.06    0.05
   3  -7  -9    0.19    0.06
  -2   7  10   -0.03    0.05
  -2   7  10   -0.05    0.04
   2  -7 -10    0.00    0.04
   2  -7 -10   -0.04    0.05
  -5   6   7    2.22    0.13
  -5   6   7    2.05    0.11
   5  -6  -7    2.16    0.13
  -4   6   8    0.55    0.06
  -4   6   8    0.44    0.07
  -4   6   8    0.48    0.07
   4  -6  -8    0.47    0.05
   4  -6  -8    0.55    0.08
   4  -6  -8    0.51    0.07
  -3   6   9    0.06    0.05
  -3   6   9    0.04    0.04
  -3   6   9    0.07    0.05
   3  -6  -9    0.08    0.05
   3  -6  -9    0.09    0.05
   3  -6  -9    0.18    0.06
  -2   6  10    0.07    0.05
  -2   6  10    0.11    0.05
  -2   6  10    0.02    0.05
   2  -6 -10    0.14    0.07
  -1   6  11   -0.03    0.05
  -1   6  11   -0.02    0.04
  -1   6  11   -0.05    0.04
   1  -6 -11    0.01    0.07
   0   6  12    1.93    0.13
   0   6  12    1.98    0.11
   0  -6 -12    1.87    0.14
  -5   5   7    0.01    0.05
  -5   5   7    0.04    0.04
   5  -5  -7   -0.02    0.05
   5  -5  -7    0.03    0.04
  -4   5   8    1.11    0.09
  -4   5   8    1.13    0.09
  -4   5   8    0.99    0.08
   4  -5  -8    0.97    0.09
   4  -5  -8    0.96    0.07
  -3   5   9    0.03    0.05
  -3   5   9   -0.07    0.04
  -3   5   9    0.02    0.04
   3  -5  -9   -0.04    0.05
   3  -5  -9    0.00    0.05
  -2   5  10    1.26    0.10
  -2   5  10    1.25    0.09
  -2   5  10    1.23    0.09
   2  -5 -10    1.22    0.10
   2  -5 -10    1.17    0.10
  -1   5  11    0.73    0.07
  -1   5  11    0.63    0.08
  -1   5  11    0.73    0.08
   1  -5 -11    0.66    0.09
   0   5  12    0.28    0.06
   0   5  12    0.29    0.05
   0   5  12    0.18    0.06
   0  -5 -12    0.28    0.10
  -6   4   6    2.26    0.14
   6  -4  -6    2.24    0.12
   6  -4  -6    2.31    0.13
  -5   4   7    0.90    0.09
  -5   4   7    0.96    0.08
  -5   4   7    0.96    0.08
   5  -4  -7    0.90    0.07
   5  -4  -7    1.09    0.09
  -4   4   8    0.56    0.07
  -4   4   8    0.49    0.06
  -4   4   8    0.47    0.07
   4  -4  -8    0.48    0.06
   4  -4  -8    0.45    0.07
  -3   4   9    0.47    0.07
  -3   4   9    0.48    0.06
  -3   4   9    0.47    0.07
   3  -4  -9    0.45    0.06
   3  -4  -9    0.55    0.07
  -2   4  10   -0.02    0.04
  -2   4  10    0.00    0.04
  -2   4  10    0.00    0.04
   2  -4 -10    0.04    0.05
   2  -4 -10    0.03    0.06
  -1   4  11    5.77    0.23
  -1   4  11    5.69    0.19
  -1   4  11    5.88    0.23
   1  -4 -11    5.41    0.26
   1  -4 -11    5.73    0.22
   0   4  12   -0.05    0.04
   0   4  12   -0.04    0.05
   0   4  12   -0.01    0.05
   0  -4 -12    0.04    0.08
   1   4  13    0.06    0.05
   1   4  13    0.08    0.05
   1   4  13    0.06    0.05
  -1  -4 -13    0.09    0.10
  -7   3   5    1.89    0.13
   7  -3  -5    1.90    0.12
   7  -3  -5    1.90    0.12
  -6   3   6    0.57    0.08
   6  -3  -6    0.54    0.07
   6  -3  -6    0.57    0.07
  -5   3   7    0.26    0.06
  -5   3   7    0.30    0.06
   5  -3  -7    0.35    0.08
   5  -3  -7    0.32    0.06
  -4   3   8    3.56    0.17
  -4   3   8    3.64    0.14
  -4   3   8    3.84    0.16
   4  -3  -8    3.45    0.17
   4  -3  -8    3.51    0.16
  -3   3   9    0.35    0.05
  -3   3   9    0.39    0.06
  -3   3   9    0.56    0.07
   3  -3  -9    0.55    0.09
   3  -3  -9    0.30    0.06
  -2   3  10    2.13    0.13
  -2   3  10    2.24    0.11
  -2   3  10    2.21    0.13
   2  -3 -10    2.09    0.13
   2  -3 -10    2.12    0.12
  -1   3  11    6.37    0.22
  -1   3  11    6.83    0.25
  -1   3  11    7.25    0.27
   1  -3 -11    6.98    0.25
   1  -3 -11    6.55    0.29
   0   3  12    0.07    0.05
   0   3  12    0.10    0.04
   0   3  12    0.11    0.05
   0  -3 -12    0.18    0.09
   0  -3 -12    0.06    0.05
   1   3  13    7.97    0.26
   1   3  13    8.67    0.30
   1   3  13    8.51    0.31
  -1  -3 -13    8.56    0.29
  -1  -3 -13    8.05    0.37
  -7   2   5    0.01    0.06
   7  -2  -5   -0.04    0.07
   7  -2  -5    0.02    0.05
  -6   2   6    4.35    0.20
   6  -2  -6    4.52    0.18
   6  -2  -6    4.55    0.21
  -5   2   7    0.19    0.05
  -5   2   7    0.23    0.06
   5  -2  -7    0.28    0.08
   5  -2  -7    0.24    0.06
  -4   2   8    1.51    0.10
  -4   2   8    1.63    0.10
   4  -2  -8    1.39    0.11
   4  -2  -8    1.43    0.11
  -3   2   9    0.16    0.05
  -3   2   9    0.05    0.04
  -3   2   9    0.04    0.04
   3  -2  -9    0.12    0.05
   3  -2  -9    0.13    0.07
  -2   2  10    1.07    0.09
  -2   2  10    1.23    0.08
  -2   2  10    1.09    0.09
   2  -2 -10    0.96    0.10
   2  -2 -10    1.13    0.10
  -1   2  11    2.41    0.14
  -1   2  11    2.61    0.12
  -1   2  11    2.68    0.14
   1  -2 -11    2.57    0.14
   1  -2 -11    2.43    0.16
   0   2  12    0.18    0.06
   0   2  12    0.19    0.05
   0   2  12    0.12    0.06
   0  -2 -12    0.15    0.10
   0  -2 -12    0.12    0.06
   1   2  13    0.00    0.05
   1   2  13    0.10    0.06
   1   2  13    0.09    0.05
  -1  -2 -13    0.10    0.10
  -1  -2 -13    0.04    0.06
  -7   1   5    4.27    0.21
   7  -1  -5    4.71    0.20
   7  -1  -5    4.58    0.22
  -6   1   6    2.04    0.13
   6  -1  -6    2.19    0.13
   6  -1  -6    2.07    0.14
  -5   1   7    0.03    0.05
  -5   1   7   -0.02    0.04
   5  -1  -7   -0.02    0.05
   5  -1  -7   -0.05    0.07
  -4   1   8    2.56    0.14
   4  -1  -8    2.49    0.15
   4  -1  -8    2.38    0.13
  -3   1   9    1.99    0.12
  -3   1   9    1.91    0.12
   3  -1  -9    1.87    0.12
   3  -1  -9    1.91    0.13
  -2   1  10    0.37    0.06
  -2   1  10    0.27    0.06
  -2   1  10    0.40    0.05
   2  -1 -10    0.45    0.07
   2  -1 -10    0.43    0.11
  -1   1  11    6.08    0.20
  -1   1  11    6.04    0.24
  -1   1  11    6.39    0.25
   1  -1 -11    5.81    0.28
   1  -1 -11    6.00    0.22
   0   1  12    7.41    0.27
   0   1  12    7.16    0.28
   0   1  12    7.12    0.23
   0  -1 -12    6.94    0.25
   0  -1 -12    7.25    0.33
   1   1  13    1.51    0.12
   1   1  13    1.43    0.09
   1   1  13    1.40    0.11
  -1  -1 -13    1.44    0.11
  -1  -1 -13    1.20    0.13
  -7   0   5    2.85    0.16
   7   0  -5    2.99    0.16
   7   0  -5    2.97    0.18
  -6   0   6    0.15    0.06
   6   0  -6    0.26    0.10
   6   0  -6    0.21    0.06
  -5   0   7    0.01    0.04
  -5   0   7    0.15    0.05
   5   0  -7   -0.03    0.07
   5   0  -7    0.03    0.04
  -4   0   8    0.03    0.04
  -4   0   8    0.07    0.04
   4   0  -8    0.04    0.04
   4   0  -8   -0.03    0.06
  -3   0   9    8.49    0.31
  -3   0   9    8.99    0.30
   3   0  -9    9.10    0.29
   3   0  -9    8.67    0.36
  -2   0  10    1.95    0.13
  -2   0  10    1.92    0.12
   2   0 -10    1.69    0.11
   2   0 -10    2.00    0.15
  -1   0  11    0.19    0.06
  -1   0  11    0.15    0.04
  -1   0  11    0.04    0.05
   1   0 -11    0.14    0.10
   1   0 -11    0.08    0.05
   0   0  12    3.28    0.17
   0   0  12    3.29    0.14
   0   0  12    3.08    0.17
   0   0 -12    3.11    0.20
   0   0 -12    3.14    0.16
   1   0  13   -0.06    0.04
   1   0  13    0.07    0.05
  -1   0 -13    0.04    0.11
  -7  -1   5    0.02    0.05
   7   1  -5   -0.02    0.05
   7   1  -5    0.12    0.09
  -6  -1   6    0.26    0.06
   6   1  -6    0.31    0.07
   6   1  -6    0.38    0.10
  -5  -1   7    3.62    0.18
  -5  -1   7    3.67    0.16
   5   1  -7    3.57    0.16
   5   1  -7    3.78    0.20
  -4  -1   8    0.18    0.05
  -4  -1   8    0.29    0.05
   4   1  -8    0.29    0.06
   4   1  -8    0.48    0.11
  -3  -1   9    0.49    0.07
  -3  -1   9    0.38    0.06
   3   1  -9    0.45    0.07
   3   1  -9    0.72    0.12
  -2  -1  10    0.01    0.05
  -2  -1  10    0.01    0.04
   2   1 -10    0.02    0.05
   2   1 -10    0.05    0.08
  -1  -1  11    4.73    0.21
  -1  -1  11    4.77    0.21
   1   1 -11    4.92    0.20
   1   1 -11    5.07    0.26
   0  -1  12    9.25    0.35
   0  -1  12   10.01    0.34
   0   1 -12    9.65    0.43
   0   1 -12    9.59    0.31
  -7  -2   5    0.86    0.09
   7   2  -5    0.88    0.09
   7   2  -5    0.90    0.11
  -6  -2   6   -0.02    0.05
   6   2  -6   -0.03    0.08
   6   2  -6   -0.01    0.04
  -5  -2   7    0.51    0.07
  -5  -2   7    0.35    0.06
   5   2  -7    0.44    0.07
   5   2  -7    0.81    0.13
  -4  -2   8    8.09    0.28
  -4  -2   8    7.91    0.30
   4   2  -8    8.20    0.28
   4   2  -8    8.02    0.35
  -3  -2   9    0.88    0.09
  -3  -2   9    0.93    0.09
   3   2  -9    0.87    0.11
   3   2  -9    0.96    0.09
  -2  -2  10    3.93    0.19
  -2  -2  10    4.02    0.19
   2   2 -10    4.16    0.18
   2   2 -10    4.09    0.23
  -1  -2  11    0.62    0.08
  -1  -2  11    0.68    0.08
   1   2 -11    1.05    0.16
   1   2 -11    0.72    0.09
   0  -2  12    0.99    0.11
   0  -2  12    1.10    0.11
   0   2 -12    0.91    0.13
   0   2 -12    0.99    0.09
  -6  -3   6    0.00    0.05
   6   3  -6    0.08    0.09
   6   3  -6    0.03    0.05
  -5  -3   7    1.05    0.09
  -5  -3   7    0.91    0.09
   5   3  -7    0.98    0.11
   5   3  -7    0.97    0.10
  -4  -3   8    1.51    0.11
  -4  -3   8    1.31    0.10
   4   3  -8    1.62    0.14
   4   3  -8    1.56    0.12
  -3  -3   9    0.27    0.06
  -3  -3   9    0.25    0.06
   3   3  -9    0.26    0.06
   3   3  -9    0.44    0.12
  -2  -3  10    7.98    0.31
  -2  -3  10    8.83    0.31
   2   3 -10    8.50    0.39
   2   3 -10    8.47    0.29
  -1  -3  11    0.20    0.07
  -1  -3  11    0.21    0.06
   1   3 -11    0.39    0.13
   1   3 -11    0.17    0.06
  -5  -4   7    0.13    0.06
  -5  -4   7    0.19    0.06
   5   4  -7    0.15    0.06
   5   4  -7    0.23    0.10
  -4  -4   8    4.40    0.20
  -4  -4   8    4.55    0.20
   4   4  -8    4.44    0.19
   4   4  -8    4.59    0.26
  -3  -4   9    0.98    0.10
  -3  -4   9    0.91    0.09
   3   4  -9    0.98    0.10
   3   4  -9    1.04    0.13
  -2  -4  10    0.26    0.06
  -2  -4  10    0.24    0.07
   2   4 -10    0.25    0.07
   2   4 -10    0.58    0.14
  -3   5  10    0.41    0.07
  -3   5  10    0.50    0.07
  -3   5  10    0.54    0.06
   3  -5 -10    0.52    0.09
   3  -5 -10    0.45    0.07
  -2   5  11    0.90    0.10
  -2   5  11    0.73    0.07
  -5   4   8    0.44    0.07
   5  -4  -8    0.45    0.06
   5  -4  -8    0.31    0.07
  -4   4   9    0.06    0.04
  -4   4   9    0.07    0.05
  -4   4   9    0.07    0.05
   4  -4  -9    0.06    0.06
   4  -4  -9    0.09    0.05
  -3   4  10   -0.01    0.05
  -3   4  10    0.05    0.04
  -3   4  10   -0.03    0.05
   3  -4 -10   -0.04    0.04
   3  -4 -10   -0.08    0.06
  -2   4  11    1.14    0.10
  -2   4  11    1.12    0.10
  -2   4  11    1.06    0.08
   2  -4 -11    1.26    0.10
   2  -4 -11    1.09    0.10
  -1   4  12    0.42    0.07
  -1   4  12    0.35    0.06
   1  -4 -12    0.44    0.07
  -5   3   8    1.38    0.10
  -5   3   8    1.49    0.11
   5  -3  -8    1.33    0.11
   5  -3  -8    1.25    0.10
  -4   3   9    3.69    0.17
  -4   3   9    3.64    0.17
  -4   3   9    3.35    0.14
   4  -3  -9    3.28    0.17
   4  -3  -9    3.36    0.16
  -3   3  10    0.55    0.07
  -3   3  10    0.70    0.07
  -3   3  10    0.66    0.08
   3  -3 -10    0.68    0.08
   3  -3 -10    0.59    0.08
  -2   3  11    1.05    0.09
  -2   3  11    1.12    0.10
  -2   3  11    1.17    0.10
   2  -3 -11    1.10    0.10
   2  -3 -11    1.22    0.10
  -1   3  12    2.58    0.15
  -1   3  12    2.48    0.14
  -1   3  12    2.63    0.13
   1  -3 -12    2.43    0.16
   1  -3 -12    2.28    0.14
  -6   2   7    5.07    0.23
   6  -2  -7    5.20    0.21
   6  -2  -7    5.08    0.24
  -5   2   8    1.01    0.10
  -5   2   8    0.94    0.09
   5  -2  -8    0.90    0.09
   5  -2  -8    0.83    0.09
  -4   2   9    0.33    0.07
  -4   2   9    0.39    0.06
   4  -2  -9    0.46    0.07
   4  -2  -9    0.54    0.10
  -3   2  10    0.46    0.06
  -3   2  10    0.44    0.07
  -3   2  10    0.48    0.07
   3  -2 -10    0.50    0.10
   3  -2 -10    0.30    0.07
  -2   2  11    0.67    0.08
  -2   2  11    0.69    0.07
  -2   2  11    0.80    0.09
   2  -2 -11    0.69    0.09
   2  -2 -11    0.77    0.08
  -1   2  12    1.10    0.10
  -1   2  12    1.06    0.10
  -1   2  12    1.18    0.08
   1  -2 -12    1.18    0.11
   1  -2 -12    1.08    0.12
  -6   1   7    2.98    0.17
   6  -1  -7    3.07    0.16
   6  -1  -7    2.91    0.18
  -5   1   8    1.47    0.11
  -5   1   8    1.36    0.11
   5  -1  -8    1.30    0.12
   5  -1  -8    1.21    0.11
  -4   1   9    0.14    0.05
  -4   1   9    0.12    0.05
   4  -1  -9    0.07    0.08
   4  -1  -9    0.09    0.05
  -3   1  10    0.84    0.09
  -3   1  10    0.89    0.09
   3  -1 -10    0.93    0.10
   3  -1 -10    0.96    0.09
  -2   1  11    0.05    0.04
  -2   1  11    0.07    0.05
  -2   1  11    0.04    0.05
   2  -1 -11    0.12    0.09
   2  -1 -11    0.02    0.05
  -1   1  12    1.78    0.11
  -1   1  12    1.64    0.12
  -1   1  12    1.51    0.12
   1  -1 -12    1.47    0.14
   1  -1 -12    1.68    0.12
  -6   0   7    0.52    0.08
   6   0  -7    0.74    0.12
   6   0  -7    0.45    0.07
  -5   0   8    0.66    0.09
  -5   0   8    0.64    0.07
   5   0  -8    0.67    0.08
   5   0  -8    0.66    0.09
  -4   0   9    0.07    0.05
  -4   0   9    0.06    0.05
   4   0  -9    0.02    0.05
   4   0  -9    0.15    0.09
  -3   0  10    3.78    0.18
  -3   0  10    3.56    0.18
   3   0 -10    3.82    0.17
   3   0 -10    3.70    0.21
  -2   0  11    4.37    0.20
  -2   0  11    4.20    0.20
   2   0 -11    4.24    0.24
   2   0 -11    4.53    0.20
  -1   0  12    2.45    0.15
  -1   0  12    2.39    0.15
   1   0 -12    2.33    0.15
   1   0 -12    2.25    0.17
  -5  -1   8    1.75    0.12
  -5  -1   8    1.76    0.12
   5   1  -8    1.88    0.15
   5   1  -8    1.83    0.12
  -4  -1   9    0.59    0.08
  -4  -1   9    0.64    0.08
   4   1  -9    0.73    0.09
   4   1  -9    0.83    0.13
  -3  -1  10    1.51    0.12
  -3  -1  10    1.68    0.12
   3   1 -10    1.33    0.12
   3   1 -10    1.96    0.15
  -2  -1  11    5.33    0.23
  -2  -1  11    5.13    0.23
   2   1 -11    5.39    0.28
   2   1 -11    5.52    0.22
  -5  -2   8    3.82    0.18
  -4  -2   9    0.01    0.04
  -4  -2   9   -0.02    0.05
   4   2  -9   -0.03    0.05
   4   2  -9    0.03    0.09
  -3  -2  10    0.17    0.06
  -3  -2  10    0.22    0.06
   3   2 -10    0.12    0.06
   3   2 -10    0.39    0.12
   0   0   0    0.00    0.00
;
_shelx_hkl_checksum              6457
_shelx_res_file
;
    shelx.res created by SHELXL-2014/7
TITL BENZOYL_SEMI_5_NEW in P-1
CELL  0.71073   7.8145   9.7538  10.9050   78.855   69.031   84.200
ZERR     2.00   0.0004   0.0005   0.0007    0.004    0.002    0.003
LATT   1
SFAC  C    H    N    O    S
UNIT  32 30 6 4 2
MERG   2
FMAP   2
PLAN   20
SIZE     0.140   0.180   0.250
ACTA
BOND   $H
CONF
L.S.  10
WGHT    0.051200    0.191400
EXTI    0.079731
FVAR       0.33540
MOLE    1
C1    1   -0.057441    0.603953    0.123568    11.00000    0.04871    0.04907 =
         0.03994   -0.00321   -0.01654   -0.00262
AFIX  43
H1    2    0.058097    0.616476    0.125182    11.00000   -1.20000
AFIX   0
C2    1   -0.128602    0.697058    0.039840    11.00000    0.06714    0.04869 =
         0.04584    0.00325   -0.01828    0.00285
AFIX  43
H2    2   -0.061612    0.773639   -0.013763    11.00000   -1.20000
AFIX   0
C3    1   -0.297838    0.677296    0.035194    11.00000    0.07282    0.06134 =
         0.04649   -0.00702   -0.03000    0.02073
AFIX  43
H3    2   -0.343949    0.739850   -0.022322    11.00000   -1.20000
AFIX   0
C4    1   -0.399344    0.565188    0.115414    11.00000    0.05284    0.07214 =
         0.05834   -0.01494   -0.03230    0.01117
AFIX  43
H4    2   -0.513419    0.551861    0.111652    11.00000   -1.20000
AFIX   0
C5    1   -0.331464    0.472639    0.201411    11.00000    0.04514    0.05546 =
         0.04671   -0.00550   -0.02064   -0.00134
AFIX  43
H5    2   -0.400530    0.397741    0.256679    11.00000   -1.20000
AFIX   0
C6    1   -0.159747    0.491762    0.205105    11.00000    0.04234    0.04324 =
         0.03149   -0.00671   -0.01571    0.00138
C7    1   -0.097831    0.393813    0.303527    11.00000    0.04092    0.04539 =
         0.03327   -0.00478   -0.01595   -0.00299
C8    1    0.154626    0.317507    0.371977    11.00000    0.03408    0.05232 =
         0.03197    0.00037   -0.01338   -0.00084
C9    1    0.158161    0.173907    0.390185    11.00000    0.04567    0.05260 =
         0.04191   -0.01313   -0.02241    0.00091
AFIX  43
H9    2    0.115924    0.128591    0.339464    11.00000   -1.20000
AFIX   0
C10   1    0.225658    0.097772    0.485313    11.00000    0.04258    0.04085 =
         0.04469   -0.01120   -0.01962    0.00234
AFIX  43
H10   2    0.224696    0.000646    0.500404    11.00000   -1.20000
AFIX   0
C11   1    0.294889    0.164568    0.558622    11.00000    0.03078    0.03978 =
         0.03278   -0.00553   -0.01145    0.00082
C12   1    0.296663    0.310255    0.533361    11.00000    0.04245    0.04194 =
         0.04295   -0.00735   -0.02115   -0.00203
AFIX  43
H12   2    0.346608    0.356454    0.579034    11.00000   -1.20000
AFIX   0
C13   1    0.224975    0.386623    0.441175    11.00000    0.04510    0.03936 =
         0.04733   -0.00057   -0.02139   -0.00259
AFIX  43
H13   2    0.224255    0.483806    0.426016    11.00000   -1.20000
AFIX   0
C14   1    0.363480    0.085552    0.663914    11.00000    0.03321    0.03841 =
         0.03447   -0.00536   -0.01278   -0.00001
C15   1    0.284875   -0.052032    0.737320    11.00000    0.06155    0.05199 =
         0.05684    0.00940   -0.03280   -0.01805
AFIX 137
H15A  2    0.364223   -0.101889    0.781966    11.00000   -1.50000
H15B  2    0.273678   -0.105578    0.675550    11.00000   -1.50000
H15C  2    0.166058   -0.037308    0.801759    11.00000   -1.50000
AFIX   0
C16   1    0.702228    0.130754    0.789316    11.00000    0.03333    0.03638 =
         0.03648   -0.00101   -0.01298   -0.00215
N1    3    0.487330    0.146515    0.683107    11.00000    0.03598    0.03958 =
         0.03393   -0.00129   -0.01618   -0.00051
N2    3    0.547774    0.084708    0.786113    11.00000    0.03653    0.04041 =
         0.03542    0.00470   -0.01661   -0.00730
AFIX  43
H2A   2    0.488349    0.018765    0.846355    11.00000   -1.20000
AFIX   0
N3    3    0.798542    0.217977    0.682765    11.00000    0.04266    0.05744 =
         0.03935    0.00982   -0.01870   -0.01679
AFIX  93
H3A   2    0.761085    0.242251    0.616240    11.00000   -1.20000
H3B   2    0.898405    0.250219    0.680252    11.00000   -1.20000
AFIX   0
O1    4   -0.195985    0.318029    0.397108    11.00000    0.04798    0.06754 =
         0.04558    0.01463   -0.02084   -0.01370
O2    4    0.084232    0.400169    0.278798    11.00000    0.04043    0.06219 =
         0.03867    0.00830   -0.01928   -0.00555
S1    5    0.770877    0.075983    0.920555    11.00000    0.04544    0.07199 =
         0.04637    0.01713   -0.02749   -0.01842
HKLF 4
REM  BENZOYL_SEMI_5_NEW in P-1
REM R1 =  0.0339 for    2857 Fo > 4sig(Fo)  and  0.0372 for all    3154 data
REM    201 parameters refined using      0 restraints
END
WGHT      0.0491      0.1957
REM Highest difference peak  0.263,  deepest hole -0.294,  1-sigma level  0.046
Q1    1   0.4543  0.0664  0.8825  11.00000  0.05    0.26
Q2    1   0.1587 -0.0695  0.7377  11.00000  0.05    0.24
Q3    1   0.6846  0.1409  0.9629  11.00000  0.05    0.23
Q4    1   0.3404  0.1159  0.6053  11.00000  0.05    0.19
Q5    1   0.2276  0.2412  0.3392  11.00000  0.05    0.14
Q6    1   0.2592 -0.0653  0.8327  11.00000  0.05    0.14
Q7    1   0.3240  0.0244  0.7046  11.00000  0.05    0.14
Q8    1  -0.1895  0.6576  0.0133  11.00000  0.05    0.14
Q9    1  -0.1231  0.4430  0.2424  11.00000  0.05    0.14
Q10   1   0.9355  0.1935  0.6527  11.00000  0.05    0.13
Q11   1   0.6426  0.0418  1.0004  11.00000  0.05    0.13
Q12   1   0.5798  0.1380  0.8158  11.00000  0.05    0.13
Q13   1   0.2393  0.1312  0.5413  11.00000  0.05    0.13
Q14   1  -0.0724  0.6308  0.0609  11.00000  0.05    0.13
Q15   1  -0.1265  0.5655  0.1836  11.00000  0.05    0.13
Q16   1   0.3360  0.2338  0.5212  11.00000  0.05    0.12
Q17   1   0.7057  0.1344  0.8603  11.00000  0.05    0.12
Q18   1  -0.3363  0.6080  0.0561  11.00000  0.05    0.12
Q19   1  -0.5874  0.5587  0.1756  11.00000  0.05    0.12
Q20   1  -0.1078  0.5364  0.1572  11.00000  0.05    0.12
;
_shelx_res_checksum              21901
loop_
_space_group_symop_operation_xyz
'x, y, z'
'-x, -y, -z'
loop_
_atom_site_type_symbol
_atom_site_label
_atom_site_fract_x
_atom_site_fract_y
_atom_site_fract_z
_atom_site_U_iso_or_equiv
_atom_site_adp_type
_atom_site_calc_flag
_atom_site_occupancy
C C1 -0.0574(2) 0.60395(15) 0.12357(14) 0.0461(3) Uani d 1
H H1 0.0581 0.6165 0.1252 0.055 Uiso calc 1
C C2 -0.1286(2) 0.69706(17) 0.03984(16) 0.0562(4) Uani d 1
H H2 -0.0616 0.7736 -0.0138 0.067 Uiso calc 1
C C3 -0.2978(3) 0.67730(18) 0.03519(16) 0.0596(4) Uani d 1
H H3 -0.3439 0.7398 -0.0223 0.072 Uiso calc 1
C C4 -0.3993(2) 0.56519(19) 0.11541(17) 0.0579(4) Uani d 1
H H4 -0.5134 0.5519 0.1117 0.069 Uiso calc 1
C C5 -0.3315(2) 0.47264(16) 0.20141(15) 0.0483(3) Uani d 1
H H5 -0.4005 0.3977 0.2567 0.058 Uiso calc 1
C C6 -0.15975(18) 0.49176(14) 0.20510(12) 0.0384(3) Uani d 1
C C7 -0.09783(18) 0.39381(14) 0.30353(12) 0.0392(3) Uani d 1
C C8 0.15463(18) 0.31751(15) 0.37198(13) 0.0400(3) Uani d 1
C C9 0.15816(19) 0.17391(15) 0.39018(14) 0.0442(3) Uani d 1
H H9 0.1159 0.1286 0.3395 0.053 Uiso calc 1
C C10 0.22566(19) 0.09777(14) 0.48531(14) 0.0412(3) Uani d 1
H H10 0.2247 0.0006 0.5004 0.049 Uiso calc 1
C C11 0.29489(16) 0.16457(13) 0.55862(12) 0.0346(3) Uani d 1
C C12 0.29666(19) 0.31025(14) 0.53336(14) 0.0406(3) Uani d 1
H H12 0.3466 0.3565 0.5790 0.049 Uiso calc 1
C C13 0.22498(19) 0.38662(14) 0.44118(14) 0.0433(3) Uani d 1
H H13 0.2243 0.4838 0.4260 0.052 Uiso calc 1
C C14 0.36348(17) 0.08555(13) 0.66391(12) 0.0353(3) Uani d 1
C C15 0.2849(2) -0.05203(16) 0.73732(16) 0.0549(4) Uani d 1
H H15A 0.3642 -0.1019 0.7820 0.082 Uiso calc 1
H H15B 0.2737 -0.1056 0.6755 0.082 Uiso calc 1
H H15C 0.1661 -0.0373 0.8018 0.082 Uiso calc 1
C C16 0.70223(17) 0.13075(13) 0.78932(12) 0.0358(3) Uani d 1
N N1 0.48733(14) 0.14652(11) 0.68311(10) 0.0361(2) Uani d 1
N N2 0.54777(15) 0.08471(11) 0.78611(11) 0.0374(2) Uani d 1
H H2A 0.4883 0.0188 0.8464 0.045 Uiso calc 1
N N3 0.79854(16) 0.21798(13) 0.68277(11) 0.0467(3) Uani d 1
H H3A 0.7611 0.2423 0.6162 0.056 Uiso calc 1
H H3B 0.8984 0.2502 0.6803 0.056 Uiso calc 1
O O1 -0.19599(15) 0.31803(12) 0.39711(10) 0.0550(3) Uani d 1
O O2 0.08423(13) 0.40017(11) 0.27880(9) 0.0477(3) Uani d 1
S S1 0.77088(5) 0.07598(4) 0.92056(4) 0.05405(15) Uani d 1
loop_
_atom_site_aniso_label
_atom_site_aniso_U_11
_atom_site_aniso_U_22
_atom_site_aniso_U_33
_atom_site_aniso_U_12
_atom_site_aniso_U_13
_atom_site_aniso_U_23
C1 0.0487(8) 0.0491(8) 0.0399(7) -0.0026(6) -0.0165(6) -0.0032(6)
C2 0.0671(10) 0.0487(8) 0.0458(8) 0.0029(7) -0.0183(7) 0.0033(6)
C3 0.0728(11) 0.0613(10) 0.0465(8) 0.0207(8) -0.0300(8) -0.0070(7)
C4 0.0528(9) 0.0721(10) 0.0583(9) 0.0112(8) -0.0323(8) -0.0149(8)
C5 0.0451(8) 0.0555(8) 0.0467(8) -0.0013(6) -0.0206(6) -0.0055(6)
C6 0.0423(7) 0.0432(7) 0.0315(6) 0.0014(5) -0.0157(5) -0.0067(5)
C7 0.0409(7) 0.0454(7) 0.0333(6) -0.0030(5) -0.0159(5) -0.0048(5)
C8 0.0341(6) 0.0523(7) 0.0320(6) -0.0008(5) -0.0134(5) 0.0004(5)
C9 0.0457(7) 0.0526(8) 0.0419(7) 0.0009(6) -0.0224(6) -0.0131(6)
C10 0.0426(7) 0.0409(7) 0.0447(7) 0.0023(5) -0.0196(6) -0.0112(5)
C11 0.0308(6) 0.0398(6) 0.0328(6) 0.0008(5) -0.0115(5) -0.0055(5)
C12 0.0425(7) 0.0419(7) 0.0429(7) -0.0020(5) -0.0211(6) -0.0073(5)
C13 0.0451(7) 0.0394(7) 0.0473(7) -0.0026(5) -0.0214(6) -0.0006(5)
C14 0.0332(6) 0.0384(6) 0.0345(6) 0.0000(5) -0.0128(5) -0.0054(5)
C15 0.0616(10) 0.0520(8) 0.0568(9) -0.0181(7) -0.0328(8) 0.0094(7)
C16 0.0333(6) 0.0364(6) 0.0365(6) -0.0022(5) -0.0130(5) -0.0010(5)
N1 0.0360(5) 0.0396(5) 0.0339(5) -0.0005(4) -0.0162(4) -0.0013(4)
N2 0.0365(6) 0.0404(6) 0.0354(5) -0.0073(4) -0.0166(4) 0.0047(4)
N3 0.0427(6) 0.0574(7) 0.0394(6) -0.0168(5) -0.0187(5) 0.0098(5)
O1 0.0480(6) 0.0675(7) 0.0456(6) -0.0137(5) -0.0208(5) 0.0146(5)
O2 0.0404(5) 0.0622(6) 0.0387(5) -0.0055(4) -0.0193(4) 0.0083(4)
S1 0.0454(2) 0.0720(3) 0.0464(2) -0.01842(18) -0.02749(17) 0.01713(18)
loop_
_atom_type_symbol
_atom_type_description
_atom_type_scat_dispersion_real
_atom_type_scat_dispersion_imag
_atom_type_scat_source
C C 0.0033 0.0016 'International Tables Vol C Tables 4.2.6.8 and 6.1.1.4'
H H 0.0000 0.0000 'International Tables Vol C Tables 4.2.6.8 and 6.1.1.4'
N N 0.0061 0.0033 'International Tables Vol C Tables 4.2.6.8 and 6.1.1.4'
O O 0.0106 0.0060 'International Tables Vol C Tables 4.2.6.8 and 6.1.1.4'
S S 0.1246 0.1234 'International Tables Vol C Tables 4.2.6.8 and 6.1.1.4'
loop_
_geom_angle_atom_site_label_1
_geom_angle_atom_site_label_2
_geom_angle_atom_site_label_3
_geom_angle
C2 C1 C6 119.40(14)
C2 C1 H1 120.3
C6 C1 H1 120.3
C3 C2 C1 120.47(15)
C3 C2 H2 119.8
C1 C2 H2 119.8
C2 C3 C4 120.27(14)
C2 C3 H3 119.9
C4 C3 H3 119.9
C3 C4 C5 119.92(16)
C3 C4 H4 120.0
C5 C4 H4 120.0
C4 C5 C6 119.80(14)
C4 C5 H5 120.1
C6 C5 H5 120.1
C1 C6 C5 120.12(13)
C1 C6 C7 122.27(12)
C5 C6 C7 117.51(12)
O1 C7 O2 122.72(12)
O1 C7 C6 124.71(12)
O2 C7 C6 112.56(11)
C9 C8 C13 121.44(12)
C9 C8 O2 121.45(12)
C13 C8 O2 117.08(12)
C8 C9 C10 118.95(12)
C8 C9 H9 120.5
C10 C9 H9 120.5
C9 C10 C11 120.96(12)
C9 C10 H10 119.5
C11 C10 H10 119.5
C10 C11 C12 118.52(12)
C10 C11 C14 122.07(11)
C12 C11 C14 119.40(11)
C13 C12 C11 120.66(12)
C13 C12 H12 119.7
C11 C12 H12 119.7
C8 C13 C12 119.37(13)
C8 C13 H13 120.3
C12 C13 H13 120.3
N1 C14 C11 114.67(11)
N1 C14 C15 126.07(12)
C11 C14 C15 119.26(11)
C14 C15 H15A 109.5
C14 C15 H15B 109.5
H15A C15 H15B 109.5
C14 C15 H15C 109.5
H15A C15 H15C 109.5
H15B C15 H15C 109.5
N3 C16 N2 116.66(11)
N3 C16 S1 122.30(10)
N2 C16 S1 121.02(9)
C14 N1 N2 118.03(10)
C16 N2 N1 117.98(10)
C16 N2 H2A 121.0
N1 N2 H2A 121.0
C16 N3 H3A 120.0
C16 N3 H3B 120.0
H3A N3 H3B 120.0
C7 O2 C8 116.96(10)
loop_
_geom_bond_atom_site_label_1
_geom_bond_atom_site_label_2
_geom_bond_distance
C1 C2 1.381(2)
C1 C6 1.3853(19)
C1 H1 0.9300
C2 C3 1.375(3)
C2 H2 0.9300
C3 C4 1.378(3)
C3 H3 0.9300
C4 C5 1.381(2)
C4 H4 0.9300
C5 C6 1.389(2)
C5 H5 0.9300
C6 C7 1.4767(17)
C7 O1 1.1995(16)
C7 O2 1.3555(16)
C8 C9 1.375(2)
C8 C13 1.376(2)
C8 O2 1.4067(15)
C9 C10 1.3858(19)
C9 H9 0.9300
C10 C11 1.3923(18)
C10 H10 0.9300
C11 C12 1.3947(18)
C11 C14 1.4881(17)
C12 C13 1.3815(18)
C12 H12 0.9300
C13 H13 0.9300
C14 N1 1.2820(16)
C14 C15 1.4894(18)
C15 H15A 0.9600
C15 H15B 0.9600
C15 H15C 0.9600
C16 N3 1.3273(16)
C16 N2 1.3437(16)
C16 S1 1.6785(13)
N1 N2 1.3816(14)
N2 H2A 0.8600
N3 H3A 0.8600
N3 H3B 0.8600
loop_
_geom_hbond_atom_site_label_D
_geom_hbond_atom_site_label_H
_geom_hbond_atom_site_label_A
_geom_hbond_site_symmetry_A
_geom_hbond_distance_DH
_geom_hbond_distance_HA
_geom_hbond_distance_DA
_geom_hbond_angle_DHA
N3 H3A N1 . 0.86 2.24 2.5953(18) 105
N2 H2A S1 2_657.01 0.86 2.68 3.4697(12) 153
N3 H3A O1 1_655.01 0.86 2.27 3.0653(15) 153
C15 H15B O1 2_556.01 0.96 2.55 3.454(2) 156
N3 H3B Cg2 1_655.01 0.86 2.47 3.3385(15) 122
loop_
_geom_torsion_atom_site_label_1
_geom_torsion_atom_site_label_2
_geom_torsion_atom_site_label_3
_geom_torsion_atom_site_label_4
_geom_torsion
C6 C1 C2 C3 -1.3(2)
C1 C2 C3 C4 0.8(3)
C2 C3 C4 C5 0.4(3)
C3 C4 C5 C6 -1.0(2)
C2 C1 C6 C5 0.7(2)
C2 C1 C6 C7 -175.72(13)
C4 C5 C6 C1 0.5(2)
C4 C5 C6 C7 177.06(13)
C1 C6 C7 O1 160.66(14)
C5 C6 C7 O1 -15.8(2)
C1 C6 C7 O2 -18.01(18)
C5 C6 C7 O2 165.53(12)
C13 C8 C9 C10 3.3(2)
O2 C8 C9 C10 -178.70(12)
C8 C9 C10 C11 -2.2(2)
C9 C10 C11 C12 -0.6(2)
C9 C10 C11 C14 178.29(12)
C10 C11 C12 C13 2.4(2)
C14 C11 C12 C13 -176.57(12)
C9 C8 C13 C12 -1.6(2)
O2 C8 C13 C12 -179.67(12)
C11 C12 C13 C8 -1.3(2)
C10 C11 C14 N1 152.10(12)
C12 C11 C14 N1 -28.98(17)
C10 C11 C14 C15 -28.60(19)
C12 C11 C14 C15 150.32(14)
C11 C14 N1 N2 175.16(10)
C15 C14 N1 N2 -4.1(2)
N3 C16 N2 N1 -9.43(18)
S1 C16 N2 N1 172.24(9)
C14 N1 N2 C16 166.17(12)
O1 C7 O2 C8 -2.8(2)
C6 C7 O2 C8 175.91(11)
C9 C8 O2 C7 66.31(17)
C13 C8 O2 C7 -115.64(14)

_cod_database_fobs_code 2241976
