#------------------------------------------------------------------------------
#$Date: 2016-10-29 04:16:44 +0300 (Sat, 29 Oct 2016) $
#$Revision: 187659 $
#$URL: file:///home/coder/svn-repositories/cod/cif/2/24/19/2241909.cif $
#------------------------------------------------------------------------------
#
# This file is available in the Crystallography Open Database (COD),
# http://www.crystallography.net/. The original data for this entry
# were provided by IUCr Journals, http://journals.iucr.org/.
#
# The file may be used within the scientific community so long as
# proper attribution is given to the journal article from which the
# data were obtained.
#
data_2241909
loop_
_publ_author_name
'Tabuchi, Yohei'
'Gotoh, Kazuma'
'Ishida, Hiroyuki'
_publ_section_title
;
 Crystal structures of four co-crystals of
 (<i>E</i>)-1,2-di(pyridin-4-yl)ethene with 4-alkoxybenzoic acids:
 4-methoxybenzoic acid--(<i>E</i>)-1,2-di(pyridin-4-yl)ethene (2/1),
 4-ethoxybenzoic acid--(<i>E</i>)-1,2-di(pyridin-4-yl)ethene (2/1),
 4-<i>n</i>-propoxybenzoic acid--(<i>E</i>)-1,2-di(pyridin-4-yl)ethene
 (2/1) and 4-<i>n</i>-butoxybenzoic
 acid--(<i>E</i>)-1,2-di(pyridin-4-yl)ethene (2/1)
;
_journal_issue                   11
_journal_name_full               'Acta Crystallographica Section E'
_journal_page_first              1666
_journal_page_last               1671
_journal_paper_doi               10.1107/S2056989016017138
_journal_volume                  72
_journal_year                    2016
_chemical_formula_iupac          '2C11 H14 O3, C12 H10 N2'
_chemical_formula_moiety         '2(C11 H14 O3), C12 H10 N2'
_chemical_formula_sum            'C34 H38 N2 O6'
_chemical_formula_weight         570.68
_chemical_name_systematic
;
4-<i>n</i>-Butoxybenzoic acid--(<i>E</i>)-1,2-di(pyridin-4-yl)ethene (2/1)
;
_space_group_IT_number           2
_symmetry_cell_setting           triclinic
_symmetry_space_group_name_Hall  '-P 1'
_symmetry_space_group_name_H-M   'P -1'
_atom_sites_solution_hydrogens   mixed
_cell_angle_alpha                82.29(2)
_cell_angle_beta                 78.54(3)
_cell_angle_gamma                86.79(3)
_cell_formula_units_Z            1
_cell_length_a                   7.103(4)
_cell_length_b                   9.060(5)
_cell_length_c                   11.627(7)
_cell_measurement_reflns_used    7992
_cell_measurement_temperature    93(2)
_cell_measurement_theta_max      30.01
_cell_measurement_theta_min      3.07
_cell_volume                     726.4(7)
_computing_cell_refinement
;
RAPID-AUTO (Rigaku, 2006)
;
_computing_data_collection
;
RAPID-AUTO (Rigaku, 2006)
;
_computing_data_reduction
;
RAPID-AUTO (Rigaku, 2006)
;
_computing_molecular_graphics
;
ORTEP-3 for Windows (Farrugia, 2012)
;
_computing_publication_material
;
CrystalStructure (Rigaku, 2010) and PLATON (Spek, 2015)
;
_computing_structure_refinement
;
SHELXL2014 (Sheldrick, 2015)
;
_computing_structure_solution
;
<i>Il Milione</i> (Burla <i>et al.</i>,  2007)
;
_diffrn_ambient_temperature      93
_diffrn_detector_area_resol_mean 10.000
_diffrn_measured_fraction_theta_full 0.996
_diffrn_measured_fraction_theta_max 0.995
_diffrn_measurement_device_type  'Rigaku R-AXIS RAPIDII'
_diffrn_measurement_method       \w
_diffrn_radiation_type           'Mo K\a'
_diffrn_radiation_wavelength     0.71075
_diffrn_reflns_av_R_equivalents  0.0325
_diffrn_reflns_limit_h_max       9
_diffrn_reflns_limit_h_min       -9
_diffrn_reflns_limit_k_max       10
_diffrn_reflns_limit_k_min       -11
_diffrn_reflns_limit_l_max       15
_diffrn_reflns_limit_l_min       -15
_diffrn_reflns_number            7250
_diffrn_reflns_theta_full        25.242
_diffrn_reflns_theta_max         27.482
_diffrn_reflns_theta_min         3.071
_diffrn_standards_number         0
_exptl_absorpt_coefficient_mu    0.089
_exptl_absorpt_correction_T_max  0.991
_exptl_absorpt_correction_T_min  0.841
_exptl_absorpt_correction_type   multi-scan
_exptl_absorpt_process_details
;
(ABSCOR; Higashi, 1995)
;
_exptl_crystal_colour            colorless
_exptl_crystal_density_diffrn    1.305
_exptl_crystal_density_method    'not measured'
_exptl_crystal_description       block
_exptl_crystal_F_000             304.00
_exptl_crystal_size_max          0.490
_exptl_crystal_size_mid          0.210
_exptl_crystal_size_min          0.100
_refine_diff_density_max         0.182
_refine_diff_density_min         -0.448
_refine_ls_extinction_method     none
_refine_ls_goodness_of_fit_ref   1.079
_refine_ls_hydrogen_treatment    mixed
_refine_ls_matrix_type           full
_refine_ls_number_parameters     195
_refine_ls_number_reflns         3311
_refine_ls_number_restraints     0
_refine_ls_restrained_S_all      1.079
_refine_ls_R_factor_all          0.0441
_refine_ls_R_factor_gt           0.0406
_refine_ls_shift/su_max          0.001
_refine_ls_shift/su_mean         0.000
_refine_ls_structure_factor_coef Fsqd
_refine_ls_weighting_details
'w=1/[\s^2^(Fo^2^)+(0.0831P)^2^+0.0445P] where P=(Fo^2^+2Fc^2^)/3'
_refine_ls_weighting_scheme      calc
_refine_ls_wR_factor_gt          0.1151
_refine_ls_wR_factor_ref         0.1182
_reflns_number_gt                2919
_reflns_number_total             3311
_reflns_threshold_expression     'I > 2\s(I)'
_cod_data_source_file            lh5826sup1.cif
_cod_data_source_block           IV
_cod_original_cell_volume        726.3(7)
_cod_database_code               2241909
_shelx_hkl_file
;
   0   0   2 1017.85   21.78
   0   0  -2 1040.34   22.86
   0   0   3  218.04    4.86
   0   0  -3  219.90    4.82
   0   0   4   85.16    2.33
   0   0  -4   82.49    1.62
   0   0   5  126.74    2.39
   0   0  -5  126.00    2.95
   0   0   6  167.65    3.92
   0   0  -6  160.47    3.69
   0   0   7   76.86    2.52
   0   0  -7   74.27    1.65
   0   0   8   27.01    1.14
   0   0  -8   26.49    1.70
   0   0   9   37.18    2.34
   0   0  -9   35.76    2.13
   0   0  10  836.43   20.79
   0   0 -10  807.95   18.80
   0   0  11  323.72    7.04
   0   0 -11  314.75    8.26
   0   0  12   15.30    2.28
   0   0 -12   13.36    2.08
   0   0  13    0.53    1.60
   0   0 -13    0.52    0.81
   0   0  14    0.35    0.90
   0   0 -14    0.30    1.54
   0   1 -14  118.45    4.97
   0  -1  14  129.37    3.66
   0   1 -13   24.67    1.58
   0  -1  13   27.84    2.81
   0   1 -12  173.85    6.03
   0  -1  12  179.15    6.17
   0   1 -11 1464.59   41.60
   0  -1  11 1506.18   41.94
   0   1 -10 2557.09   74.49
   0  -1  10 2390.03   69.11
   0   1  -9   86.59    3.35
   0  -1   9   90.33    2.44
   0   1  -8   30.62    1.16
   0  -1   8   29.63    2.09
   0   1  -7   44.99    1.97
   0  -1   7   44.38    2.07
   0   1  -6  533.28   10.77
   0  -1   6  559.64   12.20
   0   1  -5   73.12    1.57
   0  -1   5   76.38    2.34
   0   1  -4    0.29    0.80
   0  -1   4    0.01    0.85
   0   1  -3 1353.25   31.52
   0  -1   3 1361.48   31.75
   0   1  -2   56.59    2.04
   0  -1   2   57.18    2.05
   0   1  -1  324.61    5.52
   0   1  -1  312.08    5.35
   0  -1   1  322.62    5.51
   0   1   2 1118.52   24.80
   0  -1  -2 1119.33   24.78
   0   1   3    0.40    0.78
   0  -1  -3    0.46    0.79
   0   1   4    2.77    0.82
   0  -1  -4    3.42    0.81
   0   1   5  624.19   13.34
   0  -1  -5  670.54   13.41
   0   1   6  365.36    7.65
   0  -1  -6  351.72    7.30
   0   1   7   30.89    1.59
   0  -1  -7   25.29    1.42
   0   1   8  771.52   16.72
   0  -1  -8  753.42   17.44
   0   1   9   20.30    1.85
   0  -1  -9   19.96    1.00
   0   1  10  226.20    4.74
   0  -1 -10  213.95    4.49
   0   1  11    0.25    1.28
   0  -1 -11    0.43    1.18
   0   1  12    1.78    0.82
   0  -1 -12    1.94    1.40
   0   1  13   33.70    2.43
   0  -1 -13   32.78    2.32
   0   1  14   38.61    2.68
   0  -1 -14   34.68    1.59
   0   2 -14    1.55    1.99
   0  -2  14    2.01    2.18
   0   2 -13    6.10    2.27
   0  -2  13    7.87    2.39
   0   2 -12  129.29    5.01
   0  -2  12  135.94    5.21
   0   2 -11    5.93    2.02
   0  -2  11    8.30    1.23
   0   2 -10    2.23    1.61
   0  -2  10    3.03    0.96
   0   2  -9   49.41    2.62
   0  -2   9   50.07    1.76
   0   2  -8   27.18    1.94
   0  -2   8   26.08    2.15
   0   2  -7   27.24    1.08
   0  -2   7   28.55    1.99
   0   2  -6  116.46    2.40
   0  -2   6  123.74    3.37
   0   2  -5   31.09    1.01
   0  -2   5   31.08    1.06
   0   2  -4    9.10    0.64
   0  -2   4    8.25    0.66
   0   2  -3 2811.42   79.78
   0  -2   3 2804.68   79.66
   0   2  -2  232.55    4.19
   0   2  -2  223.96    4.08
   0  -2   2  235.57    4.95
   0   2  -1   28.32    1.04
   0   2  -1   29.48    1.42
   0  -2   1   28.78    1.11
   0  -2   1   29.74    1.41
   0   2   0  926.66   19.44
   0  -2   0  942.21   19.77
   0  -2   0  925.59   19.29
   0   2   1    9.46    0.62
   0  -2  -1    9.38    0.62
   0   2   2  243.68    4.39
   0  -2  -2  267.57    4.86
   0   2   3    0.48    0.52
   0  -2  -3    0.42    0.54
   0   2   4 2938.99   83.22
   0  -2  -4 2905.73   81.71
   0   2   5  950.82   21.47
   0  -2  -5 1018.06   22.68
   0   2   6    5.51    0.53
   0  -2  -6    5.29    0.91
   0   2   7 3330.18  101.52
   0  -2  -7 3398.94  103.87
   0   2   8   27.66    1.62
   0  -2  -8   27.90    1.48
   0   2   9   16.69    1.54
   0  -2  -9   15.20    0.81
   0   2  10   21.68    1.03
   0  -2 -10   23.29    0.98
   0   2  11   27.98    1.91
   0  -2 -11   26.91    1.09
   0   2  12  190.03    5.23
   0  -2 -12  183.24    5.06
   0   2  13   14.72    1.85
   0  -2 -13   11.67    1.70
   0   2  14   12.03    1.12
   0  -2 -14   13.34    1.77
   0   3 -13   66.52    3.90
   0  -3  13   65.03    2.53
   0   3 -12   17.81    2.52
   0  -3  12   20.22    1.55
   0   3 -11   15.87    2.36
   0  -3  11   19.64    1.44
   0   3 -10    1.87    1.61
   0  -3  10    1.90    1.72
   0   3  -9   24.00    1.28
   0  -3   9   24.06    2.33
   0   3  -8    0.61    0.72
   0  -3   8    0.55    1.45
   0   3  -7  867.55   20.92
   0  -3   7  899.27   21.81
   0   3  -6   50.34    2.17
   0  -3   6   49.80    2.26
   0   3  -5  185.84    3.58
   0  -3   5  192.13    4.51
   0   3  -4  494.60   10.62
   0   3  -4  497.63    9.66
   0  -3   4  491.09    9.69
   0   3  -3  587.69   11.71
   0   3  -3  653.60   13.11
   0  -3   3  625.15   13.37
   0   3  -2   10.93    0.64
   0   3  -2   10.32    1.02
   0  -3   2   11.60    0.72
   0  -3   2   10.37    1.02
   0   3  -1  604.13   12.38
   0   3  -1  614.12   12.24
   0  -3   1  599.89   12.27
   0  -3   1  598.89   11.98
   0  -3   0  171.35    2.93
   0  -3   0  178.59    3.32
   0  -3  -1 1040.58   23.52
   0  -3  -1 1029.01   22.38
   0   3   2  881.16   18.76
   0  -3  -2  895.36   18.70
   0   3   3  146.09    2.53
   0  -3  -3  143.85    2.57
   0   3   4  287.65    5.25
   0  -3  -4  278.61    5.14
   0   3   5   99.08    2.08
   0  -3  -5   98.82    2.07
   0   3   6  839.23   18.30
   0  -3  -6  809.07   17.60
   0   3   7  383.65    7.89
   0  -3  -7  374.88    7.13
   0   3   8   10.38    1.12
   0  -3  -8   10.34    1.05
   0   3   9   27.65    1.59
   0  -3  -9   26.55    1.45
   0   3  10   29.82    1.69
   0  -3 -10   28.28    0.98
   0   3  11  319.08    7.49
   0  -3 -11  304.87    7.15
   0   3  12   12.93    0.91
   0  -3 -12   13.49    1.46
   0   3  13   23.35    1.87
   0  -3 -13   22.06    1.79
   0   3  14   53.93    2.62
   0  -3 -14   51.75    1.68
   0   4 -13   -0.21    1.79
   0  -4  13    0.38    1.95
   0   4 -12   -0.06    0.36
   0   4 -12   -0.15    0.90
   0  -4  12    0.50    1.77
   0   4 -11  215.99    5.32
   0  -4  11  227.07    7.18
   0   4 -10   59.56    3.26
   0  -4  10   60.52    2.13
   0   4  -9    6.09    0.46
   0   4  -9    9.59    1.84
   0  -4   9    8.02    1.07
   0   4  -8    0.01    1.34
   0   4  -8    0.54    0.58
   0  -4   8    0.47    0.78
   0   4  -7   36.53    1.17
   0   4  -7   36.95    2.23
   0  -4   7   36.56    1.47
   0   4  -6    6.68    0.68
   0   4  -6    6.54    1.42
   0  -4   6    7.15    0.84
   0   4  -5  240.51    5.58
   0   4  -5  243.11    4.53
   0  -4   5  242.82    5.67
   0   4  -4  587.85   11.80
   0   4  -4  607.28   13.33
   0  -4   4  608.64   13.33
   0   4  -3  113.70    2.80
   0   4  -3  115.44    2.19
   0  -4   3  115.05    2.21
   0   4  -2   32.17    1.32
   0   4  -2   35.15    1.02
   0  -4   2   33.07    1.37
   0  -4   2   33.63    1.06
   0   4  -1    4.17    0.63
   0  -4   1    4.66    0.66
   0  -4   1    4.70    0.42
   0  -4   0  839.99   17.51
   0  -4   0  823.06   17.57
   0  -4  -1 5723.43  194.11
   0  -4  -1 5744.42  194.67
   0  -4  -1 5628.98  192.93
   0  -4  -2  100.72    2.64
   0  -4  -2  102.15    1.86
   0   4   3    0.91    0.37
   0  -4  -3    0.73    0.56
   0   4   4   88.40    1.66
   0  -4  -4   85.05    1.66
   0   4   5  304.43    5.60
   0  -4  -5  297.49    5.55
   0   4   6  108.42    2.25
   0  -4  -6  105.22    2.23
   0   4   7    0.12    0.58
   0  -4  -7    0.13    0.56
   0   4   8    6.03    0.88
   0  -4  -8    5.98    0.85
   0   4   9   21.48    0.77
   0  -4  -9   20.82    0.75
   0   4  10  101.55    2.71
   0  -4 -10   96.61    2.56
   0   4  11  230.76    5.33
   0  -4 -11  223.54    5.23
   0   4  12   11.97    1.37
   0  -4 -12   11.88    1.27
   0   4  13   34.07    1.86
   0  -4 -13   32.42    1.81
   0   4  14    6.17    1.34
   0  -4 -14    5.39    1.27
   0   5 -12   27.55    3.21
   0  -5  12   28.31    3.39
   0   5 -11   22.25    1.64
   0   5 -11   19.89    1.01
   0  -5  11   23.40    2.89
   0   5 -10  430.23   11.74
   0   5 -10  415.51    8.78
   0  -5  10  432.30   11.78
   0   5  -9  130.05    4.59
   0   5  -9  128.67    2.70
   0  -5   9  131.44    4.69
   0   5  -8   10.60    1.85
   0   5  -8    9.62    0.99
   0  -5   8    9.04    1.94
   0   5  -7    0.63    0.50
   0   5  -7    0.59    1.30
   0  -5   7    1.51    1.42
   0   5  -6   44.06    1.21
   0   5  -6   42.67    1.46
   0  -5   6   43.81    2.42
   0   5  -5  411.15    7.98
   0   5  -5  397.88    9.20
   0  -5   5  402.44    9.32
   0   5  -4   55.04    1.41
   0   5  -4   58.21    1.38
   0  -5   4   57.07    2.19
   0   5  -3  316.51    6.09
   0   5  -3  343.40    6.46
   0  -5   3  330.58    6.32
   0   5  -2  159.36    3.08
   0  -5   2  164.35    2.83
   0   5  -1  473.33    8.95
   0  -5   1  469.69    9.44
   0  -5   1  472.53    9.64
   0  -5   0 1310.41   30.55
   0  -5   0 1370.15   32.30
   0  -5  -1  748.20   15.72
   0  -5  -1  784.22   16.41
   0  -5  -1  812.30   16.90
   0  -5  -2    2.22    0.88
   0  -5  -2    2.22    0.46
   0  -5  -3  343.73    7.35
   0  -5  -3  355.37    6.43
   0   5   4   77.41    1.46
   0  -5  -4   76.41    1.50
   0   5   5  250.67    4.48
   0  -5  -5  247.00    4.52
   0   5   6   74.69    1.59
   0  -5  -6   72.15    1.63
   0   5   7  141.34    2.82
   0  -5  -7  133.74    2.73
   0   5   8   21.26    1.03
   0  -5  -8   21.32    1.04
   0   5   9    6.53    0.83
   0  -5  -9    5.75    0.79
   0   5  10   35.92    1.36
   0  -5 -10   33.95    1.36
   0   5  11   54.06    1.79
   0  -5 -11   50.21    1.75
   0   5  12  145.25    3.53
   0  -5 -12  133.20    3.45
   0   5  13    5.01    1.04
   0  -5 -13    2.74    1.03
   0   5  14    0.09    0.91
   0  -5 -14    0.39    0.87
   0   6 -11   21.08    2.87
   0  -6  11   23.04    2.99
   0   6 -10   90.87    2.82
   0   6 -10   87.65    1.97
   0  -6  10   99.54    4.29
   0   6  -9   11.78    0.72
   0   6  -9   11.85    1.22
   0  -6   9   11.14    2.25
   0   6  -8    7.64    0.65
   0   6  -8    6.89    1.03
   0  -6   8    7.63    1.98
   0   6  -7   86.14    2.28
   0   6  -7   90.13    1.91
   0  -6   7   88.48    3.54
   0   6  -6  212.90    4.08
   0   6  -6  202.34    5.47
   0  -6   6  207.86    5.58
   0   6  -5   11.72    0.91
   0   6  -5   13.12    0.76
   0  -6   5   12.85    1.72
   0   6  -4  149.68    2.96
   0   6  -4  142.47    3.87
   0  -6   4  147.58    4.01
   0   6  -3   88.22    1.96
   0  -6   3   93.40    2.78
   0   6  -2  186.64    3.76
   0  -6   2  189.76    3.89
   0  -6   2  185.90    3.50
   0  -6   1   -0.14    0.61
   0  -6   1    0.04    0.63
   0  -6   0    3.52    0.68
   0  -6   0    3.12    0.45
   0  -6   0    3.72    0.66
   0  -6  -1  756.05   16.66
   0  -6  -1  731.13   15.37
   0  -6  -2    2.58    0.53
   0  -6  -2    1.98    0.50
   0  -6  -2    2.34    0.48
   0  -6  -3    1.89    0.45
   0  -6  -3    1.89    0.99
   0  -6  -4  302.28    5.50
   0  -6  -4  292.51    5.84
   0   6   5  664.96   13.82
   0  -6  -5  651.56   13.30
   0  -6  -5  642.62   13.91
   0   6   6   40.35    1.08
   0  -6  -6   40.15    1.16
   0   6   7  402.19    8.08
   0  -6  -7  397.41    8.64
   0   6   8 2411.04   68.17
   0  -6  -8 2519.99   71.37
   0   6   9    6.88    0.73
   0  -6  -9    6.90    0.73
   0   6  10   13.37    0.89
   0  -6 -10   12.14    0.87
   0   6  11    1.42    0.66
   0  -6 -11    1.04    0.67
   0   6  12    0.52    0.65
   0  -6 -12    0.04    0.67
   0   6  13   11.91    1.06
   0  -6 -13   10.78    1.08
   0   7 -10    4.60    2.11
   0  -7  10    5.11    2.24
   0   7  -9   34.85    2.88
   0  -7   9   36.89    3.01
   0   7  -8    4.07    1.84
   0   7  -8    4.85    0.56
   0  -7   8    4.49    1.10
   0   7  -7   28.21    2.48
   0   7  -7   27.38    0.97
   0  -7   7   27.95    1.54
   0   7  -6 2042.71   55.58
   0   7  -6 2073.32   58.14
   0  -7   6 2005.97   55.46
   0   7  -5    8.69    0.77
   0  -7   5    8.38    1.01
   0   7  -4    3.65    0.69
   0  -7   4    3.55    0.77
   0  -7   3 1063.84   26.08
   0  -7   2  595.56   12.87
   0  -7   2  591.17   13.28
   0  -7   1   27.30    1.34
   0  -7   1   26.72    0.83
   0  -7   0  247.48    5.01
   0  -7   0  256.22    5.12
   0  -7   0  254.78    4.81
   0  -7  -1   20.14    1.34
   0  -7  -1   18.48    0.91
   0  -7  -1   19.22    0.94
   0  -7  -2    3.91    0.59
   0  -7  -2    3.17    0.58
   0  -7  -2    4.15    1.12
   0  -7  -3    4.75    0.83
   0  -7  -3    4.08    0.57
   0  -7  -3    4.40    0.73
   0  -7  -4 2704.02   76.27
   0  -7  -4 2794.15   82.27
   0  -7  -5  186.08    3.56
   0  -7  -5  168.43    5.58
   0  -7  -6  608.60   12.37
   0  -7  -6  582.47   13.00
   0   7   7   64.16    1.63
   0  -7  -7   61.96    1.39
   0  -7  -7   59.28    3.13
   0   7   8    0.11    0.39
   0  -7  -8    0.18    0.57
   0   7   9    2.08    0.49
   0  -7  -9    1.10    0.50
   0   7  10   87.10    1.95
   0  -7 -10   82.10    1.88
   0   7  11    0.32    0.56
   0  -7 -11    0.65    0.55
   0   7  12    0.76    0.61
   0   8  -9   -0.01    1.27
   0  -8   9   24.27    1.47
   0  -8   8   31.28    1.66
   0   8  -7  241.64    4.92
   0  -8   7  284.22    7.78
   0   8  -6  559.74   12.15
   0  -8   6  609.45   15.30
   0  -8   5   61.84    3.01
   0  -8   4  740.92   17.99
   0  -8   3   97.66    2.97
   0  -8   2   61.71    2.09
   0  -8   2   59.39    1.84
   0  -8   1   29.01    1.37
   0  -8   1   26.04    1.29
   0  -8   1   28.43    1.34
   0  -8   0    7.60    0.88
   0  -8   0    7.48    0.49
   0  -8   0    6.98    1.11
   0  -8  -1  324.74    6.45
   0  -8  -1  331.50    6.59
   0  -8  -1  315.79    6.26
   0  -8  -2  296.51    5.71
   0  -8  -2  285.11    5.81
   0  -8  -2  283.24    5.49
   0  -8  -3  164.48    3.06
   0  -8  -3  158.98    3.35
   0  -8  -3  153.81    4.29
   0  -8  -4   36.47    2.19
   0  -8  -4   37.19    0.98
   0  -8  -4   38.21    0.95
   0  -8  -5    1.42    0.38
   0  -8  -5    1.10    0.73
   0  -8  -5    1.42    0.42
   0  -8  -6    0.18    1.21
   0  -8  -6   -0.08    0.48
   0  -8  -7    1.21    0.39
   0  -8  -7    1.78    1.51
   0   8   8   65.77    1.36
   0  -8  -8   64.87    1.56
   0  -8  -8   64.54    2.14
   0   8   9   61.56    1.34
   0  -8  -9   55.33    1.26
   0  -8  -9   62.12    2.15
   0  -8 -10   11.96    2.41
   0  -8 -11  121.47    5.40
   0  -8 -12  437.19   13.16
   0  -9   8   32.28    2.86
   0  -9   7   17.76    2.23
   0  -9   6    0.64    0.79
   0  -9   5    0.16    0.63
   0  -9   4    0.26    1.08
   0  -9   3    1.37    1.05
   0  -9   2   81.55    2.40
   0  -9   2   83.67    2.52
   0  -9   2   86.32    2.33
   0  -9   1   73.64    1.58
   0  -9   1   75.94    2.26
   0  -9   1   76.04    2.22
   0  -9   0   19.99    1.15
   0  -9   0   19.15    1.44
   0  -9   0   19.52    1.16
   0  -9  -1  933.10   21.83
   0  -9  -1  981.62   23.92
   0  -9  -1 1005.33   23.15
   0  -9  -2    0.30    0.52
   0  -9  -2    0.69    0.54
   0  -9  -2    0.41    1.09
   0  -9  -3   10.63    0.65
   0  -9  -3   11.80    0.91
   0  -9  -3   11.61    0.91
   0  -9  -4    9.25    0.56
   0  -9  -4    6.72    1.60
   0  -9  -4    8.30    0.56
   0  -9  -5    1.48    1.38
   0  -9  -5    0.79    0.51
   0  -9  -5    1.17    0.39
   0  -9  -6    0.36    0.30
   0  -9  -6    0.44    0.33
   0  -9  -6    0.01    1.41
   0  -9  -7  171.03    4.04
   0  -9  -8   51.02    3.14
   0  -9  -9    4.28    1.13
   0  -9 -10   18.61    1.60
   0 -10   6    0.69    1.44
   0 -10   5    3.45    1.47
   0 -10   4   26.88    1.16
   0 -10   3   12.45    1.33
   0 -10   3   13.76    1.41
   0 -10   2   -0.04    0.71
   0 -10   2    0.07    0.79
   0 -10   2    0.16    0.77
   0 -10   1    7.66    0.96
   0 -10   1    6.84    1.08
   0 -10   1    6.39    0.96
   0 -10   0    5.49    1.09
   0 -10   0    5.53    0.83
   0 -10   0    4.47    0.79
   0 -10  -1   22.82    1.62
   0 -10  -1   22.32    1.01
   0 -10  -1   24.39    1.08
   0 -10  -2   18.05    0.84
   0 -10  -2   18.92    0.88
   0 -10  -2   18.57    1.64
   0 -10  -3   37.88    1.06
   0 -10  -3   35.42    2.12
   0 -10  -3   35.74    0.99
   0 -10  -4    4.84    0.48
   0 -10  -4    4.29    0.88
   0 -10  -4    5.15    0.48
   0 -10  -5    0.37    0.75
   0 -10  -6   33.48    1.57
   0 -10  -7    2.79    1.96
   0 -11   3   36.86    1.19
   0 -11   3   37.16    1.91
   0 -11   2  104.77    2.92
   0 -11   2  109.46    3.06
   0 -11   2  111.72    2.34
   0 -11   1   12.43    1.11
   0 -11   1   13.04    1.27
   0 -11   1   14.48    0.70
   0 -11   0    7.00    0.85
   0 -11   0    7.68    1.19
   0 -11   0    6.71    0.88
   0 -11  -1    3.65    0.66
   0 -11  -1    3.08    1.14
   0 -11  -1    2.24    0.69
   0 -11  -2   40.98    2.13
   0 -11  -3   41.18    2.30
   0 -11  -4   29.86    2.30
   0 -11  -5  270.79    7.58
   0 -11  -6   -0.73    1.71
   1 -11  -6   60.28    2.13
   1 -11  -5   41.21    2.71
   1 -11  -4   59.61    2.80
   1 -11  -3   20.20    1.03
   1 -11  -3   20.15    0.98
   1 -11  -3   18.62    1.02
   1 -11  -2   35.45    1.31
   1 -11  -2   38.52    1.37
   1 -11  -2   34.54    1.85
   1 -11  -2   35.34    1.32
   1 -11  -1   49.78    1.68
   1 -11  -1   47.51    1.14
   1 -11  -1   48.41    1.33
   1 -11   0    3.27    0.91
   1 -11   0    4.41    0.92
   1 -11   0    3.84    0.55
   1 -11   1   20.40    0.85
   1 -11   1   19.91    1.23
   1 -11   1   22.43    1.43
   1 -11   2    6.51    0.89
   1 -11   2    7.21    1.28
   1 -11   2    7.70    1.25
   1 -11   3  204.72    5.47
   1 -11   3  195.44    4.31
   1 -10  -5   27.40    1.30
   1 -10  -5   25.07    1.31
   1 -10  -5   25.90    0.99
   1 -10  -4   19.77    0.94
   1 -10  -4   17.40    1.09
   1 -10  -4   19.05    0.91
   1 -10  -3    1.65    1.13
   1 -10  -3    0.60    0.65
   1 -10  -3    1.49    0.62
   1 -10  -2   37.77    1.34
   1 -10  -2   34.01    1.77
   1 -10  -2   34.62    1.30
   1 -10  -1   13.25    0.63
   1 -10  -1   13.97    1.25
   1 -10  -1   13.57    0.62
   1 -10   0   19.94    1.27
   1 -10   0   20.02    1.23
   1 -10   0   18.30    1.20
   1 -10   1   23.42    1.20
   1 -10   1   22.49    1.40
   1 -10   1   24.37    1.45
   1 -10   2    7.88    0.85
   1 -10   2    8.30    1.23
   1 -10   2    7.19    0.70
   1 -10   3   19.49    1.68
   1 -10   3   19.78    1.59
   1 -10   4    2.14    1.32
   1 -10   4    2.79    1.37
   1 -10   5   74.11    2.14
   1 -10   5   73.15    3.08
   1 -10   6   35.56    1.60
   1  -9 -10  213.05    7.29
   1  -9  -9   13.60    2.60
   1  -9  -8   75.53    1.80
   1  -9  -8   79.38    3.79
   1  -9  -7   15.70    1.25
   1  -9  -7   15.05    0.83
   1  -9  -6    0.57    1.41
   1  -9  -6    1.11    0.57
   1  -9  -5    0.97    0.59
   1  -9  -5    0.97    1.29
   1  -9  -4   27.17    1.05
   1  -9  -4   25.34    1.92
   1  -9  -4   27.36    1.08
   1  -9  -3   88.76    2.05
   1  -9  -3   80.86    2.77
   1  -9  -3   82.50    1.99
   1  -9  -2   17.34    1.02
   1  -9  -2   19.43    1.05
   1  -9  -2   17.37    0.86
   1  -9  -1  106.35    2.57
   1  -9  -1  112.73    2.69
   1  -9  -1  107.87    2.85
   1  -9   0    2.66    0.51
   1  -9   0    2.33    0.90
   1  -9   0    3.03    0.91
   1  -9   1  146.93    3.23
   1  -9   1  140.80    3.52
   1  -9   1  143.70    3.58
   1  -9   2   42.10    1.87
   1  -9   2   42.91    1.28
   1  -9   2   43.82    1.40
   1  -9   3   12.33    0.87
   1  -9   3   13.40    0.86
   1  -9   3   12.73    1.45
   1  -9   4    2.60    1.38
   1  -9   4    3.82    0.74
   1  -9   5   21.86    2.02
   1  -9   6   55.64    2.90
   1  -9   7  100.54    4.10
   1  -9   8   65.23    3.59
  -1   8  11   37.99    1.44
   1  -8 -10  222.19    4.85
  -1   8  10  246.35    5.16
   1  -8  -9   33.45    1.23
  -1   8   9   34.15    1.22
   1  -8  -8    6.40    0.75
  -1   8   8    7.05    0.74
   1  -8  -7    0.58    0.58
  -1   8   7    0.68    0.57
   1  -8  -6    7.41    0.99
   1  -8  -6    7.57    0.77
   1  -8  -5   11.68    1.71
   1  -8  -5   12.54    0.87
   1  -8  -4   19.28    1.72
   1  -8  -4   19.88    1.00
   1  -8  -3  629.91   13.43
   1  -8  -3  609.56   13.10
   1  -8  -2   11.95    0.96
   1  -8  -2   11.54    0.98
   1  -8  -2   10.37    1.35
   1  -8  -1    5.91    0.88
   1  -8  -1    6.50    1.04
   1  -8  -1    6.06    0.90
   1  -8   0  203.67    4.42
   1  -8   0  187.40    4.17
   1  -8   0  196.15    4.21
   1  -8   1    0.30    0.84
   1  -8   1    0.64    0.67
   1  -8   1    0.48    0.85
   1  -8   2    3.35    0.68
   1  -8   2    2.97    1.07
   1  -8   2    3.52    1.10
   1  -8   3    3.19    0.69
   1  -8   3    3.00    0.63
   1  -8   3    3.96    0.67
   1  -8   4   71.60    2.82
   1  -8   5   40.01    2.42
   1  -8   6   71.18    3.17
   1  -8   7    0.81    1.59
   1  -8   8   27.14    2.67
   1  -8   9    0.46    1.84
   1  -7 -12   61.26    2.07
  -1   7  12   68.82    2.15
   1  -7 -11   24.88    1.30
  -1   7  11   29.00    1.36
   1  -7 -10   57.59    1.80
  -1   7  10   62.14    1.86
   1  -7  -9    4.35    0.81
  -1   7   9    5.16    0.80
   1  -7  -8    4.98    0.79
  -1   7   8    5.74    0.78
   1  -7  -7   95.17    2.27
  -1   7   7   99.52    2.25
   1  -7  -6  101.40    2.35
  -1   7   6  104.82    2.32
   1  -7  -5   60.03    1.69
  -1   7   5   60.57    1.62
   1  -7  -4   11.80    0.99
   1  -7  -4   12.39    0.98
   1  -7  -3  646.47   13.80
   1  -7  -3  641.02   13.74
   1  -7  -2   26.06    1.19
   1  -7  -2   25.02    1.46
   1  -7  -1   61.36    1.73
   1  -7  -1   56.89    1.68
   1  -7  -1   62.08    1.90
   1  -7   0   70.15    2.02
   1  -7   0   69.30    1.89
   1  -7   0   65.86    1.41
   1  -7   1    2.41    0.71
   1  -7   1    2.54    0.53
   1  -7   1    2.33    0.95
   1  -7   2  436.20    8.73
   1  -7   2  436.99    9.81
   1  -7   2  421.84    9.46
   1  -7   3   21.57    1.99
   1  -7   3   24.96    1.05
   1  -7   4 2452.03   71.72
   1  -7   5 1301.74   32.36
   1  -7   6  183.04    4.19
   1  -7   7    3.29    0.99
   1  -7   8  169.95    5.56
   1  -7   9  155.83    5.58
   1  -7  10   15.44    2.70
   1  -6 -13    0.13    0.92
  -1   6  13    0.92    0.91
   1  -6 -12   80.93    2.52
  -1   6  12   86.32    2.54
   1  -6 -11   14.22    1.18
  -1   6  11   15.77    1.21
   1  -6 -10   12.04    1.10
  -1   6  10   12.98    1.12
   1  -6  -9   43.02    1.09
  -1   6   9   47.33    1.65
   1  -6  -8  595.71   13.33
  -1   6   8  629.55   13.77
   1  -6  -7   26.27    1.69
  -1   6   7   23.26    1.49
   1  -6  -6 6427.75  235.49
  -1   6   6 6341.76  232.28
   1  -6  -5   30.68    0.99
  -1   6   5   31.08    1.50
   1  -6  -4    1.19    0.72
  -1   6   4    1.58    0.68
   1  -6  -3  268.26    5.37
   1  -6  -2  363.37    7.26
   1  -6  -2  358.25    7.67
   1  -6  -1  100.74    2.41
   1  -6  -1  101.82    2.32
   1  -6   0    0.71    0.70
   1  -6   0    0.24    0.69
   1  -6   1    8.93    1.07
   1  -6   1    9.05    0.76
   1  -6   1    8.46    1.03
   1  -6   2   12.37    0.73
   1  -6   2   12.46    1.27
   1  -6   3  167.83    3.13
   1  -6   3  162.68    4.24
   1  -6   4 2261.70   62.09
   1  -6   5   54.53    2.73
   1  -6   6   -0.29    1.38
   1  -6   7    0.18    0.72
  -1   6  -7   -0.09    0.29
   1  -6   8   12.48    1.17
  -1   6  -8    9.25    0.33
   1  -6   9  162.99    3.98
  -1   6  -9  153.08    3.87
   1  -6  10   11.76    1.41
  -1   6 -10   13.37    1.36
   1  -6  11   20.28    1.69
  -1   6 -11   23.40    1.64
   1  -5 -13    4.74    0.71
  -1   5  13    7.43    1.29
   1  -5 -12   75.32    2.55
  -1   5  12   82.92    2.69
   1  -5 -11    0.92    0.51
  -1   5  11    1.06    0.54
   1  -5 -10   75.84    2.39
  -1   5  10   76.74    2.34
   1  -5  -9    2.01    0.94
  -1   5   9    2.24    0.95
   1  -5  -8    3.37    1.02
  -1   5   8    3.07    0.99
   1  -5  -7  236.42    5.23
  -1   5   7  251.97    5.40
   1  -5  -6  370.31    7.81
  -1   5   6  380.73    7.84
   1  -5  -5   57.51    1.74
  -1   5   5   60.78    1.67
   1  -5  -4  329.20    6.54
  -1   5   4  337.03    6.59
   1  -5  -3  234.46    4.59
  -1   5   3  238.33    4.58
   1  -5  -2   45.49    1.36
   1  -5  -1  512.61    9.89
   1  -5  -1  491.49    9.98
   1  -5   0    0.28    0.52
   1  -5   0    0.21    0.35
   1  -5   0    0.60    0.63
   1  -5   1   32.71    1.36
   1  -5   1   34.37    1.03
   1  -5   1   33.99    1.40
   1  -5   2 1037.70   23.75
   1  -5   2  926.55   20.18
   1  -5   3   86.59    1.63
   1  -5   3   84.97    2.57
   1  -5   4  676.83   15.43
   1  -5   5   13.18    0.93
  -1   5  -5   12.91    0.42
   1  -5   6    0.95    1.34
  -1   5  -6    0.94    0.35
  -1   5  -6    0.53    0.69
   1  -5   7   27.76    2.20
  -1   5  -7   26.71    0.75
  -1   5  -7   26.43    2.18
   1  -5   8   43.01    1.66
  -1   5  -8   44.12    2.63
  -1   5  -8   43.73    1.02
   1  -5   9   92.13    2.60
  -1   5  -9   89.13    2.53
  -1   5  -9   92.37    1.65
   1  -5  10    1.53    0.96
  -1   5 -10    0.90    0.93
  -1   5 -10    0.56    0.31
   1  -5  11  245.78    5.93
  -1   5 -11  233.46    5.78
   1  -5  12  337.35    8.18
  -1   5 -12  333.70   10.14
   1  -4 -13    0.82    1.18
  -1   4  13    1.62    1.25
   1  -4 -12    0.87    0.59
  -1   4  12    0.53    1.13
   1  -4 -11   64.59    2.42
  -1   4  11   67.07    2.48
   1  -4 -10   32.55    1.77
  -1   4  10   33.57    1.79
   1  -4  -9  197.30    4.71
  -1   4   9  204.11    4.02
   1  -4  -8    3.62    1.04
  -1   4   8    4.62    1.05
   1  -4  -7  136.52    3.35
  -1   4   7  142.46    3.38
   1  -4  -6  263.32    4.94
  -1   4   6  272.08    5.63
   1  -4  -5   10.25    0.56
  -1   4   5   10.61    0.90
  -1   4   5   10.60    0.91
   1  -4  -4    1.54    0.68
  -1   4   4    1.61    0.64
   1  -4  -3  457.62    8.64
  -1   4   3  469.91    9.35
   1  -4  -2  658.67   13.87
  -1   4   2  706.90   14.76
   1  -4  -1 1135.47   26.04
   1  -4   0  203.06    4.32
   1  -4   0  202.44    4.08
   1  -4   1 4669.22  151.24
   1  -4   1 4805.91  157.38
   1  -4   1 4890.69  157.86
   1  -4   2  247.16    5.24
   1  -4   2  249.85    4.32
   1  -4   3  764.46   16.11
   1  -4   4  171.41    3.27
  -1   4  -4  163.00    2.70
   1  -4   5  114.44    3.21
  -1   4  -5  117.54    1.98
  -1   4  -5  112.45    3.16
   1  -4   6  266.12    6.39
  -1   4  -6  281.37    4.98
  -1   4  -6  256.31    6.16
   1  -4   7   37.22    2.26
  -1   4  -7   38.34    1.01
  -1   4  -7   35.26    2.18
   1  -4   8  136.31    3.18
  -1   4  -8  131.96    3.09
  -1   4  -8  141.28    2.74
   1  -4   9    4.76    0.96
  -1   4  -9    3.33    0.92
  -1   4  -9    3.40    0.45
   1  -4  10   14.52    2.32
  -1   4 -10   12.90    0.88
  -1   4 -10   11.96    1.24
   1  -4  11    1.61    1.76
  -1   4 -11    0.21    0.91
  -1   4 -11    0.43    0.44
   1  -4  12   86.73    4.28
  -1   4 -12   82.31    4.16
   1  -4  13   16.27    2.80
  -1   4 -13   12.94    2.60
   1  -3 -14   13.88    1.09
  -1   3  14   14.60    2.00
   1  -3 -13   71.65    3.05
  -1   3  13   81.34    3.21
   1  -3 -12   47.37    2.37
  -1   3  12   48.59    1.63
   1  -3 -11   10.18    1.56
  -1   3  11   13.41    0.97
   1  -3 -10   68.22    1.73
  -1   3  10   72.55    1.84
   1  -3  -9   63.84    2.38
  -1   3   9   64.96    2.46
   1  -3  -8   51.10    1.36
  -1   3   8   52.94    2.12
   1  -3  -7  345.51    6.79
  -1   3   7  357.43    7.74
   1  -3  -6   56.83    1.84
  -1   3   6   57.96    1.86
   1  -3  -5  448.60    9.27
  -1   3   5  455.90    8.72
   1  -3  -4   35.43    1.34
  -1   3   4   36.41    1.31
   1  -3  -3  368.04    7.30
  -1   3   3  380.53    7.45
   1  -3  -2  823.33   17.72
  -1   3   2  806.40   16.67
   1  -3  -1   24.65    1.16
  -1   3   1   25.14    0.71
   1  -3   0 1633.24   39.52
   1  -3   1  263.68    4.60
   1  -3   2   14.96    0.57
   1  -3   2   16.71    1.16
   1  -3   3  243.75    5.17
   1  -3   4   10.21    0.68
  -1   3  -4    9.98    1.18
  -1   3  -4   10.47    0.38
   1  -3   5  721.02   16.08
  -1   3  -5  687.77   13.56
  -1   3  -5  761.65   15.95
   1  -3   6   11.72    1.24
  -1   3  -6    9.52    1.21
  -1   3  -6    2.44    0.20
   1  -3   7    5.64    0.79
  -1   3  -7    5.59    0.77
   1  -3   8   54.44    2.71
  -1   3  -8   54.09    1.67
   1  -3   9  329.39    8.35
  -1   3  -9  328.68    7.07
   1  -3  10   13.73    2.04
  -1   3 -10   10.56    1.12
   1  -3  11    5.14    1.91
  -1   3 -11    3.70    1.03
   1  -3  12   13.40    2.36
  -1   3 -12   12.65    2.27
   1  -3  13    0.59    1.82
  -1   3 -13   -0.14    1.68
   1  -2 -14    0.59    1.50
  -1   2  14    1.73    0.91
   1  -2 -13  111.07    4.07
  -1   2  13  118.39    4.25
   1  -2 -12   12.60    1.81
  -1   2  12   13.74    1.11
   1  -2 -11    6.12    1.50
  -1   2  11    7.17    0.92
   1  -2 -10   42.29    1.40
  -1   2  10   45.33    2.33
   1  -2  -9   57.09    2.37
  -1   2   9   59.82    2.58
   1  -2  -8  193.84    4.79
  -1   2   8  201.96    5.03
   1  -2  -7   70.71    2.34
  -1   2   7   75.85    2.52
   1  -2  -6    4.33    1.04
  -1   2   6    4.67    0.59
   1  -2  -5 1896.67   49.25
  -1   2   5 1809.12   45.97
   1  -2  -4  126.15    2.92
  -1   2   4  131.61    3.00
   1  -2  -3  208.05    4.32
  -1   2   3  214.85    4.37
   1  -2  -2    4.54    0.90
  -1   2   2    0.96    0.83
   1  -2  -1 2188.12   58.00
  -1   2   1 2187.81   57.79
   1  -2   0  113.90    2.89
  -1   2   0  115.22    2.83
   1  -2   2  218.95    3.90
   1  -2   2  199.04    3.08
   1  -2   3  134.76    3.05
  -1   2  -3  134.84    3.10
  -1   2  -3  113.60    1.59
   1  -2   4  682.24   14.09
  -1   2  -4  737.09   15.13
   1  -2   5 3564.07  107.68
  -1   2  -5 3709.10  112.28
   1  -2   6  155.81    3.04
  -1   2  -6  152.81    2.99
   1  -2   7  172.31    4.33
  -1   2  -7  168.55    3.40
   1  -2   8    8.55    0.89
  -1   2  -8    9.15    1.50
   1  -2   9  153.36    3.43
  -1   2  -9  147.29    4.39
   1  -2  10   21.69    1.28
  -1   2 -10   23.33    1.23
   1  -2  11    3.25    1.72
  -1   2 -11    2.45    0.91
   1  -2  12    3.94    1.83
  -1   2 -12    1.48    1.75
   1  -2  13   10.56    2.26
  -1   2 -13    8.47    1.21
   1  -2  14   32.34    3.12
  -1   2 -14   31.17    2.95
   1  -1 -14   67.58    2.36
  -1   1  14   71.97    3.72
   1  -1 -13    9.05    1.91
  -1   1  13   10.44    1.18
   1  -1 -12   27.12    2.34
  -1   1  12   31.38    2.50
   1  -1 -11  104.55    3.68
  -1   1  11  108.56    2.78
   1  -1 -10   10.15    0.92
  -1   1  10   11.05    1.82
   1  -1  -9  612.45   13.62
  -1   1   9  654.94   15.86
   1  -1  -8  100.45    2.29
  -1   1   8  105.27    3.43
   1  -1  -7  275.95    6.41
  -1   1   7  285.42    6.65
   1  -1  -6 2255.70   60.90
  -1   1   6 2251.59   62.34
   1  -1  -5 1267.58   29.41
  -1   1   5 1217.99   29.49
   1  -1  -4    0.57    0.90
  -1   1   4    2.96    0.94
   1  -1  -3  578.48   12.24
  -1   1   3  553.90   11.80
   1  -1  -2 1083.22   25.41
  -1   1   2 1087.55   25.31
   1  -1  -1  227.08    4.05
  -1   1   1  223.91    4.00
   1  -1   0  639.95   13.06
  -1   1   0  619.14   12.09
   1  -1   1  273.88    5.47
   1  -1   2 1179.07   27.48
   1  -1   3   78.75    2.32
  -1   1  -3   78.23    2.22
   1  -1   4  507.28   10.76
  -1   1  -4  555.50   11.52
   1  -1   5  916.23   19.83
   1  -1   6  275.54    5.16
  -1   1  -6  276.61    5.15
   1  -1   7   80.33    2.52
  -1   1  -7   77.58    2.40
   1  -1   8   21.72    1.75
  -1   1  -8   19.77    1.62
   1  -1   9    2.79    0.81
  -1   1  -9    2.19    1.35
   1  -1  10  505.06   11.03
  -1   1 -10  498.43   11.06
   1  -1  11  107.41    2.86
  -1   1 -11  109.96    4.08
   1  -1  12  948.64   23.12
  -1   1 -12  934.34   25.20
   1  -1  13  142.08    3.62
  -1   1 -13  134.09    3.58
   1  -1  14    6.04    1.15
  -1   1 -14    4.57    1.97
   1   0 -14   13.92    1.37
  -1   0  14   14.29    2.61
   1   0 -13    1.07    0.93
  -1   0  13    1.01    1.83
   1   0 -12   96.54    2.73
  -1   0  12  102.20    2.86
   1   0 -11   -0.55    1.38
  -1   0  11    0.81    1.46
   1   0 -10   31.35    2.31
  -1   0  10   30.78    1.50
   1   0  -9  237.47    6.30
  -1   0   9  250.09    6.75
   1   0  -8  263.49    6.51
  -1   0   8  279.39    6.97
   1   0  -7    9.11    1.39
  -1   0   7   11.33    1.57
   1   0  -6    9.79    0.73
  -1   0   6   10.00    0.77
   1   0  -5  621.13   13.56
  -1   0   5  595.97   13.17
   1   0  -4   74.12    1.59
  -1   0   4   76.60    2.34
   1   0  -3   12.03    0.77
  -1   0   3   12.43    1.36
   1   0  -2  530.54   10.63
  -1   0   2  543.81   11.98
   1   0  -1  299.89    5.33
  -1   0   1  313.21    6.19
   1   0   1  956.34   20.38
   1   0   1  950.80   20.01
  -1   0  -1  944.58   20.16
  -1   0  -1  969.69   20.34
   1   0   214568.11  667.76
   1   0   217955.48  823.71
  -1   0  -215095.24  692.12
   1   0   3  300.58    5.46
  -1   0  -3  325.45    6.53
   1   0   4  819.05   17.83
  -1   0  -4  856.10   18.58
   1   0   5   57.49    1.74
  -1   0  -5   57.50    1.22
   1   0   6  122.30    2.92
  -1   0  -6  120.84    2.85
   1   0   7  137.18    2.66
  -1   0  -7  136.02    3.21
   1   0   8 1376.92   33.89
  -1   0  -8 1542.47   39.17
   1   0   9 1057.27   26.39
  -1   0  -9 1094.17   27.29
   1   0  10  292.31    7.45
  -1   0 -10  284.33    6.05
   1   0  11    8.69    1.86
  -1   0 -11    8.31    1.74
   1   0  12  751.20   19.16
  -1   0 -12  731.32   17.28
   1   0  13   19.33    1.30
  -1   0 -13   20.44    2.12
   1   0  14   21.45    1.36
  -1   0 -14   19.19    1.31
   1   1 -14    2.24    2.10
  -1  -1  14    3.76    2.27
   1   1 -13   19.06    1.60
  -1  -1  13   20.67    2.90
   1   1 -12  744.45   18.55
  -1  -1  12  782.47   18.97
   1   1 -11   10.69    2.23
  -1  -1  11    6.79    2.41
   1   1 -10   12.36    2.07
  -1  -1  10   10.64    1.25
   1   1  -9  533.76   13.41
  -1  -1   9  556.41   13.93
   1   1  -8  199.36    4.23
  -1  -1   8  207.46    4.43
   1   1  -7  135.66    2.87
  -1  -1   7  142.87    4.04
   1   1  -6  217.78    4.22
  -1  -1   6  221.98    4.30
   1   1  -5   35.41    1.07
  -1  -1   5   35.22    1.13
   1   1  -4   25.21    0.92
  -1  -1   4   26.51    1.57
   1   1  -3   99.05    2.04
  -1  -1   3  101.30    2.09
   1   1  -234479.70 1996.08
  -1  -1   229325.43 1701.06
   1   1  -1   20.06    0.81
   1   1   0 1257.03   28.52
   1   1   0 1288.39   29.90
  -1  -1   0 1276.18   28.93
  -1  -1   0 1270.18   28.66
   1   1   1  447.20    8.23
  -1  -1  -1  466.27    9.15
  -1  -1  -1  450.26    8.05
   1   1   2  147.49    2.54
   1   1   2  157.24    2.75
  -1  -1  -2  153.68    3.30
   1   1   3   15.19    0.81
  -1  -1  -3   16.23    0.68
  -1  -1  -3   15.83    0.81
   1   1   4  880.08   18.81
  -1  -1  -4  870.30   18.66
   1   1   5 1039.04   23.35
  -1  -1  -5 1047.11   23.53
   1   1   6  105.47    2.46
  -1  -1  -6  101.96    2.33
   1   1   7   90.61    1.79
  -1  -1  -7   89.20    2.23
   1   1   8  355.13    6.89
  -1  -1  -8  351.61    7.53
   1   1   9  604.99   12.65
  -1  -1  -9  566.66   11.95
   1   1  10   33.09    1.27
  -1  -1 -10   33.40    1.90
   1   1  11   13.86    1.66
  -1  -1 -11   14.67    1.59
   1   1  12   73.21    2.93
  -1  -1 -12   69.39    2.84
   1   1  13   33.66    2.27
  -1  -1 -13   33.25    1.37
   1   1  14   46.63    2.71
  -1  -1 -14   41.54    2.57
   1   1  15   89.69    2.67
  -1  -1 -15   87.92    2.61
   1   2 -13  393.37    9.95
  -1  -2  13  424.42   12.70
   1   2 -12 1053.39   27.71
  -1  -2  12 1127.64   29.13
   1   2 -11   15.17    2.68
  -1  -2  11   19.23    2.84
   1   2 -10  215.47    5.06
  -1  -2  10  222.43    5.20
   1   2  -9    6.15    0.96
  -1  -2   9    6.15    1.05
   1   2  -8  100.23    3.52
  -1  -2   8  107.70    3.83
   1   2  -7    4.27    0.78
  -1  -2   7    4.66    0.86
   1   2  -6  248.13    5.81
  -1  -2   6  261.65    6.17
   1   2  -5 1174.81   28.12
  -1  -2   5 1098.24   25.37
   1   2  -4  571.98   11.51
  -1  -2   4  570.23   12.49
   1   2  -3    4.79    1.02
  -1  -2   3    5.38    1.07
   1   2  -2  317.56    5.81
  -1  -2   2  315.38    6.53
   1   2  -1    5.03    0.92
   1   2  -1    4.93    1.02
  -1  -2   1    4.88    1.01
   1   2   0 1230.77   27.97
   1   2   0 1258.21   29.76
  -1  -2   0 1210.56   27.67
  -1  -2   0 1257.55   29.96
   1   2   1  427.29    8.93
  -1  -2  -1  424.22    8.02
  -1  -2  -1  402.69    7.36
   1   2   2  454.26    8.68
  -1  -2  -2  471.41    9.84
   1   2   3 1612.40   38.31
  -1  -2  -3 1616.82   40.24
  -1  -2  -3 1634.57   38.78
   1   2   4  277.46    4.94
  -1  -2  -4  300.40    5.51
   1   2   5 1246.78   28.79
  -1  -2  -5 1279.99   29.53
   1   2   6 2502.28   69.04
  -1  -2  -6 2480.28   67.79
   1   2   7  508.52   10.60
  -1  -2  -7  499.64   10.35
   1   2   8    8.13    1.06
  -1  -2  -8    8.83    0.97
   1   2   9  196.62    4.54
  -1  -2  -9  189.45    3.63
   1   2  10   10.67    0.77
  -1  -2 -10   10.65    1.21
   1   2  11  239.35    5.80
  -1  -2 -11  233.00    5.54
   1   2  12    0.69    1.15
  -1  -2 -12    0.93    1.07
   1   2  13    2.65    0.72
  -1  -2 -13    2.53    1.22
   1   2  14   33.70    2.15
  -1  -2 -14   30.42    1.31
   1   2  15   98.96    3.77
  -1  -2 -15   98.84    3.65
   1   3 -13   -0.37    1.04
  -1  -3  13   -0.20    1.15
   1   3 -12    0.17    1.73
  -1  -3  12   -0.59    1.88
   1   3 -11   21.90    2.55
  -1  -3  11   21.55    2.75
   1   3 -10   57.77    2.05
  -1  -3  10   60.69    2.14
   1   3  -9   54.16    2.89
  -1  -3   9   55.98    3.11
   1   3  -8   17.29    1.15
  -1  -3   8   16.34    2.22
   1   3  -7  148.72    4.38
  -1  -3   7  153.29    3.51
   1   3  -6   82.67    2.85
  -1  -3   6   86.74    3.09
   1   3  -5 2732.54   77.44
  -1  -3   5 2678.39   75.87
   1   3  -4   52.33    1.95
  -1  -3   4   55.70    2.09
   1   3  -3   50.87    1.77
   1   3  -3   50.84    1.58
  -1  -3   3   53.43    1.87
   1   3  -2    0.50    0.37
   1   3  -2    0.71    0.65
  -1  -3   2    0.16    0.39
   1   3  -1    0.96    0.63
   1   3  -1    0.86    0.40
  -1  -3   1    1.35    0.65
  -1  -3   1    0.89    0.80
   1   3   0  447.21    8.44
   1   3   0  476.43    9.66
  -1  -3   0  460.47    8.73
  -1  -3   0  438.87    8.37
   1   3   1 1143.83   26.46
   1   3   1 1109.31   24.00
  -1  -3  -1 1160.39   25.18
  -1  -3  -1 1146.65   26.54
   1   3   2  539.23   11.34
  -1  -3  -2  555.76   11.62
  -1  -3  -3  360.15    7.47
   1   3   4  193.44    3.27
  -1  -3  -4  190.08    4.31
  -1  -3  -4  199.24    3.29
   1   3   5 4250.06  133.52
  -1  -3  -5 4395.46  137.59
   1   3   6  143.53    2.68
  -1  -3  -6  142.39    2.63
   1   3   7   23.60    1.01
  -1  -3  -7   23.26    0.93
   1   3   8  103.36    2.42
  -1  -3  -8  101.11    2.30
   1   3   9   52.19    1.79
  -1  -3  -9   52.07    1.67
   1   3  10  167.33    3.89
  -1  -3 -10  165.15    3.18
   1   3  11    1.81    0.99
  -1  -3 -11    2.38    0.93
   1   3  12   25.39    1.65
  -1  -3 -12   25.49    1.52
   1   3  13  107.66    3.22
  -1  -3 -13  102.73    2.39
   1   3  14   18.95    1.65
  -1  -3 -14   18.12    1.63
   1   4 -12    1.97    2.08
  -1  -4  12    2.76    1.25
   1   4 -11    0.90    0.99
  -1  -4  11    1.16    1.05
   1   4 -10   33.17    2.74
  -1  -4  10   35.80    3.00
   1   4  -9    3.01    0.94
  -1  -4   9    2.74    1.87
   1   4  -8   10.15    1.85
  -1  -4   8   11.97    1.16
   1   4  -7   63.86    2.03
   1   4  -7   60.44    2.76
  -1  -4   7   62.40    3.05
   1   4  -6   84.75    1.70
   1   4  -6   84.74    2.07
  -1  -4   6   86.02    3.15
   1   4  -5  379.21    7.64
   1   4  -5  396.81    8.17
  -1  -4   5  391.25    7.87
   1   4  -4   11.66    0.71
   1   4  -4    9.69    0.55
  -1  -4   4   11.31    1.35
   1   4  -3    2.99    0.41
   1   4  -3    3.34    0.90
  -1  -4   3    2.83    0.96
   1   4  -2    0.52    0.67
   1   4  -2    0.50    0.36
  -1  -4   2    0.58    0.40
   1   4  -1  540.80   10.87
   1   4  -1  527.92   10.28
  -1  -4   1  541.21   10.59
  -1  -4   1  511.04   10.37
   1   4   0  961.40   20.88
   1   4   0  972.63   21.20
  -1  -4   0  995.17   22.49
  -1  -4   0  994.06   21.57
   1   4   1  110.75    2.65
  -1  -4  -1  114.24    1.92
  -1  -4  -1  109.00    2.08
  -1  -4  -2  718.53   14.15
  -1  -4  -2  737.66   14.51
  -1  -4  -2  779.26   16.12
  -1  -4  -3   78.30    1.08
  -1  -4  -3   76.19    1.66
  -1  -4  -3   83.23    1.13
   1   4   4  425.69    7.32
  -1  -4  -4  427.66    8.26
  -1  -4  -4  406.16    7.03
   1   4   5  443.62    8.17
  -1  -4  -5  476.99    8.55
  -1  -4  -5  455.30    9.87
   1   4   6  234.39    4.09
  -1  -4  -6  232.07    4.01
   1   4   7  236.01    4.36
  -1  -4  -7  238.68    4.38
   1   4   8   14.29    0.85
  -1  -4  -8   13.33    0.77
   1   4   9  252.86    5.15
  -1  -4  -9  253.43    5.13
   1   4  10   49.27    1.60
  -1  -4 -10   47.91    1.53
   1   4  11   24.96    1.31
  -1  -4 -11   23.08    1.24
   1   4  12  100.16    2.69
  -1  -4 -12   92.10    2.55
   1   4  13    6.54    1.12
  -1  -4 -13    5.73    0.61
   1   4  14   35.62    1.15
  -1  -4 -14   25.58    1.72
   1   5 -12   51.36    1.94
   1   5 -12   61.72    3.96
  -1  -5  12   65.62    4.25
   1   5 -11    0.94    0.80
   1   5 -11    0.84    1.91
  -1  -5  11    0.69    1.09
   1   5 -10    4.27    0.93
   1   5 -10    5.75    1.11
  -1  -5  10    4.06    1.20
   1   5  -9    1.97    1.68
   1   5  -9    1.91    0.82
  -1  -5   9    2.50    1.84
   1   5  -8   31.13    1.37
   1   5  -8   31.19    2.36
  -1  -5   8   33.87    2.60
   1   5  -7   49.43    1.64
   1   5  -7   50.75    1.64
  -1  -5   7   49.82    1.72
   1   5  -6  230.12    4.85
   1   5  -6  232.89    4.96
  -1  -5   6  239.80    6.24
   1   5  -5   28.75    0.82
   1   5  -5   29.43    1.13
  -1  -5   5   30.10    2.01
   1   5  -4  123.26    3.29
   1   5  -4  127.12    2.89
  -1  -5   4  129.24    3.51
   1   5  -3   20.61    1.13
   1   5  -3   20.05    0.79
  -1  -5   3   20.13    0.84
   1   5  -2  188.06    3.97
   1   5  -2  186.97    3.97
  -1  -5   2  187.07    4.05
  -1  -5   2  194.47    3.62
   1   5  -1 3343.81  100.10
   1   5  -1 3393.37  102.33
  -1  -5   1 3405.60  101.77
  -1  -5   1 3373.55  101.46
   1   5   0   19.18    0.73
   1   5   0   18.20    0.51
  -1  -5   0   18.35    1.31
  -1  -5   0   19.56    0.84
   1   5   1  181.08    3.34
  -1  -5  -1  180.21    3.12
  -1  -5  -1  175.85    3.97
  -1  -5  -2  192.53    3.25
  -1  -5  -2  185.87    3.00
  -1  -5  -2  181.31    3.46
  -1  -5  -3   38.90    0.78
  -1  -5  -3   38.08    0.66
  -1  -5  -3   37.75    0.69
  -1  -5  -3   43.07    1.15
  -1  -5  -4   23.61    1.51
  -1  -5  -4   23.37    0.39
  -1  -5  -4   25.09    0.44
   1   5   5   25.27    0.51
  -1  -5  -5   23.11    0.98
  -1  -5  -5   24.39    0.51
   1   5   6  346.57    5.99
  -1  -5  -6  333.53    6.70
  -1  -5  -6  350.46    6.08
   1   5   7   94.12    1.91
  -1  -5  -7   96.52    1.94
  -1  -5  -7   96.51    3.17
   1   5   8  131.86    2.81
  -1  -5  -8  125.59    2.37
   1   5   9  129.89    2.59
  -1  -5  -9  130.96    2.60
   1   5  10   12.57    0.82
  -1  -5 -10   12.42    0.81
   1   5  11   76.08    1.94
  -1  -5 -11   71.69    1.89
   1   5  12    3.04    0.78
  -1  -5 -12    2.63    0.74
   1   5  13    2.05    0.80
  -1  -5 -13    1.40    0.77
   1   5  14   19.16    1.24
  -1  -5 -14   13.00    1.22
   1   6 -11  125.32    5.38
   1   6 -11  117.27    3.00
  -1  -6  11  127.46    5.54
   1   6 -10    0.34    0.94
   1   6 -10    0.07    0.68
  -1  -6  10    0.29    0.99
   1   6  -9    5.75    0.86
   1   6  -9    6.69    1.12
  -1  -6   9    7.13    2.13
   1   6  -8    2.69    1.71
   1   6  -8    4.24    0.82
  -1  -6   8    3.16    1.86
  -1  -6   8    3.56    1.81
   1   6  -7   71.42    3.11
   1   6  -7   71.70    1.98
  -1  -6   7   70.83    3.19
   1   6  -6   14.74    1.76
   1   6  -6   15.63    1.07
  -1  -6   6   15.06    1.08
   1   6  -5   -0.03    0.57
   1   6  -5    0.37    0.67
  -1  -6   5   -0.06    1.15
   1   6  -4  461.86   10.58
   1   6  -4  467.64    9.98
  -1  -6   4  470.59   10.86
   1   6  -3   23.19    1.26
   1   6  -3   22.93    1.44
  -1  -6   3   23.18    0.95
   1   6  -2  602.54   13.06
   1   6  -2  623.69   12.74
  -1  -6   2  607.72   13.39
  -1  -6   2  629.44   13.71
   1   6  -1   80.53    1.52
   1   6  -1   82.12    2.24
  -1  -6   1   81.42    2.36
  -1  -6   1   84.44    2.11
   1   6   0   57.04    1.92
  -1  -6   0   57.49    1.44
  -1  -6   0   55.41    1.95
  -1  -6  -1  426.59    8.44
  -1  -6  -1  429.10    8.12
  -1  -6  -2   54.31    1.02
  -1  -6  -2   51.23    0.97
  -1  -6  -2   53.93    1.38
  -1  -6  -3    0.76    0.56
  -1  -6  -3    0.94    0.30
  -1  -6  -3    0.76    0.33
  -1  -6  -4  319.10    7.35
  -1  -6  -4  332.64    5.59
  -1  -6  -4  328.44    5.49
  -1  -6  -5  127.72    1.87
  -1  -6  -5  133.98    1.97
  -1  -6  -5  127.66    3.73
  -1  -6  -6   92.95    3.28
  -1  -6  -6  101.64    1.62
   1   6   7   93.79    1.67
  -1  -6  -7   88.82    3.33
  -1  -6  -7   94.36    1.71
   1   6   8   76.22    1.42
  -1  -6  -8   72.40    1.56
  -1  -6  -8   73.86    2.16
   1   6   9    0.64    0.38
  -1  -6  -9    1.87    1.47
  -1  -6  -9    0.95    0.55
   1   6  10   45.78    1.17
  -1  -6 -10   43.55    1.13
  -1  -6 -10   46.99    2.81
   1   6  11    5.78    0.63
  -1  -6 -11    5.23    0.62
  -1  -6 -11    6.06    1.93
   1   6  12   43.52    1.28
  -1  -6 -12   49.27    3.00
  -1  -6 -12   36.64    1.30
   1   6  13   25.29    1.09
  -1  -6 -13   29.15    2.70
  -1  -6 -13   19.82    1.10
   1   7 -10   22.58    2.78
  -1  -7  10   23.22    1.72
   1   7  -9  124.37    4.86
   1   7  -9  120.87    2.91
  -1  -7   9  131.91    5.03
   1   7  -8    0.45    0.65
   1   7  -8    0.50    1.51
  -1  -7   8   -0.31    1.57
  -1  -7   8    0.13    1.61
   1   7  -7   -0.16    0.61
   1   7  -7    0.45    1.28
  -1  -7   7    0.46    1.34
   1   7  -6    9.34    1.67
   1   7  -6    7.40    0.94
  -1  -7   6    7.38    1.02
   1   7  -5    6.05    0.83
   1   7  -5    7.05    0.97
  -1  -7   5    5.76    1.59
   1   7  -4 1068.40   26.59
   1   7  -4 1092.50   26.38
  -1  -7   4 1109.35   27.75
   1   7  -3   57.21    1.90
   1   7  -3   54.41    2.00
  -1  -7   3   56.38    1.51
   1   7  -2  126.38    3.06
  -1  -7   2  127.44    3.34
  -1  -7   2  126.33    3.17
   1   7  -1   68.90    2.18
  -1  -7   1   71.14    2.35
  -1  -7   1   68.90    1.93
  -1  -7   0    7.10    0.76
  -1  -7   0    6.73    0.68
  -1  -7  -1  123.05    2.37
  -1  -7  -1  125.73    3.45
  -1  -7  -1  126.90    2.44
  -1  -7  -2    0.17    0.35
  -1  -7  -2    0.47    0.55
  -1  -7  -2    0.13    0.33
  -1  -7  -3  272.53    4.64
  -1  -7  -3  265.32    5.44
  -1  -7  -3  273.51    4.66
  -1  -7  -4  241.61    4.02
  -1  -7  -4  246.51    4.14
  -1  -7  -4  223.37    5.92
  -1  -7  -5  696.44   17.68
  -1  -7  -6 5598.46  200.83
  -1  -7  -7    2.85    1.96
   1   7   8  130.76    2.02
  -1  -7  -8  125.46    1.98
  -1  -7  -8  124.10    3.12
   1   7   9   15.53    0.58
  -1  -7  -9   13.50    0.59
  -1  -7  -9   16.78    2.09
   1   7  10    4.19    0.38
  -1  -7 -10    3.36    0.54
  -1  -7 -10    3.35    1.89
  -1  -7 -11   11.82    2.30
  -1  -7 -12   30.57    2.93
  -1  -7 -13    2.40    2.05
   1   8  -9   36.89    1.86
  -1  -8   9   41.55    3.33
   1   8  -8  405.02    9.40
   1   8  -8  444.38   10.44
  -1  -8   8  478.84   13.00
   1   8  -7   57.31    2.01
   1   8  -7   54.47    1.82
  -1  -8   7   63.04    2.11
   1   8  -6   43.01    2.61
   1   8  -6   42.62    1.63
  -1  -8   6   45.67    2.80
   1   8  -5 1278.56   34.34
   1   8  -5 1311.96   33.34
  -1  -8   5 1315.98   35.29
   1   8  -4 1030.05   25.18
  -1  -8   4 1059.26   25.45
   1   8  -3   15.22    1.22
  -1  -8   3   18.14    1.53
   1   8  -2    5.50    1.05
  -1  -8   2    5.39    1.04
  -1  -8   2    5.59    1.17
  -1  -8   1   11.21    0.78
  -1  -8   1   10.75    0.98
  -1  -8   0   17.09    1.47
  -1  -8   0   16.54    0.92
  -1  -8  -1   44.56    2.09
  -1  -8  -1   45.90    1.55
  -1  -8  -1   42.86    1.15
  -1  -8  -2  139.96    4.05
  -1  -8  -2  145.22    2.65
  -1  -8  -2  141.09    2.58
  -1  -8  -3  562.34   11.17
  -1  -8  -3  556.54   10.75
  -1  -8  -3  544.30   13.09
  -1  -8  -4   15.62    1.14
  -1  -8  -4   15.86    0.50
  -1  -8  -4   16.14    0.52
  -1  -8  -5    1.78    1.49
  -1  -8  -6   27.60    2.32
  -1  -8  -7   35.05    1.56
  -1  -8  -8    3.81    1.78
  -1  -8  -9   27.51    1.53
  -1  -8 -10   17.64    2.43
  -1  -8 -11    0.11    1.68
  -1  -8 -12  108.32    4.91
   1   9  -7   14.24    0.99
  -1  -9   7   17.69    2.26
   1   9  -6  173.69    3.91
  -1  -9   6  186.21    5.47
   1   9  -5   24.72    1.32
  -1  -9   5   26.31    1.23
   1   9  -4   36.76    1.57
  -1  -9   4   38.75    2.07
  -1  -9   3    0.43    0.53
  -1  -9   2    2.30    0.97
  -1  -9   2    3.55    0.64
  -1  -9   1    9.04    0.99
  -1  -9   1   10.23    1.33
  -1  -9   0  268.54    5.41
  -1  -9   0  260.02    5.29
  -1  -9  -1   12.32    1.57
  -1  -9  -1   12.33    0.76
  -1  -9  -1   11.64    0.73
  -1  -9  -2   20.29    1.10
  -1  -9  -2   19.97    0.75
  -1  -9  -2   18.86    0.71
  -1  -9  -3  202.81    5.50
  -1  -9  -3  205.85    3.83
  -1  -9  -3  202.87    3.73
  -1  -9  -4   13.59    0.37
  -1  -9  -4   13.93    0.37
  -1  -9  -4   12.53    1.07
  -1  -9  -5   32.90    1.46
  -1  -9  -6   30.29    1.47
  -1  -9  -7   19.83    1.36
  -1  -9  -8   18.44    2.43
  -1  -9  -9   16.84    1.49
  -1  -9 -10  352.76   10.39
  -1  -9 -11  181.04    6.85
  -1 -10   5    8.82    1.57
  -1 -10   4   11.46    1.49
  -1 -10   3   83.95    2.64
  -1 -10   2    3.30    0.86
  -1 -10   2   -0.68    0.57
  -1 -10   1  392.82    9.13
  -1 -10   1  363.45    7.92
  -1 -10   1  383.74    8.33
  -1 -10   0    9.38    1.53
  -1 -10   0    9.90    0.88
  -1 -10   0    9.59    0.84
  -1 -10  -1   45.18    1.24
  -1 -10  -1   47.54    2.30
  -1 -10  -1   48.80    1.32
  -1 -10  -2   29.63    0.89
  -1 -10  -2   28.74    1.26
  -1 -10  -2   28.04    0.84
  -1 -10  -3   16.32    1.91
  -1 -10  -4   19.32    2.11
  -1 -10  -5   45.37    1.73
  -1 -10  -6    4.00    1.03
  -1 -10  -7    5.92    2.03
  -1 -10  -8   75.09    3.89
  -1 -10  -9   10.75    2.61
  -1 -11   3    1.47    1.10
  -1 -11   3    4.78    0.58
  -1 -11   2    0.02    0.72
  -1 -11   2    0.44    0.78
  -1 -11   1    3.44    0.77
  -1 -11   1    2.68    0.82
  -1 -11   1    3.82    1.21
  -1 -11   0    8.98    1.51
  -1 -11   0   10.80    0.84
  -1 -11   0    8.86    0.81
  -1 -11  -1   25.80    1.94
  -1 -11  -2   16.81    1.09
  -1 -11  -3    0.97    1.39
  -1 -11  -4    0.34    1.44
  -1 -11  -5   14.65    2.28
  -1 -11  -6  349.93    9.86
  -1 -11  -7  127.19    5.12
   2 -11  -4  167.34    3.79
   2 -11  -4  176.75    4.00
   2 -11  -4  187.88    4.18
   2 -11  -3   17.35    1.25
   2 -11  -3   18.91    1.25
   2 -11  -3   13.54    1.61
   2 -11  -2   53.32    1.91
   2 -11  -2   52.37    2.08
   2 -11  -2   56.37    1.93
   2 -11  -1   24.97    1.47
   2 -11  -1   21.71    1.42
   2 -11  -1   27.46    1.48
   2 -11   0   35.05    1.48
   2 -11   0   33.52    1.77
   2 -11   0   38.50    1.78
   2 -11   1    2.71    1.11
   2 -11   1    1.84    0.63
   2 -11   2    1.34    0.69
   2 -11   2    1.21    1.20
   2 -10  -7   89.08    2.33
   2 -10  -6    1.04    0.77
   2 -10  -5  201.25    4.43
   2 -10  -4    0.80    0.77
   2 -10  -4    0.80    0.75
   2 -10  -3  150.06    3.45
   2 -10  -3  144.89    3.39
   2 -10  -3  144.96    3.93
   2 -10  -2   16.83    1.23
   2 -10  -2   16.56    1.36
   2 -10  -2   16.19    1.23
   2 -10  -1    0.85    0.49
   2 -10  -1    1.15    0.88
   2 -10  -1    1.21    0.82
   2 -10   0    0.25    0.68
   2 -10   0    0.18    0.88
   2 -10   0    0.43    0.88
   2 -10   1   74.95    2.57
   2 -10   1   69.95    2.48
   2 -10   1   69.23    1.85
   2 -10   2  270.84    6.75
   2 -10   2  264.96    5.26
   2 -10   2  256.06    5.44
   2 -10   3    0.90    1.33
   2 -10   3    2.24    1.39
   2 -10   4    2.16    1.50
   2 -10   4    3.71    1.56
   2 -10   5   15.33    2.09
   2 -10   5   12.90    2.03
   2  -9  -9  107.98    2.24
  -2   9   9  119.78    2.99
   2  -9  -8  251.27    5.73
  -2   9   8  276.65    6.01
   2  -9  -7    0.46    0.75
   2  -9  -6    5.51    0.92
   2  -9  -6    5.96    0.97
   2  -9  -5   -0.31    1.23
   2  -9  -5   -0.27    0.72
   2  -9  -4   21.65    1.79
   2  -9  -4   21.02    1.22
   2  -9  -3   51.59    2.05
   2  -9  -3   52.06    1.76
   2  -9  -2    2.02    0.85
   2  -9  -2    1.95    0.90
   2  -9  -2    1.72    0.94
   2  -9  -1    3.00    0.98
   2  -9  -1    3.54    0.54
   2  -9  -1    3.55    0.89
   2  -9   0    3.37    1.08
   2  -9   0    3.78    0.81
   2  -9   0    5.41    1.07
   2  -9   1    6.25    1.21
   2  -9   1    4.86    0.77
   2  -9   1    6.67    1.21
   2  -9   2    0.24    0.51
   2  -9   2    0.73    0.60
   2  -9   2    0.72    1.09
   2  -9   3  174.98    4.85
   2  -9   3  181.07    3.38
   2  -9   3  182.77    4.92
   2  -9   4    0.22    1.28
   2  -9   4    0.60    1.31
   2  -9   5    4.57    1.65
   2  -9   5    4.41    1.63
   2  -9   6   15.28    1.29
   2  -9   6   19.11    2.15
   2  -9   7   24.67    1.51
   2  -9   7   26.66    1.57
   2  -8 -10   22.77    1.44
  -2   8  10   26.50    1.44
   2  -8  -9   16.24    0.73
  -2   8   9   16.94    1.22
   2  -8  -8    0.25    0.77
  -2   8   8    0.23    0.76
   2  -8  -7  123.10    3.07
  -2   8   7  125.25    2.45
   2  -8  -6    6.81    1.00
  -2   8   6    7.80    0.98
   2  -8  -5   41.02    1.61
   2  -8  -4   10.28    1.08
   2  -8  -3  119.64    2.99
   2  -8  -3  121.46    3.36
   2  -8  -2   32.58    1.68
   2  -8  -2   34.13    1.64
   2  -8  -1  826.60   18.99
   2  -8  -1  829.22   19.42
   2  -8  -1  879.51   19.41
   2  -8   0   -0.25    0.59
   2  -8   0    0.16    0.82
   2  -8   0    0.09    0.44
   2  -8   1   38.53    1.19
   2  -8   1   42.36    1.90
   2  -8   1   39.37    1.26
   2  -8   2   62.57    2.42
   2  -8   2   58.21    1.57
   2  -8   2   59.35    1.41
   2  -8   3    1.09    1.20
   2  -8   3    1.76    1.23
   2  -8   3    1.13    0.44
   2  -8   4   27.61    2.03
   2  -8   4   28.37    2.08
   2  -8   5    0.49    1.32
   2  -8   5    0.35    0.74
   2  -8   6    0.11    0.75
   2  -8   7   23.77    2.51
   2  -8   8  163.71    5.67
   2  -8   9   38.63    3.32
   2  -7 -11   29.87    1.72
  -2   7  11   34.39    1.81
   2  -7 -10    2.00    0.97
  -2   7  10    1.58    0.98
   2  -7  -9    8.50    1.11
  -2   7   9    7.77    1.14
   2  -7  -8   39.69    1.73
  -2   7   8   42.05    1.71
   2  -7  -7   25.33    1.42
  -2   7   7   27.06    1.38
   2  -7  -6    0.41    0.85
  -2   7   6    1.10    0.80
   2  -7  -5   24.18    1.37
  -2   7   5   24.79    1.32
   2  -7  -4   33.06    1.56
  -2   7   4   34.99    0.99
   2  -7  -3  220.20    4.96
   2  -7  -2  184.62    4.29
   2  -7  -1  141.08    2.67
   2  -7  -1  139.46    2.75
   2  -7   0    4.24    0.78
   2  -7   0    5.65    0.63
   2  -7   0    5.50    1.09
   2  -7   1    2.67    1.10
   2  -7   1    2.47    1.08
   2  -7   1    2.33    0.63
   2  -7   2   63.65    2.41
   2  -7   2   65.35    2.50
   2  -7   2   64.79    1.47
   2  -7   3  238.87    4.27
   2  -7   3  231.90    4.85
   2  -7   3  220.60    5.76
   2  -7   4  997.87   25.09
   2  -7   4 1029.08   25.78
   2  -7   5    4.33    0.96
   2  -7   6  270.52    7.31
   2  -7   7   87.30    3.75
   2  -7   8    1.23    0.96
   2  -7   9    6.17    1.22
   2  -7  10   29.09    3.10
   2  -6 -12   27.31    1.16
  -2   6  12   32.27    1.86
   2  -6 -11   -0.04    0.94
  -2   6  11    0.34    0.93
   2  -6 -10   13.56    1.35
  -2   6  10   14.33    1.37
   2  -6  -9    7.62    1.23
  -2   6   9    8.61    1.22
   2  -6  -8    4.69    1.11
  -2   6   8    4.16    1.09
   2  -6  -7   31.57    1.68
  -2   6   7   34.85    1.67
   2  -6  -6  358.67    8.10
  -2   6   6  373.63    8.20
   2  -6  -5   70.36    2.57
  -2   6   5   73.33    1.72
   2  -6  -4 1231.74   30.22
  -2   6   4 1232.19   28.96
   2  -6  -3   71.95    2.24
  -2   6   3   74.53    2.19
   2  -6  -2  180.70    3.45
   2  -6  -1   20.81    0.82
   2  -6   0   16.20    1.28
   2  -6   0   17.00    0.94
   2  -6   1    5.68    1.22
   2  -6   1    4.83    0.63
   2  -6   1    4.81    1.16
   2  -6   2 2155.12   59.67
   2  -6   2 2180.81   57.11
   2  -6   2 2093.67   58.06
   2  -6   3 1263.69   30.59
   2  -6   3 1318.93   31.97
   2  -6   4  271.33    6.98
   2  -6   5  168.29    5.21
   2  -6   6 1588.96   41.11
   2  -6   7  172.08    5.28
   2  -6   8   35.06    2.73
   2  -6   9   63.64    3.50
   2  -6  10   10.15    1.33
   2  -6  11    8.16    1.33
   2  -5 -12   -0.47    1.03
  -2   5  12    0.39    1.04
   2  -5 -11    1.28    0.64
  -2   5  11    2.20    1.14
   2  -5 -10   68.13    2.53
  -2   5  10   66.68    1.74
   2  -5  -9   83.48    3.14
  -2   5   9   85.70    3.04
   2  -5  -8 4077.91  135.48
  -2   5   8 4032.64  133.85
   2  -5  -7   36.85    2.25
  -2   5   7   41.57    2.37
   2  -5  -6    0.89    1.09
  -2   5   6    0.49    0.54
   2  -5  -5  627.63   13.26
  -2   5   5  662.55   14.87
   2  -5  -4    6.81    0.63
  -2   5   4    7.90    1.04
   2  -5  -3   23.12    0.83
  -2   5   3   23.58    0.81
   2  -5  -2  130.79    3.13
  -2   5   2  132.15    3.14
   2  -5  -1  696.64   15.26
   2  -5   0    4.42    0.96
   2  -5   1   64.24    1.39
   2  -5   1   62.58    2.02
   2  -5   2  759.24   16.14
   2  -5   2  786.54   16.67
   2  -5   2  734.05   15.36
   2  -5   3  157.71    3.20
   2  -5   3  168.19    2.83
   2  -5   3  169.34    3.40
   2  -5   4  156.98    3.31
   2  -5   5  101.12    3.36
   2  -5   6   56.69    2.73
   2  -5   7  215.32    4.63
   2  -5   8   17.20    2.19
   2  -5   9   45.46    2.90
   2  -5  10   63.49    2.25
   2  -5  11   15.86    1.47
   2  -5  12    0.59    1.06
   2  -4 -13    2.61    1.57
  -2   4  13    5.77    0.92
   2  -4 -12   70.38    2.06
  -2   4  12   78.39    2.13
   2  -4 -11   49.81    2.44
  -2   4  11   51.21    2.46
   2  -4 -10   13.29    0.95
  -2   4  10   15.17    1.64
   2  -4  -9    0.70    1.16
  -2   4   9    1.01    0.63
   2  -4  -8   34.63    1.98
  -2   4   8   36.08    1.94
   2  -4  -7   74.87    2.71
  -2   4   7   77.52    2.65
   2  -4  -6  330.86    6.64
  -2   4   6  354.30    7.81
   2  -4  -5   46.35    1.92
  -2   4   5   49.31    1.87
   2  -4  -4    2.21    0.93
  -2   4   4    1.99    0.89
   2  -4  -3  706.54   15.38
  -2   4   3  698.29   14.43
   2  -4  -2    0.40    0.78
  -2   4   2    0.35    0.77
   2  -4  -1  343.34    6.47
  -2   4   1  353.65    7.35
   2  -4   0 1596.94   39.99
   2  -4   1  557.33   11.98
   2  -4   2  142.36    3.44
   2  -4   2  148.59    2.40
   2  -4   3   97.67    2.07
   2  -4   3  103.82    1.55
   2  -4   4   12.86    1.44
   2  -4   5  502.55   10.28
   2  -4   6    2.03    0.72
   2  -4   7   58.56    2.70
   2  -4   8    0.16    0.71
  -2   4  -9    1.52    0.97
  -2   4 -10   39.19    2.01
  -2   4 -11   23.71    1.64
   2  -4  12   -0.01    1.76
  -2   4 -12    0.26    0.94
   2  -4  13   12.34    2.26
  -2   4 -13    0.06    1.17
   2  -3 -13   46.92    1.74
  -2   3  13   47.02    1.84
   2  -3 -12    0.30    1.38
  -2   3  12    1.13    0.80
   2  -3 -11  241.48    6.63
  -2   3  11  251.97    5.57
   2  -3 -10   19.20    1.10
  -2   3  10   22.68    1.95
   2  -3  -9    3.69    1.30
  -2   3   9    3.10    1.34
   2  -3  -8   32.05    2.02
  -2   3   8   32.26    1.22
   2  -3  -7    0.62    1.06
  -2   3   7    0.03    1.04
   2  -3  -6   74.63    2.55
  -2   3   6   77.29    2.56
   2  -3  -5   32.19    1.04
  -2   3   5   32.17    1.01
   2  -3  -4   -0.10    0.80
  -2   3   4    0.13    0.41
   2  -3  -3  530.39   10.55
  -2   3   3  549.65   11.61
   2  -3  -2  554.79   12.02
  -2   3   2  555.84   12.07
   2  -3  -1 7825.80  295.92
  -2   3   1 7948.05  300.58
   2  -3   0    2.76    1.01
  -2   3   0    3.74    0.60
   2  -3   1  572.47   12.16
   2  -3   2    0.15    0.81
   2  -3   3  271.20    5.06
   2  -3   4 1145.05   27.29
   2  -3   5  139.14    2.77
   2  -3   6    1.04    0.61
   2  -3   7    2.69    1.17
  -2   3  -7    0.27    0.64
   2  -3   8    0.82    0.67
  -2   3  -8    0.25    0.19
  -2   3  -8    0.79    0.65
  -2   3  -8    0.05    0.09
   2  -3   9   89.62    3.39
  -2   3  -9   89.20    2.37
   2  -3  10   27.41    1.42
  -2   3 -10   26.56    2.36
   2  -3  11  272.36    7.52
  -2   3 -11  266.43    7.63
   2  -3  12   32.59    2.86
  -2   3 -12   33.98    2.80
   2  -3  13   18.20    2.58
  -2   3 -13   16.40    1.47
   2  -2 -13   28.26    2.54
  -2   2  13   33.00    2.76
   2  -2 -12   54.20    2.96
  -2   2  12   59.96    3.12
   2  -2 -11  152.90    4.82
  -2   2  11  163.22    3.87
   2  -2 -10   19.43    1.14
  -2   2  10   19.05    1.19
   2  -2  -9   45.31    2.39
  -2   2   9   49.44    2.50
   2  -2  -8    1.13    0.70
  -2   2   8    1.02    1.35
   2  -2  -7  386.72    9.12
  -2   2   7  405.69    8.29
   2  -2  -6  143.12    3.81
  -2   2   6  149.89    3.90
   2  -2  -5   26.27    0.97
  -2   2   5   27.51    0.97
   2  -2  -4  132.55    3.34
  -2   2   4  137.14    3.32
   2  -2  -3   11.71    1.22
  -2   2   3   10.00    1.19
   2  -2  -2 1709.88   43.33
  -2   2   2 1683.29   42.60
   2  -2  -1  438.77    9.21
  -2   2   1  443.29    8.48
   2  -2   0  406.23    7.71
  -2   2   0  412.51    7.78
   2  -2   1   22.99    1.38
  -2   2  -1   25.19    1.41
   2  -2   2    3.52    0.53
   2  -2   3 1705.40   42.11
   2  -2   4   98.01    2.00
   2  -2   5  277.58    5.95
   2  -2   6  373.88    7.25
  -2   2  -6  374.21    6.49
   2  -2   7   50.78    1.41
  -2   2  -7   50.63    1.02
  -2   2  -7   53.09    1.44
   2  -2   8    0.57    1.19
  -2   2  -8    0.73    1.11
   2  -2   9   -0.02    0.68
  -2   2  -9   -0.38    0.64
   2  -2  10    5.19    1.59
  -2   2 -10    4.16    0.85
   2  -2  11   10.24    1.91
  -2   2 -11    9.91    1.02
   2  -2  12  102.80    2.79
  -2   2 -12   97.81    2.71
   2  -2  13  172.92    4.27
  -2   2 -13  170.47    5.61
   2  -2  14    7.58    2.29
  -2   2 -14   10.78    2.16
   2  -1 -13   15.76    2.40
  -2   1  13   19.47    1.51
   2  -1 -12   92.07    3.86
  -2   1  12   97.61    4.12
   2  -1 -11    4.43    1.78
  -2   1  11    6.51    1.91
   2  -1 -10   -0.26    0.70
  -2   1  10    0.11    1.37
   2  -1  -9   21.21    2.06
  -2   1   9   20.50    2.18
   2  -1  -8   49.94    2.60
  -2   1   8   47.93    2.77
   2  -1  -7 1691.19   43.81
  -2   1   7 1662.68   44.82
   2  -1  -6    5.31    0.76
  -2   1   6    4.16    0.78
   2  -1  -5    7.69    0.74
  -2   1   5    7.68    0.74
   2  -1  -4  608.66   12.45
  -2   1   4  594.48   13.16
   2  -1  -3  301.59    5.69
  -2   1   3  316.15    5.90
   2  -1  -2  151.53    3.63
  -2   1   2  157.58    3.65
   2  -1  -1  113.21    3.00
  -2   1   1  115.44    2.23
   2  -1   0  313.51    6.68
  -2   1   0  322.84    6.75
   2  -1   1    1.98    1.01
  -2   1  -1    2.18    0.54
   2  -1   2 1025.40   22.38
   2  -1   2 1012.57   22.12
   2  -1   3 3584.52  105.39
   2  -1   4   92.61    1.81
  -2   1  -4   95.82    1.67
   2  -1   5  165.35    3.05
  -2   1  -5  165.23    2.71
   2  -1   6   11.03    1.16
  -2   1  -6   11.48    0.67
  -2   1  -6   11.50    0.62
   2  -1   7   68.93    2.24
  -2   1  -7   67.92    1.32
  -2   1  -7   67.73    2.16
   2  -1   8   49.87    1.40
  -2   1  -8   48.76    2.04
   2  -1   9   72.68    2.78
  -2   1  -9   70.58    2.66
   2  -1  10   18.10    1.09
  -2   1 -10   17.89    1.82
   2  -1  11   67.07    3.08
  -2   1 -11   65.22    2.92
   2  -1  12    3.54    1.66
  -2   1 -12    2.48    1.62
   2  -1  13   15.27    1.19
  -2   1 -13   14.42    2.00
   2  -1  14   67.94    2.20
  -2   1 -14   62.39    2.12
  -2   1 -14   50.43    1.64
   2   0 -13   50.54    3.44
  -2   0  13   52.79    2.27
   2   0 -12    2.29    1.82
  -2   0  12    2.73    1.95
   2   0 -11   10.68    2.16
  -2   0  11   14.60    1.32
   2   0 -10  219.38    6.43
  -2   0  10  222.52    5.09
   2   0  -9    8.09    1.05
  -2   0   9    9.67    2.00
   2   0  -8  720.55   16.44
  -2   0   8  750.35   18.65
   2   0  -7  295.80    7.31
  -2   0   7  304.56    7.59
   2   0  -6   10.18    0.86
  -2   0   6   10.54    0.92
   2   0  -5  372.20    8.33
  -2   0   5  381.46    8.49
   2   0  -4   84.05    2.61
  -2   0   4   87.30    2.70
   2   0  -3   40.81    1.15
  -2   0   3   41.62    1.85
   2   0  -2 1015.46   23.41
  -2   0   2  995.64   22.97
   2   0  -1  167.46    4.01
  -2   0   1  173.76    3.28
   2   0   0  858.48   19.16
  -2   0   0  809.24   18.07
   2   0   1  437.70    9.23
   2   0   1  453.82    9.28
  -2   0  -1  464.28    9.57
   2   0   2  528.46   10.16
   2   0   2  520.99   10.34
  -2   0  -2  540.31   10.34
  -2   0  -2  514.68    9.73
   2   0   3 1257.30   28.60
   2   0   3 1216.74   27.75
  -2   0  -3 1329.70   30.36
   2   0   4  580.02   12.01
  -2   0  -4  618.57   12.15
   2   0   5  106.84    2.47
  -2   0  -5  104.47    2.00
   2   0   6  152.28    3.33
  -2   0  -6  148.92    3.24
  -2   0  -6  138.81    2.62
   2   0   7   72.83    2.13
  -2   0  -7   69.21    1.55
  -2   0  -7   69.11    1.98
   2   0   8  507.99   11.14
  -2   0  -8  479.27    9.76
   2   0   9  272.55    6.54
  -2   0  -9  269.03    6.43
   2   0  10 3466.68  112.27
  -2   0 -10 3622.28  118.07
   2   0  11  914.35   23.00
  -2   0 -11  887.78   22.69
   2   0  12  149.75    4.55
  -2   0 -12  145.06    3.41
   2   0  13    0.36    1.29
  -2   0 -13   -0.31    0.67
   2   0  14    3.53    0.89
  -2   0 -14    3.31    0.47
  -2   0 -14    0.44    1.55
   2   1 -13    0.20    1.75
  -2  -1  13    0.00    1.95
   2   1 -12   43.99    3.42
  -2  -1  12   46.18    3.62
   2   1 -11  172.18    5.98
  -2  -1  11  183.67    4.65
   2   1 -10  404.64   10.93
  -2  -1  10  425.34   11.51
   2   1  -9    1.08    1.51
  -2  -1   9    0.91    1.64
   2   1  -8   12.52    1.89
  -2  -1   8   11.29    1.16
   2   1  -7  147.01    4.35
  -2  -1   7  149.17    3.37
   2   1  -6  101.16    3.17
  -2  -1   6  100.50    2.36
   2   1  -5   11.21    0.80
  -2  -1   5   11.67    0.85
   2   1  -4  174.37    4.33
  -2  -1   4  185.91    4.51
   2   1  -3    0.12    0.92
  -2  -1   3    0.51    0.96
   2   1  -2 2741.65   77.90
  -2  -1   2 2697.52   75.00
   2   1  -1 6590.69  236.22
  -2  -1   1 6503.31  232.79
   2   1   048488.59 3019.54
   2   1   038884.99 2431.74
  -2  -1   034984.05 2182.43
   2   1   1    1.01    0.56
   2   1   1    0.73    0.80
  -2  -1  -1    1.00    1.16
  -2  -1  -1    1.12    0.77
   2   1   2  326.08    6.23
   2   1   2  337.13    6.14
  -2  -1  -2  342.16    6.45
  -2  -1  -2  347.73    6.37
   2   1   3    5.63    0.81
   2   1   3    5.61    0.63
  -2  -1  -3    5.22    0.85
   2   1   4  302.45    5.62
  -2  -1  -4  298.67    5.77
   2   1   5  117.94    2.40
  -2  -1  -5  113.00    2.42
   2   1   6    1.06    0.35
  -2  -1  -6    0.44    0.58
  -2  -1  -6    0.52    0.60
   2   1   7    0.05    0.34
  -2  -1  -7    0.13    0.61
  -2  -1  -7    0.16    0.57
   2   1   8  246.01    4.62
  -2  -1  -8  241.92    5.21
   2   1   9  182.36    4.42
  -2  -1  -9  176.25    4.27
   2   1  10  875.37   21.03
  -2  -1 -10  850.35   20.73
   2   1  11  216.24    4.46
  -2  -1 -11  220.36    5.48
   2   1  12    0.51    0.62
  -2  -1 -12   -0.36    1.07
   2   1  13    1.14    0.70
  -2  -1 -13    1.16    1.20
   2   1  14   10.31    0.95
  -2  -1 -14    9.13    0.70
  -2  -1 -14    8.96    0.92
   2   1  15   50.84    1.76
  -2  -1 -15   45.93    2.63
  -2  -1 -15   40.43    1.93
   2   2 -13   78.38    4.86
  -2  -2  13   83.54    3.24
  -2  -2  12   26.40    3.50
   2   2 -11 1059.25   30.49
  -2  -2  11 1113.47   28.55
   2   2 -10  888.71   22.19
  -2  -2  10  936.10   25.49
   2   2  -9   63.52    2.12
  -2  -2   9   66.56    2.23
   2   2  -8   29.40    1.40
  -2  -2   8   31.62    1.53
   2   2  -7    2.45    1.48
  -2  -2   7    4.43    1.67
   2   2  -6   90.04    3.07
  -2  -2   6   95.98    3.40
   2   2  -5   60.47    2.38
  -2  -2   5   63.29    2.56
   2   2  -4 1062.03   25.18
  -2  -2   4 1016.10   24.35
   2   2  -3  742.32   15.53
  -2  -2   3  701.82   14.81
   2   2  -2  253.44    5.44
   2   2  -2  246.86    5.29
  -2  -2   2  259.80    4.80
   2   2  -1  195.87    4.14
   2   2  -1  200.37    4.49
  -2  -2   1  199.26    3.56
   2   2   0  191.46    3.30
  -2  -2   0  194.01    3.82
   2   2   1   47.18    1.23
   2   2   1   47.54    1.19
  -2  -2  -1   47.46    1.15
  -2  -2  -1   47.28    1.93
   2   2   2    8.69    0.64
   2   2   2    9.76    0.67
  -2  -2  -2    9.38    0.65
  -2  -2  -2    9.90    0.47
   2   2   3  135.01    2.44
   2   2   3  141.88    2.48
  -2  -2  -3  135.60    3.08
   2   2   4   95.90    1.88
  -2  -2  -4   89.60    1.71
   2   2   5   25.65    0.80
  -2  -2  -5   24.65    0.78
   2   2   6  312.15    5.79
  -2  -2  -6  298.99    5.60
  -2  -2  -6  281.67    5.84
   2   2   7   86.03    1.97
  -2  -2  -7   80.14    2.20
  -2  -2  -7   80.08    1.84
   2   2   8  591.04   12.51
  -2  -2  -8  562.73   12.47
  -2  -2  -8  571.48   12.22
   2   2   9   30.40    1.46
  -2  -2  -9   30.88    1.00
  -2  -2  -9   30.70    0.90
   2   2  10  189.78    4.43
  -2  -2 -10  183.48    4.23
   2   2  11    0.06    0.87
  -2  -2 -11    0.11    0.45
   2   2  12   51.40    2.10
  -2  -2 -12   50.61    2.08
   2   2  13    4.72    1.26
  -2  -2 -13    5.42    1.23
  -2  -2 -13    5.23    0.68
   2   2  14   97.44    3.23
  -2  -2 -14   91.14    3.04
  -2  -2 -14   92.16    2.30
   2   2  15   24.56    1.94
  -2  -2 -15   19.67    1.88
  -2  -2 -15   20.71    1.72
   2   3 -12  138.30    6.13
  -2  -3  12  150.82    6.27
   2   3 -11    2.43    1.12
  -2  -3  11    2.83    1.23
   2   3 -10    9.63    2.20
  -2  -3  10   10.58    2.46
   2   3  -9   10.65    2.06
  -2  -3   9   10.68    2.25
   2   3  -8    3.89    0.92
  -2  -3   8    3.73    1.01
   2   3  -7   85.39    2.29
  -2  -3   7   92.20    3.71
   2   3  -6  232.84    5.96
  -2  -3   6  250.01    6.48
   2   3  -5   30.92    1.89
  -2  -3   5   34.49    1.29
   2   3  -4    0.08    0.55
  -2  -3   4    3.63    0.63
   2   3  -3  724.43   16.03
   2   3  -3  708.08   15.66
  -2  -3   3  688.06   15.39
   2   3  -2    0.19    0.76
   2   3  -2    0.55    0.87
  -2  -3   2    0.69    0.82
   2   3  -1   11.70    0.68
   2   3  -1   12.12    0.92
  -2  -3   1   12.64    0.57
   2   3   0  690.01   14.94
   2   3   0  639.14   13.07
  -2  -3   0  645.90   13.27
  -2  -3   0  720.02   15.61
   2   3   1  535.66   11.28
   2   3   1  495.99    9.36
  -2  -3  -1  547.46   10.71
  -2  -3  -1  496.73    9.39
   2   3   2  105.41    2.71
   2   3   2  112.30    1.79
  -2  -3  -2  101.89    2.05
  -2  -3  -2  107.78    1.75
   2   3   3  958.81   20.61
   2   3   3  842.55   16.99
  -2  -3  -3 1014.01   22.60
   2   3   4 1804.29   43.86
   2   3   4 1770.67   42.78
  -2  -3  -4 1804.02   45.28
   2   3   5 1485.15   35.28
  -2  -3  -5 1591.52   39.76
   2   3   6  398.01    7.65
  -2  -3  -6  398.62    7.74
   2   3   7 1633.99   40.33
  -2  -3  -7 1628.40   40.18
  -2  -3  -7 1648.90   41.17
   2   3   8  110.46    2.34
  -2  -3  -8  104.36    2.96
  -2  -3  -8  104.70    2.18
   2   3   9  223.06    4.56
  -2  -3  -9  214.09    5.18
  -2  -3  -9  214.44    3.88
   2   3  10   14.91    1.07
  -2  -3 -10   14.54    1.51
  -2  -3 -10   14.05    1.01
   2   3  11   41.75    1.62
  -2  -3 -11   39.22    1.55
  -2  -3 -11   41.13    2.04
   2   3  12  146.27    3.59
  -2  -3 -12  144.51    4.06
  -2  -3 -12  139.97    3.46
   2   3  13   31.45    1.61
  -2  -3 -13   30.34    1.93
  -2  -3 -13   29.11    1.58
   2   3  14   45.13    1.96
  -2  -3 -14   39.45    2.28
  -2  -3 -14   40.97    1.90
   2   4 -12    0.31    1.06
   2   4 -12   -1.01    0.63
  -2  -4  12    0.52    1.17
   2   4 -11   15.55    2.61
  -2  -4  11   17.76    2.82
   2   4 -10   -0.01    1.71
  -2  -4  10    1.04    1.03
   2   4  -9   75.81    2.39
  -2  -4   9   80.07    3.88
   2   4  -8   15.45    2.08
  -2  -4   8   17.91    1.32
   2   4  -7  857.31   19.81
   2   4  -7  712.88   16.35
  -2  -4   7  952.63   23.46
   2   4  -6    0.84    1.07
   2   4  -6    0.46    1.28
  -2  -4   6    0.37    1.44
   2   4  -5    0.47    0.93
   2   4  -5    0.20    0.59
  -2  -4   5    0.45    0.65
   2   4  -4  194.22    4.49
   2   4  -4  188.73    4.57
  -2  -4   4  192.49    3.84
   2   4  -3   45.63    1.17
   2   4  -3   44.22    1.72
  -2  -4   3   45.43    1.22
   2   4  -2   14.76    1.20
   2   4  -2   13.10    1.03
  -2  -4   2   15.00    1.13
   2   4  -1  629.90   12.75
   2   4  -1  633.37   13.03
  -2  -4   1  577.38   11.93
  -2  -4   1  608.02   12.62
   2   4   0   20.58    0.82
   2   4   0   21.10    0.82
  -2  -4   0   20.18    1.45
  -2  -4   0   23.65    0.91
   2   4   1  289.40    5.26
   2   4   1  288.02    6.15
  -2  -4  -1  276.55    6.06
  -2  -4  -1  296.58    5.50
   2   4   2  240.44    3.97
   2   4   2  251.52    4.66
  -2  -4  -2  240.43    4.55
  -2  -4  -2  243.18    3.98
   2   4   3  418.14    8.84
  -2  -4  -3  398.05    8.59
  -2  -4  -4   78.92    2.44
  -2  -4  -5    3.22    0.60
   2   4   6  729.85   14.59
  -2  -4  -6  767.22   17.39
   2   4   7  107.10    2.04
  -2  -4  -7   90.86    1.58
  -2  -4  -7   98.86    2.93
   2   4   8    2.81    0.50
  -2  -4  -8    2.77    0.43
  -2  -4  -8    2.42    0.66
   2   4   9    8.11    0.69
  -2  -4  -9    5.68    1.41
  -2  -4  -9    6.32    0.62
   2   4  10   81.46    1.93
  -2  -4 -10   78.69    2.93
  -2  -4 -10   78.40    1.88
   2   4  11  333.95    6.90
  -2  -4 -11  318.70    6.83
  -2  -4 -11  307.04    6.49
   2   4  12    9.02    0.96
  -2  -4 -12    8.84    0.91
  -2  -4 -12    7.52    0.90
   2   4  13    1.62    0.80
  -2  -4 -13    1.64    0.74
  -2  -4 -13    1.13    0.76
   2   4  14   38.04    1.61
  -2  -4 -14   33.97    1.60
  -2  -4 -14   41.33    2.42
   2   5 -11   42.89    2.11
   2   5 -11   44.89    3.51
  -2  -5  11   53.19    3.81
   2   5 -10   27.55    1.71
   2   5 -10   27.31    1.67
  -2  -5  10   32.16    3.09
   2   5  -9    7.85    0.72
   2   5  -9    5.28    1.99
  -2  -5   9    8.02    1.23
   2   5  -8    0.72    0.98
   2   5  -8    0.91    0.82
  -2  -5   8    1.93    1.66
   2   5  -7   58.03    2.82
   2   5  -7   61.14    2.19
  -2  -5   7   59.98    1.92
   2   5  -6    1.73    0.99
   2   5  -6    1.29    1.31
  -2  -5   6    1.64    1.44
   2   5  -5  117.89    3.17
   2   5  -5  117.28    3.55
  -2  -5   5  122.54    3.88
   2   5  -4   91.64    2.04
   2   5  -4   92.24    2.66
  -2  -5   4   96.04    3.08
   2   5  -3   41.40    1.16
   2   5  -3   42.29    1.15
  -2  -5   3   42.03    1.23
   2   5  -2  175.50    4.08
   2   5  -2  171.62    3.76
  -2  -5   2  176.77    3.28
   2   5  -1    2.44    1.00
   2   5  -1    2.32    0.38
  -2  -5   1    2.88    0.76
  -2  -5   1    3.11    1.08
   2   5   0 1072.16   24.15
   2   5   0 1099.36   26.10
  -2  -5   0 1059.53   23.99
  -2  -5   0 1135.93   26.94
   2   5   1  760.08   16.82
   2   5   1  680.19   14.05
  -2  -5  -1  702.38   14.61
  -2  -5  -1  739.48   16.62
   2   5   2  130.28    3.28
  -2  -5  -2  134.41    2.70
  -2  -5  -2  140.80    2.29
   2   5   3  118.07    3.13
  -2  -5  -3  112.37    2.35
  -2  -5  -4  179.49    3.57
  -2  -5  -5  310.69    7.04
  -2  -5  -6   29.27    1.86
   2   5   7   16.26    0.33
  -2  -5  -7   17.04    1.73
   2   5   8    0.09    0.33
  -2  -5  -8    0.21    0.61
  -2  -5  -8    0.10    0.12
   2   5   9   17.04    0.60
  -2  -5  -9   16.68    1.80
  -2  -5  -9   15.59    0.76
   2   5  10  161.60    3.02
  -2  -5 -10  154.44    3.45
  -2  -5 -10  147.31    2.81
   2   5  11  145.59    3.28
  -2  -5 -11  136.19    3.21
  -2  -5 -11  131.96    3.03
   2   5  12   59.70    1.55
  -2  -5 -12   59.37    2.76
  -2  -5 -12   42.29    1.47
   2   5  13   27.93    1.14
  -2  -5 -13   27.76    1.34
  -2  -5 -13   20.44    1.11
   2   5  14    0.27    0.70
  -2  -5 -14    0.86    0.68
  -2  -5 -14    2.86    0.82
   2   6 -10  161.52    4.22
   2   6 -10  165.60    6.06
  -2  -6  10  176.47    6.34
   2   6  -9   40.99    1.84
   2   6  -9   43.14    1.83
  -2  -6   9   42.15    1.95
   2   6  -8   34.66    1.65
   2   6  -8   32.87    1.56
  -2  -6   8   34.11    2.72
   2   6  -7    4.00    1.65
   2   6  -7    5.71    1.10
  -2  -6   7    6.87    1.00
   2   6  -6   82.43    3.04
   2   6  -6   82.58    2.50
  -2  -6   6   87.05    3.34
   2   6  -5   72.28    2.64
   2   6  -5   71.17    2.32
  -2  -6   5   75.41    1.99
   2   6  -4   -0.20    0.86
   2   6  -4    0.08    0.92
  -2  -6   4   -0.21    1.07
   2   6  -3  447.11    9.90
   2   6  -3  447.77   10.14
  -2  -6   3  457.01   10.28
   2   6  -2  113.37    2.37
   2   6  -2  110.91    2.72
  -2  -6   2  116.24    3.00
   2   6  -1  127.88    2.74
   2   6  -1  130.63    3.41
  -2  -6   1  123.05    2.62
  -2  -6   1  130.82    2.98
   2   6   0  705.02   16.00
   2   6   0  695.76   14.51
  -2  -6   0  711.75   14.99
  -2  -6   0  692.69   16.03
   2   6   1  399.98    7.87
   2   6   1  356.45    6.31
  -2  -6  -1  415.18    7.68
  -2  -6  -1  393.95    8.96
   2   6   2   11.24    0.80
  -2  -6  -2    9.91    1.49
  -2  -6  -2   10.60    0.55
  -2  -6  -3   16.84    1.64
  -2  -6  -4  204.53    4.19
  -2  -6  -5  223.72    5.69
  -2  -6  -6    5.13    1.55
  -2  -6  -7   64.01    2.86
  -2  -6  -8   93.33    2.43
   2   6   9    8.34    0.33
  -2  -6  -9    9.66    1.77
   2   6  10   20.68    0.68
  -2  -6 -10   22.65    1.28
   2   6  11   52.39    1.33
  -2  -6 -11   47.55    1.05
  -2  -6 -11   56.57    2.93
  -2  -6 -12   42.17    2.78
  -2  -6 -13   22.22    2.40
   2   7  -9    0.18    0.82
   2   7  -9    0.00    1.58
  -2  -7   9   -0.03    1.73
   2   7  -8    0.61    0.87
   2   7  -8    0.25    1.50
  -2  -7   8    0.23    1.61
   2   7  -7    6.96    1.12
   2   7  -7    4.53    1.73
  -2  -7   7    8.17    1.87
   2   7  -6  219.19    5.15
   2   7  -6  210.96    5.79
  -2  -7   6  218.50    6.17
   2   7  -5    0.23    0.46
   2   7  -5   -0.10    1.05
  -2  -7   5   -0.13    0.64
   2   7  -4   96.26    2.14
   2   7  -4  100.05    3.00
  -2  -7   4  102.64    3.19
   2   7  -3    8.07    1.13
   2   7  -3    6.89    1.23
  -2  -7   3    7.10    1.27
   2   7  -2    2.81    0.48
   2   7  -2    3.86    1.11
  -2  -7   2    3.36    0.99
   2   7  -1   20.16    1.00
   2   7  -1   21.14    1.59
  -2  -7   1   20.56    1.20
  -2  -7   1   21.43    1.05
   2   7   0   14.99    0.83
   2   7   0    9.47    0.42
  -2  -7   0   14.99    0.87
  -2  -7   0   15.04    1.60
   2   7   1  203.54    5.09
  -2  -7  -1  210.68    3.86
  -2  -7  -1  199.98    5.21
   2   7   2  116.00    2.59
  -2  -7  -2  111.91    2.04
  -2  -7  -2  111.90    2.62
  -2  -7  -2  117.15    1.97
  -2  -7  -3   32.92    1.36
  -2  -7  -4  455.49   10.98
  -2  -7  -5  238.58    6.46
  -2  -7  -6    1.00    1.56
  -2  -7  -7  509.39   12.96
  -2  -7  -8  549.98   13.78
  -2  -7  -9   11.55    2.05
  -2  -7 -10   87.90    2.54
  -2  -7 -11    6.64    2.03
  -2  -7 -12   10.24    2.20
  -2  -7 -13   52.02    3.40
   2   8  -8   44.87    1.88
   2   8  -8   45.59    1.89
  -2  -8   8   50.74    3.24
   2   8  -7    6.43    1.21
   2   8  -7    7.64    1.05
  -2  -8   7    6.86    1.12
   2   8  -6 1183.05   32.23
   2   8  -6 1183.65   31.14
  -2  -8   6 1195.02   32.85
   2   8  -5    1.02    1.30
   2   8  -5    0.99    1.08
  -2  -8   5    1.40    0.77
   2   8  -4  108.42    3.21
   2   8  -4  113.50    3.26
  -2  -8   4  112.24    3.49
   2   8  -3  285.81    6.66
   2   8  -3  276.36    6.25
  -2  -8   3  286.19    6.63
   2   8  -2   52.31    1.71
   2   8  -2   57.41    2.24
  -2  -8   2   57.45    1.95
   2   8  -1   74.48    2.56
  -2  -8   1   78.78    2.06
  -2  -8   1   78.27    2.84
   2   8   0  106.67    3.26
  -2  -8   0  108.71    2.33
  -2  -8   0  106.80    2.52
   2   8   1   28.18    1.20
  -2  -8  -1   29.59    0.90
  -2  -8  -1   30.15    2.03
  -2  -8  -2  167.91    2.86
  -2  -8  -2  171.67    3.17
  -2  -8  -2  170.56    4.89
  -2  -8  -3  232.71    5.18
  -2  -8  -4 3228.84  101.29
  -2  -8  -5  217.75    7.07
  -2  -8  -6  347.95    9.43
  -2  -8  -7   44.71    2.86
  -2  -8  -8    1.28    1.67
  -2  -8  -9   19.13    1.40
  -2  -8 -10  116.40    4.59
  -2  -8 -12   13.55    2.70
   2   9  -7  420.78    9.79
   2   9  -7  397.35    8.90
  -2  -9   7  430.29   10.22
   2   9  -6  421.52   10.07
   2   9  -6  419.17    9.59
  -2  -9   6  434.44   11.50
   2   9  -5   77.63    2.99
   2   9  -5   79.68    1.95
  -2  -9   5   81.86    3.33
   2   9  -4  204.75    4.34
   2   9  -4  213.49    5.23
  -2  -9   4  213.97    4.58
   2   9  -3   57.97    2.25
  -2  -9   3   59.30    2.20
   2   9  -2   25.95    1.70
  -2  -9   2   27.25    1.42
   2   9  -1   43.85    2.14
  -2  -9   1   44.28    1.51
  -2  -9   1   45.79    2.42
  -2  -9   0    7.60    0.74
  -2  -9   0    8.28    1.60
  -2  -9  -1  269.49    5.52
  -2  -9  -1  282.21    7.24
  -2  -9  -1  280.20    5.40
  -2  -9  -2  168.26    2.95
  -2  -9  -2  165.21    3.81
  -2  -9  -2  157.40    2.82
  -2  -9  -3   62.60    3.01
  -2  -9  -4   10.45    1.97
  -2  -9  -5   21.06    2.30
  -2  -9  -6    1.04    1.63
  -2  -9  -7   26.90    2.59
  -2  -9  -8   27.66    2.75
  -2  -9  -9   68.17    2.41
  -2  -9 -10   38.21    3.34
  -2  -9 -11  121.20    5.46
   2  10  -5    0.57    0.90
  -2 -10   5    0.90    1.21
   2  10  -4    0.94    1.00
  -2 -10   4    0.88    1.12
   2  10  -3    5.95    1.27
  -2 -10   3    6.26    1.16
  -2 -10   2   72.81    2.25
  -2 -10   1   65.22    1.94
  -2 -10   1   63.20    1.85
  -2 -10   0   66.24    1.68
  -2 -10   0   69.57    1.76
  -2 -10   0   72.06    3.05
  -2 -10  -1  458.10    9.60
  -2 -10  -1  499.67   12.26
  -2 -10  -1  475.05   10.01
  -2 -10  -2    0.29    0.74
  -2 -10  -3   15.50    2.03
  -2 -10  -4   -0.01    1.35
  -2 -10  -5   -0.34    1.53
  -2 -10  -6   29.90    2.71
  -2 -10  -7   33.27    2.89
  -2 -10  -8  120.00    4.87
  -2 -10  -9  100.78    4.84
  -2 -11   2    6.94    0.60
  -2 -11   1   -0.53    0.72
  -2 -11   0   10.31    1.02
  -2 -11  -1   16.29    1.99
  -2 -11  -2   34.03    2.47
  -2 -11  -3    2.65    1.69
  -2 -11  -4    2.48    1.76
  -2 -11  -5    2.46    1.91
  -2 -11  -6   47.63    3.33
   3 -10  -6   86.54    2.63
   3 -10  -5   53.26    2.08
   3 -10  -4   33.21    1.75
   3 -10  -3    0.42    0.61
   3 -10  -3    9.47    0.70
   3 -10  -2   56.68    2.12
   3 -10  -2   52.99    1.46
   3 -10  -1   39.36    1.62
   3 -10  -1   45.56    2.04
   3 -10  -1   41.66    1.33
   3 -10   0    0.26    0.63
   3 -10   0    0.03    0.57
   3 -10   0    0.29    1.04
   3 -10   1  162.58    4.54
   3 -10   1  146.02    3.10
   3 -10   1  148.69    4.34
   3 -10   2    4.05    0.86
   3 -10   2    3.34    1.68
   3 -10   3  437.98   11.40
   3 -10   3  418.02   10.99
   3 -10   4  315.57    8.82
   3 -10   4  329.93    9.11
   3  -9  -8   21.52    1.65
  -3   9   8   24.47    1.04
   3  -9  -7  375.63    8.95
  -3   9   7  393.66    8.28
   3  -9  -6   37.62    1.88
   3  -9  -5   99.02    2.91
   3  -9  -4   13.21    0.80
   3  -9  -3   10.55    1.29
   3  -9  -3    9.30    1.30
   3  -9  -2   19.46    1.50
   3  -9  -2   16.67    1.25
   3  -9  -1   11.80    0.82
   3  -9  -1   10.17    1.02
   3  -9  -1   12.07    1.39
   3  -9   0   76.07    2.62
   3  -9   0   72.16    2.64
   3  -9   0   67.95    1.91
   3  -9   1   10.94    1.62
   3  -9   1    9.55    1.55
   3  -9   1    9.95    0.78
   3  -9   2   22.38    1.17
   3  -9   2   20.97    0.81
   3  -9   2   21.29    1.90
   3  -9   3   12.96    1.79
   3  -9   3   13.36    1.90
   3  -9   4    0.93    1.52
   3  -9   4    2.14    1.53
   3  -9   5   47.17    2.89
   3  -9   5   44.55    2.91
   3  -9   6  102.19    4.19
   3  -9   6  109.91    3.05
   3  -9   7   15.37    1.45
   3  -9   7   16.28    1.45
   3  -8  -9   16.85    1.57
  -3   8   9   18.39    1.58
   3  -8  -8   56.67    2.28
  -3   8   8   61.37    2.29
   3  -8  -7    2.40    1.12
  -3   8   7    2.59    1.08
   3  -8  -6   -0.29    0.97
  -3   8   6   -0.52    0.94
   3  -8  -5   25.72    1.63
  -3   8   5   25.27    1.60
   3  -8  -4    1.88    1.09
   3  -8  -3   83.24    2.69
   3  -8  -2    0.71    1.01
   3  -8  -1   39.99    1.50
   3  -8  -1   37.58    1.21
   3  -8   0   25.83    1.07
   3  -8   0   24.74    1.11
   3  -8   1    7.09    0.70
   3  -8   1    8.28    0.82
   3  -8   1    7.30    1.42
   3  -8   2    9.48    0.85
   3  -8   2   12.09    1.69
   3  -8   2   11.00    1.60
   3  -8   3    0.57    0.67
   3  -8   3   -0.05    0.65
   3  -8   3    0.05    0.27
   3  -8   4    3.17    1.55
   3  -8   4    2.81    1.59
   3  -8   5    6.38    1.78
   3  -8   5    6.31    1.82
   3  -8   6   74.60    3.56
   3  -8   6   79.93    2.41
   3  -8   7  239.27    5.67
   3  -8   7  255.31    7.56
   3  -8   8   84.48    4.17
   3  -8   8   88.01    4.37
   3  -8   9    1.62    2.14
   3  -8   9    1.40    1.14
   3  -7 -10   39.73    1.43
  -3   7  10   44.39    1.45
   3  -7  -9   82.46    2.07
  -3   7   9   88.03    2.91
   3  -7  -8   -0.14    0.54
  -3   7   8    0.17    0.97
   3  -7  -7    2.18    0.66
  -3   7   7    2.27    1.11
   3  -7  -6    0.89    1.07
  -3   7   6    0.91    0.57
   3  -7  -5    9.58    1.36
  -3   7   5    9.14    1.33
   3  -7  -4   78.72    1.92
  -3   7   4   81.10    2.72
   3  -7  -3  866.80   21.08
  -3   7   3  900.27   21.59
   3  -7  -2    6.85    1.37
   3  -7  -1    0.12    0.53
   3  -7   0  142.96    3.87
   3  -7   0  149.21    2.69
   3  -7   1    9.80    1.37
   3  -7   1    1.54    0.78
   3  -7   1    9.57    0.68
   3  -7   2    2.02    0.71
   3  -7   2    2.21    1.30
   3  -7   2    2.93    0.44
   3  -7   3   48.04    2.51
   3  -7   3   50.99    1.11
   3  -7   3   51.99    1.66
   3  -7   4  107.35    2.64
   3  -7   4  116.86    3.86
   3  -7   5   23.03    1.29
   3  -7   5   22.07    1.30
   3  -7   6   12.05    1.14
   3  -7   6   12.58    2.05
   3  -7   7    5.33    1.08
   3  -7   7    6.99    2.02
   3  -7   8  138.50    3.61
   3  -7   9    0.75    1.04
   3  -7  10   68.07    4.02
   3  -6 -11   12.06    0.97
  -3   6  11   13.79    1.67
   3  -6 -10   42.12    2.26
  -3   6  10   42.37    2.25
   3  -6  -9    4.04    1.40
  -3   6   9    7.46    1.38
   3  -6  -8   29.55    1.99
  -3   6   8   30.02    1.22
   3  -6  -7  108.30    3.52
  -3   6   7  116.68    2.63
   3  -6  -6  115.67    3.51
  -3   6   6  120.45    3.46
   3  -6  -5  152.32    3.22
  -3   6   5  157.27    4.11
   3  -6  -4   33.13    2.02
  -3   6   4   34.81    1.94
   3  -6  -3  341.62    6.96
  -3   6   3  347.81    6.95
   3  -6  -2   -0.21    1.01
  -3   6   2   -0.10    0.53
   3  -6  -1   25.64    1.05
   3  -6   0   18.82    1.64
   3  -6   1   49.57    2.24
   3  -6   2 1290.45   32.60
   3  -6   2 1252.02   30.31
   3  -6   2 1268.09   29.26
   3  -6   3    6.15    0.40
   3  -6   3    6.12    1.09
   3  -6   3    7.66    1.98
   3  -6   4 2428.99   70.91
   3  -6   4 2342.13   68.62
   3  -6   5  537.47   11.81
   3  -6   5  571.06   12.52
   3  -6   6   64.93    3.13
   3  -6   6   60.42    1.96
   3  -6   7    6.37    1.06
   3  -6   8    4.13    1.96
   3  -6   9  124.25    4.90
   3  -6  10    6.71    1.28
   3  -6  11    6.93    2.43
   3  -5 -12   50.94    1.84
  -3   5  12   58.75    2.83
   3  -5 -11   11.58    1.74
  -3   5  11   11.22    1.00
   3  -5 -10   14.87    1.07
  -3   5  10   17.13    1.79
   3  -5  -9   84.71    2.29
  -3   5   9   88.93    3.26
   3  -5  -8  649.08   16.54
  -3   5   8  679.28   16.66
   3  -5  -7  177.62    5.65
  -3   5   7  173.69    5.45
   3  -5  -6 3276.43  100.94
  -3   5   6 3353.38  106.44
   3  -5  -5    1.82    1.46
  -3   5   5    2.29    0.78
   3  -5  -4  234.95    5.81
  -3   5   4  244.26    5.86
   3  -5  -3    2.87    1.26
  -3   5   3    2.79    1.19
   3  -5  -2  344.21    6.88
  -3   5   2  364.71    8.08
   3  -5  -1   23.76    1.64
  -3   5   1   26.74    1.64
   3  -5   0  226.51    4.43
   3  -5   1  141.49    3.77
   3  -5   2  115.76    3.33
   3  -5   3  524.10   12.51
   3  -5   3  592.98   13.93
   3  -5   3  556.81   10.58
   3  -5   4 2396.20   68.78
   3  -5   4 2319.59   64.41
   3  -5   5   99.75    3.69
   3  -5   5  108.53    2.74
   3  -5   6    7.03    1.00
   3  -5   7   10.27    1.93
   3  -5   8   59.91    2.04
   3  -5   9   71.32    3.50
   3  -5  10    0.95    1.74
   3  -5  11    5.70    1.21
   3  -5  12    1.20    2.08
   3  -4 -12   10.51    1.93
  -3   4  12   10.86    1.96
   3  -4 -11    1.67    0.85
  -3   4  11    2.89    1.56
   3  -4 -10  516.04   13.48
  -3   4  10  546.21   12.38
   3  -4  -9   13.45    1.15
  -3   4   9   12.97    2.00
   3  -4  -8    0.37    0.72
  -3   4   8    0.03    0.70
   3  -4  -7  376.97    9.41
  -3   4   7  403.06    8.46
   3  -4  -6  301.89    6.42
  -3   4   6  319.23    6.57
   3  -4  -5    1.32    1.29
  -3   4   5    1.41    1.19
   3  -4  -4    3.61    1.30
  -3   4   4    3.59    0.69
   3  -4  -3  411.62    9.32
  -3   4   3  424.31    8.41
   3  -4  -2   10.71    0.79
  -3   4   2   11.55    0.75
   3  -4  -1  128.45    2.60
  -3   4   1  137.49    3.43
   3  -4   0   10.24    1.29
  -3   4   0   10.03    1.28
   3  -4   1  136.99    3.51
   3  -4   2  846.03   19.50
   3  -4   3  258.70    5.93
   3  -4   4  377.65    8.53
   3  -4   4  358.53    8.21
   3  -4   5   74.47    1.88
   3  -4   5   79.47    2.89
   3  -4   6   27.83    2.08
   3  -4   7   11.48    1.05
   3  -4   8   38.15    2.51
   3  -4   9  202.52    4.56
   3  -4  10    4.49    1.92
   3  -4  11  224.10    5.22
   3  -4  12  191.78    6.43
   3  -4  13   25.49    3.01
   3  -3 -12    1.92    1.66
  -3   3  12    1.75    0.94
   3  -3 -11   45.27    1.77
  -3   3  11   47.11    1.78
   3  -3 -10    0.49    1.41
  -3   3  10    0.48    0.79
   3  -3  -9  107.08    2.77
  -3   3   9  114.27    3.85
   3  -3  -8   66.10    2.89
  -3   3   8   70.04    1.99
   3  -3  -7   61.10    2.87
  -3   3   7   66.06    2.78
   3  -3  -6   73.21    2.93
  -3   3   6   76.74    2.88
   3  -3  -5  118.85    2.64
  -3   3   5  122.94    3.56
   3  -3  -4    3.53    1.32
  -3   3   4    3.27    1.24
   3  -3  -3  683.51   14.48
  -3   3   3  702.60   14.81
   3  -3  -2  361.74    8.02
  -3   3   2  358.71    7.85
   3  -3  -1  888.23   20.39
  -3   3   1  887.59   20.27
   3  -3   0  586.17   13.16
  -3   3   0  611.94   13.62
   3  -3   1 1156.16   27.83
  -3   3  -1 1223.76   29.31
   3  -3   2  195.90    4.48
   3  -3   3 1182.43   25.84
   3  -3   3 1158.23   27.78
   3  -3   4    3.84    1.14
   3  -3   4    3.22    1.21
   3  -3   5   42.93    1.32
   3  -3   6   86.09    2.05
   3  -3   7  101.99    3.36
   3  -3   8  274.84    6.95
   3  -3   9   90.36    2.37
   3  -3  10    3.35    1.71
   3  -3  11    0.16    0.80
   3  -3  12  105.99    4.28
   3  -3  13    2.61    1.98
   3  -2 -12   14.79    1.33
  -3   2  12   16.21    2.44
   3  -2 -11    0.19    1.49
  -3   2  11    0.34    1.52
   3  -2 -10   19.88    2.23
  -3   2  10   22.22    2.32
   3  -2  -9   17.13    1.18
  -3   2   9   18.82    2.12
   3  -2  -8   73.49    3.17
  -3   2   8   76.35    2.13
   3  -2  -7  160.19    4.76
  -3   2   7  167.31    4.83
   3  -2  -6    0.04    0.71
  -3   2   6    1.36    0.70
   3  -2  -5    3.99    1.40
  -3   2   5    4.83    0.78
   3  -2  -4   27.09    1.87
  -3   2   4   30.02    1.80
   3  -2  -3 1318.59   31.35
  -3   2   3 1309.90   32.38
   3  -2  -2  214.06    4.17
  -3   2   2  222.62    5.10
   3  -2  -1    4.98    0.65
  -3   2   1    4.44    0.63
   3  -2   0  568.46   12.37
  -3   2   0  573.95   11.53
   3  -2   1   86.49    2.50
  -3   2  -1   88.10    2.55
   3  -2   2  393.77    8.34
   3  -2   3  259.34    4.37
   3  -2   3  253.86    5.58
   3  -2   4   94.59    1.48
   3  -2   4   89.58    2.54
   3  -2   5  301.42    6.57
   3  -2   6    2.92    1.14
   3  -2   7  130.67    3.41
  -3   2  -7  114.05    1.71
   3  -2   8    2.54    1.32
  -3   2  -8    2.34    0.30
   3  -2   9  717.37   17.27
  -3   2  -9  701.89   14.43
   3  -2  10   12.03    1.00
  -3   2 -10   10.34    0.40
   3  -2  11    3.48    1.56
  -3   2 -11    2.48    0.32
   3  -2  12   14.85    1.98
  -3   2 -12    9.91    0.65
   3  -2  13    7.33    1.14
   3  -2  14   95.93    4.23
   3  -1 -13   73.31    2.65
  -3   1  13   81.65    2.85
   3  -1 -12    1.35    1.02
  -3   1  12    1.89    1.09
   3  -1 -11    2.38    1.78
  -3   1  11    3.62    1.91
   3  -1 -10    4.39    1.87
  -3   1  10    5.34    1.96
   3  -1  -9   72.34    2.21
  -3   1   9   77.77    3.48
   3  -1  -8  109.49    3.92
  -3   1   8  115.86    2.90
   3  -1  -7   10.73    1.08
  -3   1   7   13.56    1.96
   3  -1  -6   22.11    2.05
  -3   1   6   22.11    1.19
   3  -1  -5  198.07    5.17
  -3   1   5  203.49    4.13
   3  -1  -4  422.35    9.64
  -3   1   4  432.46    8.65
   3  -1  -3  243.73    4.76
  -3   1   3  251.53    5.69
   3  -1  -2  290.71    6.49
  -3   1   2  298.67    6.53
   3  -1  -1  694.64   14.36
  -3   1   1  683.00   15.05
   3  -1   0    1.47    0.95
  -3   1   0    1.21    0.94
   3  -1   1  548.28   10.90
  -3   1  -1  575.14   11.43
   3  -1   2   80.11    2.27
   3  -1   2   82.37    1.77
  -3   1  -2   83.61    2.38
   3  -1   3  331.90    6.95
   3  -1   3  341.81    6.54
   3  -1   4 1063.37   23.79
   3  -1   4 1067.83   23.22
   3  -1   5 1893.80   48.54
  -3   1  -5 1910.51   48.02
   3  -1   6  102.29    2.70
  -3   1  -6  106.33    1.83
   3  -1   7  102.06    2.12
  -3   1  -7  104.41    1.85
   3  -1   8   46.23    1.33
  -3   1  -8   42.01    0.96
   3  -1   9  122.15    3.58
  -3   1  -9  114.59    2.17
   3  -1  10    2.60    1.26
  -3   1 -10    1.44    0.43
   3  -1  11    1.80    0.76
  -3   1 -11    2.24    0.64
   3  -1  12   23.38    2.04
  -3   1 -12   18.18    0.78
   3  -1  13    3.01    1.59
  -3   1 -13    2.06    0.51
   3  -1  14   96.24    2.71
   3   0 -12   19.75    1.52
  -3   0  12   20.90    2.89
   3   0 -11    5.42    1.14
  -3   0  11    7.62    2.22
   3   0 -10    5.17    2.04
  -3   0  10   10.21    2.23
   3   0  -9  504.78   13.32
  -3   0   9  529.25   13.77
   3   0  -8  146.20    4.82
  -3   0   8  152.80    5.04
   3   0  -7   13.73    1.18
  -3   0   7   14.02    2.19
   3   0  -6 1121.54   28.72
  -3   0   6 1110.34   26.49
   3   0  -5  251.80    6.29
  -3   0   5  263.82    6.52
   3   0  -4   41.45    2.13
  -3   0   4   42.05    2.11
   3   0  -3    6.85    1.33
  -3   0   3    6.88    0.71
   3   0  -2  563.72   11.45
  -3   0   2  579.25   11.70
   3   0  -1   51.94    1.29
  -3   0   1   52.22    1.93
   3   0   0   14.48    1.24
  -3   0   0   14.82    1.22
   3   0   1  399.69    7.46
   3   0   1  377.72    7.11
  -3   0  -1  389.16    8.04
   3   0   2  669.94   13.51
   3   0   2  695.06   14.13
  -3   0  -2  712.35   14.48
   3   0   3   81.46    1.43
   3   0   3   77.74    2.06
   3   0   4   87.66    1.67
   3   0   4   87.37    1.77
  -3   0  -4   90.50    1.91
   3   0   5  290.12    5.29
   3   0   5  295.93    5.99
  -3   0  -5  302.32    5.62
   3   0   6   17.08    0.68
  -3   0  -6   18.20    0.76
   3   0   7  115.89    2.84
  -3   0  -7  111.27    2.56
   3   0   8    0.55    0.89
  -3   0  -8    0.30    0.49
   3   0   9  108.06    3.17
  -3   0  -9   99.24    2.21
   3   0  10  278.74    6.93
   3   0  11  208.60    5.40
  -3   0 -11  196.44    4.19
   3   0  12  221.47    5.81
  -3   0 -12  204.39    4.36
   3   0  13   16.77    1.76
  -3   0 -13   12.57    0.89
   3   0  14   22.48    2.02
  -3   0 -14   18.02    1.02
   3   1 -12   90.59    3.06
  -3  -1  12   97.23    4.92
   3   1 -11    0.96    1.03
  -3  -1  11    1.79    2.04
   3   1 -10   40.29    1.86
  -3  -1  10   42.67    1.96
   3   1  -9   10.67    1.20
  -3  -1   9   11.75    1.30
   3   1  -8   50.95    2.97
  -3  -1   8   52.01    1.94
   3   1  -7   60.43    3.02
  -3  -1   7   60.02    2.01
   3   1  -6    0.72    1.34
  -3  -1   6    0.93    1.44
   3   1  -5   88.32    3.17
  -3  -1   5   90.90    3.26
   3   1  -4   77.44    1.88
  -3  -1   4   82.05    2.84
   3   1  -3    0.41    1.11
  -3  -1   3    1.28    1.11
   3   1  -2  109.03    2.28
  -3  -1   2  110.75    3.10
   3   1  -1   14.82    1.36
  -3  -1   1   15.72    1.36
   3   1   0   22.91    0.92
   3   1   0   22.87    1.34
  -3  -1   0   22.89    1.28
   3   1   1  528.64   10.87
   3   1   1  526.43   10.36
  -3  -1  -1  527.69   10.89
   3   1   2 1259.03   29.76
   3   1   2 1311.58   31.30
  -3  -1  -2 1274.45   30.13
  -3  -1  -2 1310.65   30.37
   3   1   3    4.47    0.41
   3   1   3    4.25    0.83
  -3  -1  -3    4.77    0.40
  -3  -1  -3    4.41    0.88
   3   1   4  573.27   11.19
   3   1   4  570.06   11.78
  -3  -1  -4  610.82   12.66
   3   1   5  228.20    4.46
   3   1   5  217.44    4.19
   3   1   5  219.84    4.29
  -3  -1  -5  221.49    4.40
   3   1   6   53.85    1.49
  -3  -1  -6   52.63    1.47
   3   1   7  227.09    4.69
  -3  -1  -7  214.23    4.40
   3   1   8 3062.78   91.98
  -3  -1  -8 3121.69   94.11
   3   1   9  784.63   18.15
  -3  -1  -9  742.43   17.03
   3   1  10  434.32    9.91
  -3  -1 -10  420.26    9.22
   3   1  11   77.03    1.88
  -3  -1 -11   74.22    2.13
   3   1  12  294.52    7.03
  -3  -1 -12  276.36    6.25
   3   1  13    2.67    1.21
  -3  -1 -13    2.07    0.79
   3   1  14   71.08    1.93
  -3  -1 -14   60.91    2.01
   3   2 -12  376.76    9.87
  -3  -2  12  403.32   12.68
   3   2 -11    4.98    2.51
  -3  -2  11    6.32    2.62
   3   2 -10   44.83    3.32
  -3  -2  10   47.70    2.18
   3   2  -9   85.01    3.93
  -3  -2   9   89.31    2.74
   3   2  -8    4.03    1.73
  -3  -2   8    3.79    1.87
   3   2  -7   56.00    2.95
  -3  -2   7   59.18    3.11
   3   2  -6    9.44    1.01
  -3  -2   6   10.23    1.08
   3   2  -5    1.28    0.72
  -3  -2   5    1.51    0.76
   3   2  -4  721.36   17.14
  -3  -2   4  749.16   17.76
   3   2  -3 1698.00   43.76
  -3  -2   3 1755.74   46.88
   3   2  -216365.10  791.86
  -3  -2   216771.11  800.52
   3   2  -1   14.62    1.45
   3   2  -1   15.77    0.99
  -3  -2   1   15.61    0.85
   3   2   0   74.12    1.69
   3   2   0   74.05    2.05
  -3  -2   0   74.28    2.03
   3   2   1  136.79    2.86
   3   2   1  135.43    3.38
  -3  -2  -1  136.63    2.80
   3   2   2    6.52    0.65
   3   2   2    6.28    1.09
  -3  -2  -2    6.45    0.63
  -3  -2  -2    5.24    0.62
   3   2   3    0.22    0.44
   3   2   3    0.38    0.45
  -3  -2  -3    0.34    0.43
  -3  -2  -3    0.51    0.84
   3   2   4  726.80   15.87
   3   2   4  744.83   15.35
  -3  -2  -4  763.75   15.88
   3   2   5  704.39   15.16
   3   2   5  657.40   13.45
   3   2   5  658.00   13.44
  -3  -2  -5  714.04   15.36
   3   2   6  149.67    2.82
   3   2   6  152.66    2.88
  -3  -2  -6  143.89    2.67
   3   2   7  334.06    6.45
  -3  -2  -7  314.73    6.66
   3   2   8  284.94    5.71
  -3  -2  -8  271.06    5.83
   3   2   9  499.39   10.56
  -3  -2  -9  472.29   10.47
   3   2  10   13.31    1.14
  -3  -2 -10   11.97    0.70
   3   2  11   60.60    2.02
  -3  -2 -11   57.57    2.01
   3   2  12   15.18    1.29
  -3  -2 -12   14.22    1.25
   3   2  13  116.65    3.26
  -3  -2 -13  107.87    3.09
   3   2  14   31.82    1.82
  -3  -2 -14   29.31    1.64
   3   3 -12  611.90   18.80
  -3  -3  12  630.72   16.54
   3   3 -11    3.93    2.43
  -3  -3  11    3.42    2.64
   3   3 -10   19.65    2.72
  -3  -3  10   19.58    2.96
   3   3  -9    0.19    0.85
  -3  -3   9    0.04    0.93
   3   3  -8   62.12    2.08
  -3  -3   8   67.20    3.51
   3   3  -7   57.55    1.91
  -3  -3   7   64.39    3.22
   3   3  -6   64.89    2.96
  -3  -3   6   67.55    3.31
   3   3  -5  566.71   13.75
  -3  -3   5  593.43   12.91
   3   3  -4   60.68    2.49
  -3  -3   4   63.84    2.72
   3   3  -3   11.84    1.38
   3   3  -3   12.38    1.61
  -3  -3   3   11.82    0.85
   3   3  -2    4.71    0.60
   3   3  -2    6.84    0.72
  -3  -3   2    4.66    0.64
   3   3  -1   57.35    2.20
   3   3  -1   57.71    1.82
  -3  -3   1   59.28    1.88
   3   3   0  317.54    6.29
   3   3   0  321.16    7.02
  -3  -3   0  328.77    5.89
   3   3   1  252.80    4.80
   3   3   1  254.57    4.78
  -3  -3  -1  254.46    4.71
  -3  -3  -1  247.77    4.77
   3   3   2   10.99    1.25
   3   3   2   10.34    0.62
  -3  -3  -2   10.59    1.33
  -3  -3  -2   10.97    0.58
   3   3   3  588.85   11.81
   3   3   3  643.75   13.91
  -3  -3  -3  598.15   11.59
  -3  -3  -3  640.59   13.89
   3   3   4  202.86    3.78
   3   3   4  206.13    3.42
  -3  -3  -4  198.80    3.78
   3   3   5  513.94   10.91
   3   3   5  476.62    9.13
   3   3   5  467.96    8.97
  -3  -3  -5  494.70   10.62
   3   3   6 1136.08   25.93
   3   3   6 1149.57   25.84
  -3  -3  -6 1241.47   29.70
   3   3   7  181.76    3.28
   3   3   7  174.13    3.09
  -3  -3  -7  166.08    4.04
   3   3   8    1.48    0.55
  -3  -3  -8    1.11    0.99
   3   3   9    4.42    0.70
  -3  -3  -9    3.27    1.14
   3   3  10   16.15    0.97
  -3  -3 -10   15.08    1.43
   3   3  11  101.91    2.49
  -3  -3 -11   96.18    2.19
   3   3  12   23.66    1.27
  -3  -3 -12   23.26    1.62
   3   3  13   13.60    1.18
  -3  -3 -13   11.87    1.43
   3   3  14   11.59    1.25
  -3  -3 -14   10.82    1.44
   3   4 -11   20.25    1.71
  -3  -4  11   22.32    1.88
   3   4 -10   25.23    1.68
  -3  -4  10   29.01    3.14
   3   4  -9   19.21    2.49
  -3  -4   9   19.38    2.65
   3   4  -8   22.47    2.39
  -3  -4   8   23.26    1.48
   3   4  -7   99.86    2.66
   3   4  -7  102.40    2.52
  -3  -4   7  102.27    2.74
   3   4  -6   83.51    3.10
   3   4  -6   74.69    3.10
  -3  -4   6   80.56    3.40
   3   4  -5  878.44   22.09
   3   4  -5  927.48   21.27
  -3  -4   5  919.05   21.38
   3   4  -4   14.74    0.92
   3   4  -4   14.95    0.97
  -3  -4   4   15.07    1.01
   3   4  -3   68.82    2.31
   3   4  -3   71.93    2.59
  -3  -4   3   73.63    2.58
   3   4  -2   61.96    1.99
   3   4  -2   62.36    2.33
  -3  -4   2   67.13    2.19
   3   4  -1   33.68    1.32
   3   4  -1   32.87    1.10
  -3  -4   1   33.42    1.40
   3   4   0  305.05    5.89
   3   4   0  300.99    5.84
  -3  -4   0  308.39    6.02
   3   4   1    1.23    0.46
   3   4   1    1.26    0.57
  -3  -4  -1    1.48    0.59
  -3  -4  -1    1.61    0.48
   3   4   2  208.29    3.77
   3   4   2  204.40    4.76
  -3  -4  -2  196.07    4.69
  -3  -4  -2  206.53    3.71
   3   4   3  767.43   15.65
   3   4   3  842.10   19.12
  -3  -4  -3  754.80   15.29
  -3  -4  -3  857.06   19.44
   3   4   4  608.17   12.28
   3   4   4  562.79   10.39
   3   4   4  509.00    9.27
  -3  -4  -4  597.16   12.19
   3   4   5 2011.93   50.02
   3   4   5 1907.80   47.38
  -3  -4  -5 2038.12   54.84
   3   4   6  179.64    2.86
   3   4   6  184.14    2.96
  -3  -4  -6  170.60    3.49
   3   4   7   11.59    0.51
   3   4   7   12.71    0.61
  -3  -4  -7   10.60    1.46
   3   4   8   17.67    0.71
   3   4   8   18.29    0.86
  -3  -4  -8   17.68    1.63
   3   4   9   65.52    1.69
  -3  -4  -9   61.23    1.67
   3   4  10  210.46    4.01
  -3  -4 -10  200.71    5.20
   3   4  11   -0.12    0.52
  -3  -4 -11    0.73    1.05
   3   4  12   11.08    0.86
  -3  -4 -12   11.41    0.91
   3   4  13   65.88    1.86
  -3  -4 -13   67.56    1.90
   3   4  14   26.79    1.29
  -3  -4 -14   24.89    1.27
   3   5 -10    8.08    1.56
   3   5 -10    5.83    2.34
  -3  -5  10    9.32    1.42
   3   5  -9   45.47    1.52
   3   5  -9   49.36    2.00
  -3  -5   9   49.98    2.09
   3   5  -8    0.37    0.65
   3   5  -8    1.03    1.51
  -3  -5   8    1.19    1.69
   3   5  -7   26.00    1.35
   3   5  -7   27.97    1.93
  -3  -5   7   28.26    2.52
   3   5  -6   90.82    2.21
   3   5  -6   88.52    3.31
  -3  -5   6   94.64    2.48
   3   5  -5   89.64    3.02
   3   5  -5   87.90    2.15
  -3  -5   5   89.80    2.32
   3   5  -4   10.03    1.50
   3   5  -4    8.63    1.40
  -3  -5   4   11.65    1.66
   3   5  -3   20.38    1.70
   3   5  -3   20.10    0.87
  -3  -5   3   20.90    1.64
   3   5  -2    7.91    0.79
   3   5  -2    8.29    1.04
  -3  -5   2    8.78    1.18
   3   5  -1  330.33    7.56
   3   5  -1  328.69    6.73
  -3  -5   1  342.06    7.13
   3   5   0  196.62    3.94
   3   5   0  198.74    3.85
  -3  -5   0  203.92    4.07
  -3  -5   0  203.43    5.25
   3   5   1   77.99    1.86
   3   5   1   77.32    1.54
  -3  -5  -1   79.57    1.62
  -3  -5  -1   76.16    2.74
   3   5   2   87.30    1.99
   3   5   2   88.03    1.45
  -3  -5  -2   80.60    2.83
  -3  -5  -2   88.73    1.70
   3   5   3    8.23    0.21
   3   5   3    7.35    0.77
  -3  -5  -3    6.89    1.39
  -3  -5  -3    6.72    0.19
   3   5   4  449.31    9.07
  -3  -5  -4  438.30    8.98
  -3  -5  -5   73.74    2.74
  -3  -5  -6  104.47    2.40
  -3  -5  -7   51.50    1.58
  -3  -5  -8   47.00    2.40
   3   5   9  374.33    6.74
   3   5   9  380.18    7.06
  -3  -5  -9  377.66    9.19
   3   5  10    0.62    0.46
  -3  -5 -10    0.34    0.71
   3   5  11    0.17    0.37
  -3  -5 -11    0.23    1.24
   3   5  12   79.04    1.71
  -3  -5 -12   81.43    3.17
  -3  -5 -13   23.19    2.10
  -3  -5 -14   48.82    2.73
   3   6  -9    0.14    1.09
   3   6  -9    0.02    1.61
  -3  -6   9    0.93    1.79
   3   6  -8    9.11    1.49
   3   6  -8    9.84    1.16
  -3  -6   8   10.96    1.27
   3   6  -7   45.30    1.45
   3   6  -7   46.90    2.62
  -3  -6   7   47.25    1.84
   3   6  -6   64.83    2.55
   3   6  -6   62.80    2.81
  -3  -6   6   67.89    3.09
   3   6  -5    2.21    1.21
   3   6  -5    2.35    0.70
  -3  -6   5    2.71    1.42
   3   6  -4    1.68    0.60
   3   6  -4    2.08    0.65
  -3  -6   4    2.06    1.24
   3   6  -3    0.49    0.60
   3   6  -3    0.17    0.88
  -3  -6   3    0.09    1.03
   3   6  -2  464.46   10.90
   3   6  -2  455.51    9.21
  -3  -6   2  476.78   10.60
   3   6  -1 1067.89   26.55
   3   6  -1 1092.07   25.69
  -3  -6   1 1064.97   25.37
   3   6   0   11.71    0.94
   3   6   0   12.47    0.76
  -3  -6   0   12.97    0.92
  -3  -6   0   13.02    1.76
   3   6   1    4.36    0.47
   3   6   1    5.03    1.38
  -3  -6  -1    4.52    0.80
  -3  -6  -1    4.55    1.47
   3   6   2   12.29    1.59
   3   6   2   11.08    0.50
  -3  -6  -2   11.78    0.60
  -3  -6  -2   11.38    1.67
   3   6   3   26.86    1.16
  -3  -6  -3   26.79    2.02
   3   6   4    6.47    1.56
  -3  -6  -4    6.32    0.89
  -3  -6  -5   60.34    2.81
  -3  -6  -6  152.52    4.49
  -3  -6  -7   26.90    2.18
  -3  -6  -8  160.75    3.63
  -3  -6  -9  128.36    3.10
  -3  -6 -10    0.66    1.47
  -3  -6 -11   86.03    3.65
  -3  -6 -12    6.67    1.06
  -3  -6 -13   32.22    1.63
   3   7  -8    9.82    1.09
   3   7  -8    6.28    0.80
  -3  -7   8    6.68    1.24
   3   7  -7   28.21    2.28
   3   7  -7   29.41    1.87
  -3  -7   7   30.00    2.55
   3   7  -6   12.97    0.91
   3   7  -6   12.37    1.71
  -3  -7   6   14.01    1.96
   3   7  -5    4.36    1.33
   3   7  -5    3.82    1.35
  -3  -7   5    5.72    1.52
   3   7  -4  327.59    7.87
   3   7  -4  319.29    7.55
  -3  -7   4  325.61    7.96
   3   7  -3    2.42    1.26
   3   7  -3    1.35    0.98
  -3  -7   3    2.88    1.11
   3   7  -2  431.15   10.18
   3   7  -2  429.50    9.34
  -3  -7   2  446.28    9.83
   3   7  -1   94.93    2.26
   3   7  -1   97.72    3.24
  -3  -7   1   98.22    2.45
   3   7   0   38.44    1.13
   3   7   0   41.38    1.40
  -3  -7   0   39.87    1.50
  -3  -7   0   42.58    1.35
   3   7   1  157.32    3.09
   3   7   1  168.43    4.63
  -3  -7  -1  171.14    3.55
  -3  -7  -1  166.80    4.89
   3   7   2    6.84    1.54
  -3  -7  -2    6.15    1.69
  -3  -7  -2    6.33    0.51
   3   7   3   85.06    2.19
  -3  -7  -3   79.85    2.25
  -3  -7  -4   92.84    3.59
  -3  -7  -5   79.37    3.40
  -3  -7  -6    3.14    0.96
  -3  -7  -7   73.73    3.33
  -3  -7  -8  151.90    4.99
  -3  -7  -9   22.66    1.43
  -3  -7 -10   93.21    3.95
  -3  -7 -11   28.15    1.59
  -3  -7 -12    3.90    1.97
  -3  -7 -13   13.79    2.45
   3   8  -7    0.57    0.61
   3   8  -7    0.80    1.42
  -3  -8   7    0.75    1.60
   3   8  -6    3.66    1.35
   3   8  -6    4.04    1.55
  -3  -8   6    5.41    1.73
   3   8  -5   -0.12    0.54
   3   8  -5    0.28    1.01
  -3  -8   5    0.18    1.13
   3   8  -4  259.65    6.30
   3   8  -4  254.28    6.64
  -3  -8   4  261.38    6.56
   3   8  -3   24.27    0.92
   3   8  -3   23.77    1.88
  -3  -8   3   24.91    1.62
   3   8  -2   68.96    2.02
   3   8  -2   71.56    2.83
  -3  -8   2   75.01    2.29
   3   8  -1   80.05    1.95
  -3  -8   1   88.35    2.28
   3   8   0    6.36    1.51
   3   8   0    5.86    0.59
  -3  -8   0    7.07    0.72
  -3  -8   0    5.82    1.68
   3   8   1    2.92    0.81
  -3  -8  -1    3.75    0.51
  -3  -8  -1    2.90    1.62
   3   8   2  155.31    3.54
  -3  -8  -2  153.03    3.59
  -3  -8  -2  153.48    2.74
  -3  -8  -3   49.48    2.91
  -3  -8  -4  140.04    3.60
  -3  -8  -5 1262.15   32.02
  -3  -8  -6 2558.68   74.90
  -3  -8  -7    4.74    1.16
  -3  -8  -8    1.38    0.97
  -3  -8  -9    9.31    2.15
  -3  -8 -10    8.17    1.25
  -3  -8 -11    1.20    1.90
  -3  -8 -12    5.13    2.24
   3   9  -6   11.70    1.59
   3   9  -6   10.02    1.84
  -3  -9   6   10.28    2.06
   3   9  -5  646.58   16.42
   3   9  -5  632.38   16.02
  -3  -9   5  652.97   17.03
   3   9  -4  220.34    5.51
   3   9  -4  229.50    6.29
  -3  -9   4  231.91    6.09
   3   9  -3    1.35    0.91
   3   9  -3    2.91    1.33
  -3  -9   3    1.82    1.06
   3   9  -2   21.61    1.14
   3   9  -2   23.33    1.91
  -3  -9   2   22.63    1.37
   3   9  -1   19.63    1.89
  -3  -9   1   21.66    1.16
   3   9   0   36.09    2.24
  -3  -9   0   35.52    1.18
  -3  -9   0   36.00    2.62
   3   9   1    1.23    1.55
  -3  -9  -1    1.76    0.90
  -3  -9  -1    2.28    0.47
  -3  -9  -2  382.92    9.96
  -3  -9  -2  321.10    6.29
  -3  -9  -2  351.22    6.55
  -3  -9  -3  477.08   10.90
  -3  -9  -4   60.30    3.36
  -3  -9  -5    3.11    1.93
  -3  -9  -6    3.96    2.05
  -3  -9  -7    0.84    1.78
  -3  -9  -8   15.18    1.43
  -3  -9  -9   17.88    2.64
  -3  -9 -10    0.36    1.04
   3  10  -4   16.10    0.86
   3  10  -4   17.26    1.04
  -3 -10   4   18.51    1.64
   3  10  -3    2.79    1.30
   3  10  -3   -0.23    0.49
  -3 -10   3    5.55    0.60
   3  10  -2    0.27    1.12
  -3 -10   2   -0.01    0.73
   3  10  -1   18.03    1.15
  -3 -10   1   17.18    1.06
   3  10   0  225.31    5.10
  -3 -10   0  221.59    4.68
  -3 -10   0  233.32    5.48
  -3 -10  -1   13.85    2.17
  -3 -10  -2   19.73    1.38
  -3 -10  -3   24.26    2.47
  -3 -10  -4   10.15    2.17
  -3 -10  -5    1.82    1.89
  -3 -10  -6   18.62    2.66
  -3 -10  -7   76.75    4.12
  -3 -10  -8    2.88    2.22
  -3 -10  -9  122.82    5.46
  -3 -11   0    2.97    1.02
  -3 -11  -1    0.14    0.80
  -3 -11  -2    9.43    2.11
  -3 -11  -3   -0.38    1.66
  -3 -11  -4    0.82    1.78
  -3 -11  -5   37.33    1.90
  -3 -11  -6   28.04    3.06
   4 -10  -3   34.92    1.33
   4 -10  -2    1.17    0.71
   4 -10  -1   51.35    2.53
   4 -10  -1   47.39    2.49
   4 -10   0   16.97    1.87
   4 -10   0   12.70    1.00
   4 -10   0   15.75    1.85
   4 -10   1    0.79    1.37
   4 -10   1   -0.33    1.31
   4 -10   2   -0.05    0.83
   4 -10   2   -0.55    1.45
   4  -9  -6    2.84    1.48
  -4   9   6    5.67    1.44
   4  -9  -5   63.40    2.66
   4  -9  -4    6.60    1.44
   4  -9  -3  162.11    4.50
   4  -9  -2    0.51    1.16
   4  -9  -1   20.47    1.25
   4  -9  -1   21.89    1.13
   4  -9   0    0.14    0.74
   4  -9   0    1.16    1.25
   4  -9   0    0.28    0.62
   4  -9   1  244.86    6.70
   4  -9   1  257.21    5.61
   4  -9   1  229.53    4.60
   4  -9   2  286.95    7.88
   4  -9   2  269.07    7.47
   4  -9   3   28.69    2.63
   4  -9   3   28.10    1.47
   4  -9   4    8.80    1.25
   4  -9   4   10.61    2.07
   4  -9   5   13.19    1.37
   4  -9   5   12.39    2.27
   4  -9   6   81.27    4.05
   4  -9   6   83.78    4.15
   4  -8  -8   74.32    3.10
  -4   8   8   85.67    3.28
   4  -8  -7    5.02    1.47
  -4   8   7    4.25    1.49
   4  -8  -6   -0.32    1.22
  -4   8   6   -1.04    1.18
   4  -8  -5    1.37    1.23
  -4   8   5    0.63    1.23
   4  -8  -4   39.69    2.23
  -4   8   4   41.33    2.20
   4  -8  -3   21.27    1.83
   4  -8  -2    5.21    1.44
   4  -8  -1    1.35    1.26
   4  -8   0   14.66    0.98
   4  -8   0   15.56    1.02
   4  -8   1   37.13    1.13
   4  -8   1   41.54    2.34
   4  -8   2    7.55    1.72
   4  -8   2    7.08    0.98
   4  -8   2    5.00    0.72
   4  -8   3  230.28    6.39
   4  -8   3  220.50    6.17
   4  -8   4   56.27    1.96
   4  -8   4   64.77    3.23
   4  -8   5   11.41    1.23
   4  -8   5   11.30    1.29
   4  -8   6    6.20    1.16
   4  -8   6    4.40    2.14
   4  -8   7   95.76    4.38
   4  -8   7  100.69    4.56
   4  -8   8   28.30    3.17
   4  -8   8   29.65    1.96
   4  -7  -9   15.48    1.89
  -4   7   9   14.06    1.84
   4  -7  -8   10.46    1.73
  -4   7   8   10.73    1.01
   4  -7  -7   11.55    1.73
  -4   7   7   12.21    0.97
   4  -7  -6    0.65    1.27
  -4   7   6    0.69    0.69
   4  -7  -5   87.42    3.23
  -4   7   5   90.40    2.26
   4  -7  -4    0.69    1.30
  -4   7   4    1.01    1.26
   4  -7  -3  119.83    3.77
  -4   7   3  123.73    3.79
   4  -7  -2  134.25    4.18
   4  -7  -1  308.93    7.65
   4  -7   0    2.81    1.34
   4  -7   1    3.79    0.83
   4  -7   2   17.72    0.66
   4  -7   2   19.84    1.89
   4  -7   3   19.72    1.19
   4  -7   3   16.39    0.59
   4  -7   3   18.88    1.17
   4  -7   4   60.23    2.99
   4  -7   4   59.53    3.08
   4  -7   5   13.18    2.18
   4  -7   5   15.86    1.26
   4  -7   6    3.95    1.85
   4  -7   6    3.87    1.94
   4  -7   7   28.95    2.76
   4  -7   7   31.18    1.68
   4  -7   8  213.81    5.24
   4  -7   8  228.14    7.14
   4  -7   9   20.15    2.86
   4  -6 -10    0.83    1.48
  -4   6  10    1.38    1.47
   4  -6  -9   -0.31    1.32
  -4   6   9   -0.39    0.74
   4  -6  -8    8.81    0.97
  -4   6   8    8.07    1.69
   4  -6  -7   10.86    1.77
  -4   6   7    8.79    1.69
   4  -6  -6   11.74    1.80
  -4   6   6   12.53    1.74
   4  -6  -5  100.84    3.55
  -4   6   5  105.35    2.54
   4  -6  -4    9.51    0.96
  -4   6   4    9.37    0.93
   4  -6  -3  128.64    2.96
  -4   6   3  136.27    4.00
   4  -6  -2  115.45    2.69
  -4   6   2  123.90    2.79
   4  -6  -1   12.73    1.74
  -4   6   1   15.78    1.73
   4  -6   0    0.78    1.25
   4  -6   1    8.79    0.94
   4  -6   2   81.76    2.11
   4  -6   3  322.59    6.87
   4  -6   3  304.19    5.28
   4  -6   3  302.59    7.77
   4  -6   4  392.32    8.47
   4  -6   4  414.56   10.30
   4  -6   5    2.45    0.90
   4  -6   5    1.62    0.92
   4  -6   6    1.84    1.70
   4  -6   6    2.21    1.62
   4  -6   7   34.94    1.64
   4  -6   7   35.59    1.71
   4  -6   8   45.57    1.90
   4  -6   8   47.98    3.19
   4  -6   9   12.28    2.39
   4  -6   9   14.08    1.45
   4  -6  10    1.06    1.05
   4  -6  10    0.83    1.95
   4  -5 -10    6.41    1.03
  -4   5  10    3.34    1.79
   4  -5  -9   38.72    2.66
  -4   5   9   41.29    1.64
   4  -5  -8   25.39    2.34
  -4   5   8   24.26    2.26
   4  -5  -7    1.68    0.85
  -4   5   7    1.73    1.49
   4  -5  -6   80.06    2.24
  -4   5   6   85.47    3.32
   4  -5  -5   20.55    1.25
  -4   5   5   21.19    2.03
   4  -5  -4  160.40    4.68
  -4   5   4  169.64    3.64
   4  -5  -3   29.37    2.12
  -4   5   3   28.28    2.01
   4  -5  -2   92.64    3.33
  -4   5   2   97.24    2.31
   4  -5  -1   31.01    2.14
  -4   5   1   32.43    1.28
   4  -5   0  230.63    4.82
  -4   5   0  246.58    6.13
   4  -5   1   63.14    2.05
   4  -5   2 2958.47   87.06
   4  -5   3  595.37   14.96
   4  -5   4  227.83    4.96
   4  -5   4  251.13    6.76
   4  -5   5  369.12    9.45
   4  -5   5  395.15    8.45
   4  -5   6  367.49    9.46
   4  -5   6  378.01    8.17
   4  -5   7  173.08    5.31
   4  -5   7  183.28    5.57
   4  -5   8  118.48    4.37
   4  -5   8  124.13    3.19
   4  -5   9   58.96    3.42
   4  -5   9   56.32    2.07
   4  -5  10   22.78    1.55
   4  -5  11   75.33    4.16
   4  -4 -11   23.18    2.49
  -4   4  11   23.87    2.55
   4  -4 -10  224.46    7.06
  -4   4  10  228.83    6.97
   4  -4  -9  289.36    7.31
  -4   4   9  305.14    7.43
   4  -4  -8 2924.89   93.81
  -4   4   8 2893.21   92.29
   4  -4  -7   -1.04    1.76
  -4   4   7   -0.28    1.82
   4  -4  -6  119.39    4.26
  -4   4   6  117.69    4.07
   4  -4  -5  169.69    5.16
  -4   4   5  177.84    5.12
   4  -4  -4   49.27    2.70
  -4   4   4   51.28    2.55
   4  -4  -3    4.87    1.59
  -4   4   3    4.74    1.46
   4  -4  -2  145.01    3.24
  -4   4   2  148.35    3.18
   4  -4  -1  200.13    4.14
  -4   4   1  211.87    4.29
   4  -4   0   28.67    2.02
  -4   4   0   29.26    1.21
   4  -4   1  314.11    7.56
  -4   4  -1  317.42    6.47
   4  -4   2 1104.83   27.37
   4  -4   3  118.18    3.73
   4  -4   4    0.10    0.92
   4  -4   4   43.03    1.91
   4  -4   5  101.88    3.49
   4  -4   5  108.25    3.63
   4  -4   6    5.68    0.93
   4  -4   6    7.56    1.73
   4  -4   7  201.99    4.40
   4  -4   7  213.07    4.61
   4  -4   8   16.29    1.18
   4  -4   8   14.07    2.10
   4  -4   9   28.68    2.51
   4  -4  10   18.03    2.32
   4  -4  11    2.37    1.04
   4  -4  12    1.99    1.96
   4  -3 -11   66.14    2.36
  -4   3  11   70.34    3.71
   4  -3 -10   -0.27    1.63
   4  -3 -10    0.06    1.68
  -4   3  10    0.71    0.93
   4  -3  -9   43.78    1.87
  -4   3   9   49.14    3.03
   4  -3  -8  154.36    5.18
  -4   3   8  158.33    5.12
   4  -3  -7    0.36    1.54
  -4   3   7    0.89    1.49
   4  -3  -6  185.20    4.21
  -4   3   6  198.13    4.30
   4  -3  -5   -0.18    0.73
  -4   3   5    0.06    1.25
   4  -3  -4    2.98    0.88
  -4   3   4    3.41    1.45
   4  -3  -3  435.78   10.44
  -4   3   3  452.24    9.35
   4  -3  -2    7.99    1.60
  -4   3   2    8.27    1.52
   4  -3  -1   51.17    1.54
  -4   3   1   52.95    2.33
   4  -3   0  776.57   18.30
  -4   3   0  818.68   17.79
   4  -3   1  272.65    5.43
  -4   3  -1  280.81    5.56
   4  -3   2   80.43    1.94
   4  -3   3   21.28    1.75
   4  -3   3   22.84    0.71
   4  -3   4   22.58    1.07
   4  -3   4   22.80    0.51
   4  -3   5   92.86    3.10
   4  -3   5   95.29    3.16
   4  -3   6   14.98    1.00
   4  -3   6   15.36    1.82
   4  -3   7  272.42    6.79
   4  -3   8   10.04    1.04
   4  -3   8   11.54    1.87
   4  -3   9  757.95   17.34
   4  -3  10  309.27    8.31
   4  -3  11  179.99    4.23
   4  -3  12   44.27    2.96
   4  -3  13    0.67    0.96
   4  -2 -11  116.63    3.44
  -4   2  11  129.90    3.58
   4  -2 -10    0.32    1.56
  -4   2  10    0.20    1.62
   4  -2  -9   -0.11    0.83
  -4   2   9   -0.29    1.50
   4  -2  -8   29.53    2.51
  -4   2   8   29.38    1.54
   4  -2  -7    9.49    1.07
  -4   2   7    8.17    1.91
   4  -2  -6    9.69    1.11
  -4   2   6    9.85    1.05
   4  -2  -5   49.86    2.83
  -4   2   5   48.74    1.66
   4  -2  -4   -0.04    0.68
  -4   2   4    0.31    1.18
   4  -2  -3  514.65   10.94
  -4   2   3  536.85   12.37
   4  -2  -2  863.83   21.12
  -4   2   2  886.98   21.48
   4  -2  -1 2126.94   59.09
  -4   2   1 2154.25   59.47
   4  -2   0   16.73    1.60
  -4   2   0   16.52    0.92
   4  -2   1  572.94   11.82
  -4   2  -1  606.60   13.47
   4  -2   2   -0.09    0.94
  -4   2  -2    0.10    0.52
   4  -2   3  213.53    5.05
   4  -2   3  220.70    4.06
   4  -2   4  544.66   12.18
   4  -2   4  553.24   10.95
   4  -2   5   21.85    0.65
   4  -2   5   21.57    1.00
   4  -2   5   20.84    1.62
   4  -2   5   21.30    1.65
   4  -2   6   29.18    1.13
   4  -2   6   30.03    1.14
   4  -2   7    4.79    1.37
   4  -2   7    4.74    1.44
   4  -2   8    8.49    1.60
   4  -2   9   75.53    2.04
   4  -2  10    4.09    1.54
   4  -2  11   93.61    3.61
   4  -2  12   54.64    2.90
   4  -2  13   76.01    3.54
   4  -1 -12   45.53    2.16
  -4   1  12   49.43    2.32
   4  -1 -11   60.27    3.69
  -4   1  11   61.50    3.85
   4  -1 -10   18.13    2.45
  -4   1  10   18.81    1.49
   4  -1  -9   38.30    1.76
  -4   1   9   45.24    1.85
   4  -1  -8    5.83    1.93
  -4   1   8    5.42    1.92
   4  -1  -7  112.11    2.89
  -4   1   7  117.51    4.16
   4  -1  -6    7.29    1.93
  -4   1   6   10.33    1.88
   4  -1  -5   22.05    1.28
  -4   1   5   23.76    1.27
   4  -1  -4   56.20    1.78
  -4   1   4   57.84    2.65
   4  -1  -3   69.87    2.85
  -4   1   3   69.14    2.74
   4  -1  -2  634.74   14.73
  -4   1   2  669.13   15.30
   4  -1  -1   39.56    1.25
  -4   1   1   40.73    1.95
   4  -1   0   10.64    1.33
  -4   1   0    9.66    0.73
   4  -1   1   20.75    1.49
  -4   1  -1   21.98    1.46
   4  -1   2  111.41    2.26
   4  -1   2  112.52    2.50
  -4   1  -2  115.95    3.05
   4  -1   3  859.27   18.75
   4  -1   3  885.99   20.19
   4  -1   4    2.73    0.52
   4  -1   4    3.10    0.57
   4  -1   5    2.45    0.43
   4  -1   5    0.02    0.55
   4  -1   5    2.27    0.56
   4  -1   6  131.26    3.42
   4  -1   6  131.71    2.65
   4  -1   7  156.36    3.18
   4  -1   7  164.38    4.15
  -4   1  -7  166.70    2.99
   4  -1   8    9.03    1.44
  -4   1  -8   10.01    0.53
   4  -1   9    0.23    1.12
  -4   1  -9    0.63    0.34
   4  -1  10    4.32    0.76
  -4   1 -10    4.21    0.43
   4  -1  11    3.07    1.33
  -4   1 -11    2.03    0.40
   4  -1  12  174.66    4.93
  -4   1 -12  157.69    2.98
   4  -1  13  249.61    6.87
   4  -1  14   13.86    1.21
   4   0 -11    3.03    1.17
  -4   0  11    4.61    2.24
   4   0 -10   12.07    2.44
  -4   0  10   13.30    2.51
   4   0  -9   19.23    2.53
  -4   0   9   21.67    2.64
   4   0  -8   66.69    2.26
  -4   0   8   74.43    3.67
   4   0  -7  425.03   11.22
  -4   0   7  437.09    9.67
   4   0  -6    5.89    1.03
  -4   0   6    6.23    1.90
   4   0  -5   65.23    3.08
  -4   0   5   66.76    3.09
   4   0  -4    4.64    1.59
  -4   0   4    3.77    1.52
   4   0  -3  274.83    5.64
  -4   0   3  285.36    6.80
   4   0  -2    5.68    1.35
  -4   0   2    5.42    0.71
   4   0  -1    6.36    1.31
  -4   0   1    9.41    1.24
   4   0   0   35.68    1.74
  -4   0   0   37.67    1.73
   4   0   1   65.29    2.11
   4   0   1   62.08    1.45
  -4   0  -1   64.51    2.11
   4   0   2  906.27   19.91
   4   0   2  907.35   20.59
  -4   0  -2  955.68   21.99
   4   0   3 2461.27   67.87
   4   0   3 2578.69   71.88
  -4   0  -3 2527.43   69.83
   4   0   4   10.57    0.82
   4   0   4   10.98    1.14
   4   0   5  113.24    2.20
   4   0   5  119.12    2.41
  -4   0  -5  118.67    2.54
   4   0   6   25.02    0.86
   4   0   6   25.45    1.38
  -4   0  -6   25.42    1.00
   4   0   7  126.63    3.16
   4   0   7  126.50    3.16
  -4   0  -7  123.58    2.52
   4   0   8   46.84    1.25
   4   0   8   48.08    1.91
  -4   0  -8   45.86    1.64
   4   0   9   76.07    2.53
  -4   0  -9   72.43    1.70
   4   0  10  104.48    3.12
  -4   0 -10   96.37    2.12
   4   0  11   56.10    2.41
  -4   0 -11   53.07    1.43
   4   0  12   73.57    1.91
  -4   0 -12   65.07    1.67
   4   0  13   -0.08    1.15
  -4   0 -13    0.41    0.69
   4   0  14  138.26    3.29
   4   1 -11   26.53    1.84
  -4  -1  11   30.64    3.31
   4   1 -10  196.37    5.09
  -4  -1  10  214.00    7.19
   4   1  -9    2.13    1.94
  -4  -1   9    0.86    2.02
   4   1  -8  550.88   14.88
  -4  -1   8  575.85   15.24
   4   1  -7  159.16    5.22
  -4  -1   7  163.73    5.35
   4   1  -6    0.48    0.84
  -4  -1   6    0.35    0.84
   4   1  -5   48.29    2.74
  -4  -1   5   51.82    2.80
   4   1  -4   48.56    1.64
  -4  -1   4   55.45    2.65
   4   1  -3   37.28    1.37
  -4  -1   3   40.93    2.19
   4   1  -2  247.61    4.97
  -4  -1   2  253.77    5.02
   4   1  -1  113.57    2.40
  -4  -1   1  114.85    2.38
   4   1   0  821.01   18.87
   4   1   0  841.15   19.49
  -4  -1   0  819.21   18.76
   4   1   1  465.52    9.96
   4   1   1  467.91   10.20
  -4  -1  -1  479.09   10.24
   4   1   2  175.51    3.98
   4   1   2  169.56    3.74
  -4  -1  -2  176.65    3.23
   4   1   3  798.76   17.75
   4   1   3  782.70   17.29
  -4  -1  -3  815.09   17.20
   4   1   4   71.11    1.94
   4   1   4   69.40    1.87
  -4  -1  -4   71.18    2.03
   4   1   5   47.33    1.03
   4   1   5   48.25    1.50
  -4  -1  -5   48.26    1.59
   4   1   6    6.25    0.83
   4   1   6    5.15    0.46
   4   1   6    6.07    0.86
  -4  -1  -6    5.89    0.84
   4   1   7    9.05    0.99
   4   1   7    8.38    0.99
  -4  -1  -7    9.10    0.91
   4   1   8  665.81   14.89
   4   1   8  680.62   15.19
  -4  -1  -8  652.55   14.60
   4   1   9  673.04   15.37
  -4  -1  -9  637.79   13.62
   4   1  10 2325.99   67.80
  -4  -1 -10 2415.10   70.14
   4   1  11  293.82    6.78
  -4  -1 -11  274.09    5.99
   4   1  12    4.30    0.65
  -4  -1 -12    4.51    0.77
   4   1  13    0.15    1.00
  -4  -1 -13    0.40    0.62
   4   1  14   22.03    1.04
  -4  -1 -14   17.02    1.09
   4   2 -11   45.09    2.29
  -4  -2  11   46.61    4.10
   4   2 -10   93.12    3.11
  -4  -2  10  102.75    4.97
   4   2  -9    1.19    1.00
  -4  -2   9    1.86    2.00
   4   2  -8   32.52    1.69
  -4  -2   8   36.06    2.94
   4   2  -7   74.62    2.29
  -4  -2   7   79.07    3.64
   4   2  -6    4.44    1.75
  -4  -2   6    4.78    1.02
   4   2  -5   16.57    2.11
   4   2  -5   17.42    2.16
  -4  -2   5   18.56    2.21
   4   2  -4  195.45    4.29
  -4  -2   4  201.96    4.35
   4   2  -3   59.74    2.69
  -4  -2   3   60.20    1.75
   4   2  -2  582.76   12.50
  -4  -2   2  604.62   13.98
   4   2  -1 3142.40   94.06
   4   2  -1 3055.62   90.62
  -4  -2   1 3212.34   95.42
   4   2   0 6603.40  246.33
   4   2   0 6712.06  248.11
  -4  -2   0 6749.78  249.93
   4   2   1   -0.25    1.07
   4   2   1    0.27    0.79
  -4  -2  -1   -0.04    0.77
   4   2   2  647.36   13.77
   4   2   2  665.64   13.80
  -4  -2  -2  665.81   14.11
   4   2   3   69.16    2.19
   4   2   3   67.12    1.71
  -4  -2  -3   70.77    1.71
  -4  -2  -3   68.13    2.29
   4   2   4   34.27    1.53
   4   2   4   34.01    1.14
  -4  -2  -4   34.63    1.62
   4   2   5   35.10    1.15
   4   2   5   34.68    1.51
   4   2   6  353.89    6.95
   4   2   6  364.26    7.66
   4   2   6  358.71    7.03
  -4  -2  -6  349.39    7.52
   4   2   7   31.42    1.16
   4   2   7   25.38    1.11
  -4  -2  -7   24.91    1.47
   4   2   8  466.86    9.73
   4   2   8  481.92   10.11
  -4  -2  -8  452.56   10.14
   4   2   9  358.71    7.46
   4   2   9  345.35    7.18
  -4  -2  -9  340.56    7.60
   4   2  10  569.95   12.42
  -4  -2 -10  546.84   12.47
   4   2  11   85.67    1.80
  -4  -2 -11   83.17    2.42
   4   2  12   14.72    1.25
  -4  -2 -12   15.04    1.21
   4   2  13    0.92    0.91
  -4  -2 -13    0.84    0.82
   4   2  14   40.33    1.87
  -4  -2 -14   36.96    1.68
   4   3 -11  420.23   13.56
  -4  -3  11  435.93   11.42
   4   3 -10  196.26    7.23
  -4  -3  10  201.41    7.57
   4   3  -9   54.35    3.57
  -4  -3   9   61.01    3.82
   4   3  -8   31.55    2.75
  -4  -3   8   33.08    2.95
   4   3  -7    8.48    1.95
  -4  -3   7    9.89    2.11
   4   3  -6   45.40    2.76
  -4  -3   6   45.64    2.87
   4   3  -5   56.43    2.97
  -4  -3   5   56.78    1.96
   4   3  -4 1674.29   45.88
   4   3  -4 1528.17   39.72
  -4  -3   4 1604.67   44.19
   4   3  -3  494.29   11.90
   4   3  -3  505.20   12.31
  -4  -3   3  506.95   12.17
   4   3  -2   70.30    1.77
   4   3  -2   70.04    1.96
  -4  -3   2   72.07    2.63
   4   3  -1  107.42    3.02
   4   3  -1  108.71    3.48
  -4  -3   1  110.62    3.01
   4   3   0   33.71    1.55
   4   3   0   33.16    1.21
  -4  -3   0   34.04    1.47
   4   3   1    8.24    0.92
   4   3   1    6.65    0.76
  -4  -3  -1    7.85    0.85
   4   3   2  117.86    2.47
   4   3   2  117.80    2.53
  -4  -3  -2  120.23    2.65
  -4  -3  -2  120.62    2.46
   4   3   3  235.82    4.58
   4   3   3  237.90    4.50
  -4  -3  -3  235.38    4.66
  -4  -3  -3  248.76    4.60
   4   3   4   80.38    1.66
   4   3   4   81.69    2.55
  -4  -3  -4   80.06    1.85
   4   3   5   90.55    1.94
   4   3   5   91.80    1.79
  -4  -3  -5   87.47    2.75
   4   3   6   83.30    2.58
   4   3   6   83.89    1.68
   4   3   6   83.01    1.68
  -4  -3  -6   80.66    1.85
   4   3   7  248.45    4.99
   4   3   7  248.94    4.97
  -4  -3  -7  239.95    5.68
   4   3   8  346.86    7.14
   4   3   8  338.80    6.52
  -4  -3  -8  333.13    7.66
   4   3   9   85.14    1.92
   4   3   9   85.86    1.88
  -4  -3  -9   87.18    2.67
   4   3  10   92.13    2.09
   4   3  10   88.09    1.98
  -4  -3 -10   88.84    1.99
   4   3  11   38.08    1.35
  -4  -3 -11   37.32    1.82
   4   3  12   64.50    1.84
  -4  -3 -12   65.68    2.34
   4   3  13  121.28    2.95
  -4  -3 -13  110.35    2.55
   4   3  14   57.66    1.98
  -4  -3 -14   57.04    1.64
   4   4 -10   17.87    1.44
   4   4 -10   16.87    1.68
  -4  -4  10   21.35    1.78
   4   4  -9    4.44    1.04
   4   4  -9    2.99    1.16
  -4  -4   9    4.22    1.25
   4   4  -8   28.50    1.53
   4   4  -8   27.29    2.64
  -4  -4   8   29.87    2.87
   4   4  -7   65.20    3.24
   4   4  -7   57.69    3.14
  -4  -4   7   62.03    3.42
   4   4  -6   97.02    3.81
   4   4  -6  104.40    3.81
  -4  -4   6  103.09    2.77
   4   4  -5    6.98    0.91
   4   4  -5    9.09    1.76
  -4  -4   5    8.39    1.01
   4   4  -4   14.38    0.99
   4   4  -4   15.90    1.12
  -4  -4   4   14.37    1.90
   4   4  -3   43.45    1.56
   4   4  -3   41.48    1.35
  -4  -4   3   43.36    2.31
   4   4  -2   32.52    1.08
   4   4  -2   32.26    1.32
  -4  -4   2   32.68    1.84
   4   4  -1   60.21    1.39
   4   4  -1   60.86    2.58
  -4  -4   1   64.76    2.09
   4   4   0   90.31    2.30
   4   4   0   88.31    2.14
  -4  -4   0   90.38    1.76
   4   4   1  541.72   12.42
   4   4   1  523.12   10.93
  -4  -4  -1  552.97   11.34
   4   4   2    3.20    0.60
   4   4   2    3.40    1.32
  -4  -4  -2    3.32    0.79
  -4  -4  -2    3.56    0.56
   4   4   3  904.22   19.61
   4   4   3  938.08   22.29
  -4  -4  -3  923.34   19.89
  -4  -4  -3  924.84   20.90
   4   4   4  521.04   10.34
   4   4   4  518.67   11.87
   4   4   5  508.33   11.61
   4   4   5  514.04    9.99
   4   4   5  520.16    9.72
  -4  -4  -5  498.31   10.47
   4   4   6  429.47    8.78
   4   4   6  426.09    7.76
   4   4   6  421.95    7.66
  -4  -4  -6  407.24    9.59
   4   4   7  224.64    4.07
   4   4   7  221.08    3.99
  -4  -4  -7  215.67    5.50
   4   4   8   18.15    0.79
   4   4   8   17.93    0.58
  -4  -4  -8   18.68    1.67
   4   4   9  249.85    4.54
   4   4   9  247.01    4.46
  -4  -4  -9  241.99    5.96
   4   4  10    2.80    0.50
   4   4  10    2.54    0.45
  -4  -4 -10    2.29    0.68
   4   4  11    8.51    0.61
   4   4  11    9.39    0.69
  -4  -4 -11    8.56    1.41
   4   4  12   54.84    1.36
   4   4  12   56.38    1.45
  -4  -4 -12   54.86    2.37
   4   4  13   98.96    2.30
  -4  -4 -13   99.86    2.47
  -4  -4 -14   48.55    1.62
   4   5  -9   81.75    2.44
   4   5  -9   78.48    4.13
  -4  -5   9   86.83    4.44
   4   5  -8   43.99    2.69
   4   5  -8   41.49    1.91
  -4  -5   8   46.02    3.22
   4   5  -7  393.26   10.67
   4   5  -7  404.59   10.60
  -4  -5   7  398.81    9.25
   4   5  -6   -0.01    0.69
   4   5  -6   -0.17    1.22
  -4  -5   6    0.09    1.37
   4   5  -5   33.53    2.31
   4   5  -5   31.32    1.28
  -4  -5   5   33.63    2.34
   4   5  -4   16.71    1.87
   4   5  -4   16.75    1.59
  -4  -5   4   15.20    1.79
   4   5  -3    5.59    1.19
   4   5  -3    4.65    0.86
  -4  -5   3    5.53    1.35
   4   5  -2   61.11    2.08
   4   5  -2   64.43    2.74
  -4  -5   2   65.78    2.36
   4   5  -1   94.63    2.47
   4   5  -1   98.66    3.39
  -4  -5   1  101.54    2.70
   4   5   0   60.66    1.26
   4   5   0   61.79    1.77
  -4  -5   0   63.28    1.82
   4   5   1   13.63    0.82
   4   5   1   13.60    1.74
  -4  -5  -1   14.47    1.19
  -4  -5  -1   14.48    0.87
   4   5   2  162.32    3.47
   4   5   2  162.99    3.31
  -4  -5  -2  157.70    4.69
  -4  -5  -2  161.45    2.95
   4   5   3  444.86    8.22
   4   5   3  429.14    8.91
  -4  -5  -3  415.61   10.11
  -4  -5  -3  446.82    8.48
   4   5   4   62.12    1.09
   4   5   4   58.87    2.65
  -4  -5  -4   57.89    1.76
   4   5   5   19.85    1.96
  -4  -5  -5   20.73    1.96
  -4  -5  -6  212.21    5.60
  -4  -5  -7   23.12    1.98
  -4  -5  -8   52.73    2.53
   4   5   9    1.97    0.21
   4   5   9    2.35    0.19
  -4  -5  -9    2.24    1.39
   4   5  10  110.31    1.84
   4   5  10  106.45    1.90
  -4  -5 -10  109.11    3.62
   4   5  11  145.47    2.49
   4   5  11  144.98    2.78
  -4  -5 -11  146.44    4.37
  -4  -5 -12   34.35    2.24
  -4  -5 -13   52.58    2.66
   4   6  -8    5.32    2.09
   4   6  -8    9.13    1.76
  -4  -6   8    9.49    1.28
   4   6  -7   32.84    2.29
   4   6  -7   29.56    2.37
  -4  -6   7   32.65    2.70
   4   6  -6   13.58    1.07
   4   6  -6   15.14    1.79
  -4  -6   6   15.40    2.04
   4   6  -5   25.73    2.11
   4   6  -5   26.09    1.90
  -4  -6   5   27.09    1.28
   4   6  -4   10.21    1.73
   4   6  -4   11.05    0.82
  -4  -6   4   11.39    1.59
   4   6  -3   55.14    2.07
   4   6  -3   53.98    2.61
  -4  -6   3   56.07    2.27
   4   6  -2   86.37    3.25
   4   6  -2   84.23    2.43
  -4  -6   2   87.87    2.64
   4   6  -1   44.95    2.51
   4   6  -1   45.98    1.57
  -4  -6   1   47.53    1.74
   4   6   0  294.98    7.41
   4   6   0  294.64    5.92
  -4  -6   0  306.00    6.22
   4   6   1   37.16    1.47
   4   6   1   37.12    1.07
  -4  -6  -1   37.34    2.68
  -4  -6  -1   38.16    1.16
   4   6   2  160.82    4.64
   4   6   2  161.14    2.84
  -4  -6  -2  167.34    2.95
  -4  -6  -2  156.05    3.62
   4   6   3   35.83    0.74
   4   6   3   38.57    1.46
  -4  -6  -3   35.94    2.50
  -4  -6  -3   39.16    0.82
   4   6   4  120.55    3.84
  -4  -6  -4  120.01    2.92
   4   6   5  110.84    3.77
  -4  -6  -5  104.69    2.65
  -4  -6  -6   15.79    2.00
  -4  -6  -7   78.80    3.27
  -4  -6  -8    0.53    1.41
  -4  -6  -9    0.73    0.81
  -4  -6 -10  155.38    5.03
  -4  -6 -11   51.75    1.88
  -4  -6 -12   87.75    3.63
  -4  -6 -13   18.77    2.17
   4   7  -7    0.32    0.77
   4   7  -7    0.75    0.73
  -4  -7   7    0.39    1.61
   4   7  -6   25.30    2.04
   4   7  -6   26.57    2.14
  -4  -7   6   26.25    2.33
   4   7  -5    2.77    0.81
   4   7  -5    0.59    1.26
  -4  -7   5    2.34    1.43
   4   7  -4   56.32    2.34
   4   7  -4   57.86    2.79
  -4  -7   4   61.63    2.55
   4   7  -3  298.44    6.91
   4   7  -3  297.88    7.73
  -4  -7   3  296.78    7.15
   4   7  -2   68.24    2.95
   4   7  -2   63.64    2.06
  -4  -7   2   68.08    1.61
   4   7  -1    0.03    0.60
   4   7  -1    0.20    1.20
  -4  -7   1   -0.19    0.68
   4   7   0  220.91    4.42
   4   7   0  231.37    6.20
  -4  -7   0  236.67    4.78
   4   7   1   45.23    2.59
   4   7   1   42.40    1.05
  -4  -7  -1   45.32    1.19
  -4  -7  -1   44.63    2.80
   4   7   2    1.38    0.79
  -4  -7  -2    1.06    0.84
  -4  -7  -2    0.71    0.33
   4   7   3   19.55    2.09
  -4  -7  -3   20.28    2.27
   4   7   4  187.71    4.18
  -4  -7  -4  176.07    5.47
  -4  -7  -5   87.48    2.52
  -4  -7  -6   44.95    1.75
  -4  -7  -7   30.62    1.55
  -4  -7  -8   86.23    2.53
  -4  -7  -9   11.61    2.15
  -4  -7 -10    0.55    0.90
  -4  -7 -11   14.97    2.32
  -4  -7 -12    2.75    1.87
   4   8  -6  169.75    5.13
  -4  -8   6  178.96    5.64
   4   8  -5    5.00    0.89
   4   8  -5    4.19    1.39
  -4  -8   5    3.63    1.56
   4   8  -4   87.39    3.42
   4   8  -4   87.50    2.86
  -4  -8   4   91.58    3.11
   4   8  -3    0.56    1.29
   4   8  -3    0.18    0.85
  -4  -8   3    0.35    0.97
   4   8  -2    2.41    1.57
   4   8  -2    2.60    0.86
  -4  -8   2    5.25    1.01
   4   8  -1   44.55    1.44
   4   8  -1   47.71    1.70
  -4  -8   1   48.69    1.63
   4   8   0   27.51    0.99
   4   8   0   32.30    1.42
  -4  -8   0   32.37    1.15
   4   8   1    2.20    0.40
   4   8   1    2.02    1.59
  -4  -8  -1    3.28    1.85
  -4  -8  -1    2.14    0.68
   4   8   2  124.62    4.31
  -4  -8  -2  122.89    3.23
  -4  -8  -2  126.96    2.16
   4   8   3   88.86    3.83
  -4  -8  -3   91.63    4.04
   4   8   4  150.36    3.73
  -4  -8  -5  136.29    5.00
  -4  -8  -6  104.05    4.51
  -4  -8  -7  177.86    6.00
  -4  -8  -8   30.61    2.84
  -4  -8  -9   37.31    1.81
  -4  -8 -10   27.27    2.84
  -4  -8 -11    1.37    1.08
   4   9  -4  162.85    3.55
   4   9  -4  173.06    5.33
  -4  -9   4  178.58    4.94
   4   9  -3   21.48    1.41
   4   9  -3   26.67    2.23
  -4  -9   3   24.97    1.61
   4   9  -2    7.19    0.53
   4   9  -2    7.11    1.01
  -4  -9   2    8.31    1.07
   4   9  -1   29.45    1.11
   4   9  -1   33.34    1.47
  -4  -9   1   32.96    1.35
   4   9   0    1.07    0.45
   4   9   0    1.73    1.50
  -4  -9   0    1.02    0.57
   4   9   1    0.20    1.49
  -4  -9  -1    0.38    0.95
  -4  -9  -1    0.58    0.56
   4   9   2  273.64    7.91
  -4  -9  -2  272.39    8.26
   4   9   3  744.70   17.91
  -4  -9  -3  730.18   17.91
  -4  -9  -4 1859.73   52.26
  -4  -9  -5  154.74    4.38
  -4  -9  -6   51.95    2.18
  -4  -9  -7   29.58    1.75
  -4  -9  -8    1.57    2.03
  -4  -9  -9   28.83    3.13
  -4  -9 -10   60.51    2.47
   4  10  -2   -0.10    0.59
   4  10  -2    0.18    1.29
  -4 -10   2    0.00    0.72
   4  10  -1   12.47    1.97
   4  10   0    0.19    1.48
   4  10   1  270.84    6.35
  -4 -10  -1  264.58    6.54
   4  10   2   55.59    2.21
  -4 -10  -2   54.11    2.26
  -4 -10  -3   14.62    2.61
  -4 -10  -4    2.13    2.08
  -4 -10  -5   11.61    2.54
  -4 -10  -6    1.94    2.10
  -4 -10  -7   54.62    3.82
  -4 -10  -8    0.19    1.09
   5  -9  -3    2.83    1.59
   5  -9  -2   34.79    1.56
   5  -9  -1    9.56    1.89
   5  -9   0    0.09    0.78
   5  -9   1  303.84    6.94
   5  -9   1  287.17    8.05
   5  -9   2    5.07    2.30
   5  -9   2    6.38    1.22
   5  -9   3  432.72   12.05
   5  -9   3  408.90   11.55
   5  -9   4  158.60    5.96
   5  -9   4  146.19    5.54
   5  -8  -6    7.40    1.06
  -5   8   6    6.83    1.86
   5  -8  -5  138.51    3.43
  -5   8   5  153.70    4.88
   5  -8  -4    0.04    1.51
  -5   8   4   -2.55    1.52
   5  -8  -3    1.03    1.44
   5  -8  -2    2.60    0.91
   5  -8  -1   38.85    2.48
   5  -8   0  109.37    3.92
   5  -8   1    3.54    0.66
   5  -8   1    4.85    0.97
   5  -8   2    6.64    1.14
   5  -8   2    6.95    1.90
   5  -8   3    1.20    0.93
   5  -8   3    0.26    1.63
   5  -8   4    5.42    2.07
   5  -8   4    5.34    1.12
   5  -8   5    4.06    1.21
   5  -8   5    5.37    1.17
   5  -8   6   82.78    2.73
   5  -8   6   89.51    2.92
   5  -7  -7    0.63    0.85
  -5   7   7    0.60    1.47
   5  -7  -6    9.58    1.10
  -5   7   6    9.07    1.93
   5  -7  -5   32.22    2.51
  -5   7   5   36.94    2.53
   5  -7  -4   -0.27    1.44
  -5   7   4    1.29    1.41
   5  -7  -3   23.01    2.22
  -5   7   3   23.00    2.21
   5  -7  -2   -0.18    0.75
  -5   7   2    0.21    1.31
   5  -7  -1    1.45    1.52
   5  -7   0    1.19    1.45
   5  -7   0    0.11    1.48
   5  -7   1  109.73    2.76
   5  -7   2    6.65    1.87
   5  -7   3    6.27    1.09
   5  -7   3    5.92    1.02
   5  -7   4    5.65    1.90
   5  -7   4    4.45    1.84
   5  -7   5    5.18    2.08
   5  -7   5    4.95    1.98
   5  -7   6   89.74    4.24
   5  -7   6  102.23    3.03
   5  -7   7  355.57   10.28
   5  -7   7  324.90    7.70
   5  -7   8   60.43    2.43
   5  -7   8   62.28    2.50
   5  -6  -8    0.98    0.88
  -5   6   8   -0.20    1.52
   5  -6  -7   15.85    2.26
  -5   6   7   15.40    2.11
   5  -6  -6    6.65    1.92
  -5   6   6    7.22    1.87
   5  -6  -5   39.99    2.80
  -5   6   5   42.70    2.68
   5  -6  -4  200.19    4.72
  -5   6   4  210.56    6.39
   5  -6  -3  646.09   14.76
  -5   6   3  673.85   17.12
   5  -6  -2   -0.27    1.48
  -5   6   2    0.25    0.78
   5  -6  -1    2.59    1.63
  -5   6   1    3.17    1.63
   5  -6   0   78.05    3.26
   5  -6   1    0.64    0.79
   5  -6   2    1.32    1.53
   5  -6   3   82.34    2.28
   5  -6   4  115.79    3.03
   5  -6   4  110.22    4.03
   5  -6   5    0.01    1.54
   5  -6   5    0.38    1.48
   5  -6   6  161.23    5.34
   5  -6   6  176.12    5.68
   5  -6   7    0.95    1.95
   5  -6   7    2.20    1.90
   5  -6   8   98.88    4.43
   5  -6   8  105.35    3.09
   5  -6   9    4.95    1.23
   5  -6   9    6.25    2.30
   5  -6  10   31.26    3.26
   5  -6  10   33.88    2.00
   5  -5  -9    7.67    1.21
  -5   5   9    7.89    2.08
   5  -5  -8   28.19    2.70
  -5   5   8   28.31    2.68
   5  -5  -7   51.48    3.21
  -5   5   7   57.33    3.23
   5  -5  -6   79.77    2.47
  -5   5   6   86.10    3.66
   5  -5  -5  155.18    5.10
  -5   5   5  153.83    4.94
   5  -5  -4   38.97    2.78
  -5   5   4   40.38    2.73
   5  -5  -3   74.97    3.31
  -5   5   3   78.44    3.27
   5  -5  -2    0.41    1.33
  -5   5   2    0.04    0.72
   5  -5  -1   26.92    2.26
  -5   5   1   27.19    2.28
   5  -5   0    7.21    0.99
  -5   5   0    6.57    0.99
   5  -5   1  231.67    5.17
   5  -5   2 1129.72   29.54
   5  -5   3   75.18    2.48
   5  -5   4  778.61   16.30
   5  -5   4  932.06   23.04
   5  -5   5  185.00    4.22
   5  -5   5  197.64    5.88
   5  -5   6    8.25    1.09
   5  -5   6    7.21    2.00
   5  -5   7    0.69    0.91
   5  -5   7    0.93    0.93
   5  -5   8   70.35    3.56
   5  -5   8   77.41    3.78
   5  -5   9   21.25    2.62
   5  -5   9   25.76    1.59
   5  -5  10   32.80    3.04
   5  -5  10   30.00    1.74
   5  -5  11   20.18    2.89
   5  -5  11   18.90    1.71
   5  -4 -10    4.20    2.29
  -5   4  10    6.81    1.27
   5  -4  -9   70.06    4.03
  -5   4   9   75.59    4.00
   5  -4  -8  296.99    7.32
  -5   4   8  310.36    7.35
   5  -4  -7  168.67    6.53
  -5   4   7  175.39    6.44
   5  -4  -6  932.03   23.32
  -5   4   6  980.05   26.24
   5  -4  -5    0.43    0.89
  -5   4   5    0.39    1.60
   5  -4  -4  250.50    7.00
  -5   4   4  257.73    6.89
   5  -4  -3   56.51    2.99
  -5   4   3   56.39    2.94
   5  -4  -2   20.91    2.23
  -5   4   2   22.39    2.14
   5  -4  -1   28.30    2.48
  -5   4   1   30.57    1.44
   5  -4   0  880.34   22.26
  -5   4   0  920.83   22.94
   5  -4   1   79.51    3.63
  -5   4  -1   80.04    3.66
   5  -4   2  266.45    7.19
   5  -4   3  990.42   23.60
   5  -4   3 1019.84   22.66
   5  -4   4 1357.79   31.90
   5  -4   4 1338.28   35.62
   5  -4   5  139.56    3.33
   5  -4   5  150.95    3.52
   5  -4   6   75.62    2.19
   5  -4   6   84.93    3.47
   5  -4   7   36.52    1.58
   5  -4   7   41.91    2.75
   5  -4   8   71.44    2.18
   5  -4   8   75.54    2.32
   5  -4   9    3.04    1.81
   5  -4   9    3.60    1.83
   5  -4  10   13.48    2.28
   5  -4  10   15.41    1.33
   5  -4  11    1.43    1.83
   5  -4  11    1.26    1.84
   5  -4  12    1.25    1.08
   5  -4  12    1.35    1.12
   5  -3 -10  633.22   16.50
  -5   3  10  680.63   19.46
   5  -3  -9   49.70    3.82
  -5   3   9   54.83    2.40
   5  -3  -8   33.72    1.89
  -5   3   8   32.57    3.14
   5  -3  -7  232.70    7.44
  -5   3   7  247.14    5.84
   5  -3  -6   54.46    3.30
  -5   3   6   55.86    3.24
   5  -3  -5    0.31    0.83
  -5   3   5    0.02    1.46
   5  -3  -4   67.02    2.13
  -5   3   4   65.98    3.20
   5  -3  -3  215.67    6.25
  -5   3   3  222.50    4.84
   5  -3  -2   19.82    2.21
  -5   3   2   17.41    2.05
   5  -3  -1   -0.06    1.40
  -5   3   1    0.29    0.70
   5  -3   0   49.61    2.70
  -5   3   0   53.26    1.70
   5  -3   1   94.39    3.49
  -5   3  -1   95.84    3.47
   5  -3   2  309.56    7.71
  -5   3  -2  323.61    7.94
   5  -3   3  378.46    9.30
   5  -3   3  384.37    7.65
   5  -3   4   30.55    0.85
   5  -3   4   30.69    1.38
   5  -3   5  140.67    4.26
   5  -3   5  146.32    2.59
   5  -3   6    7.79    0.95
   5  -3   6    6.74    0.94
   5  -3   7   58.72    1.87
   5  -3   7   54.97    1.77
   5  -3   8    4.96    0.94
   5  -3   8    5.91    1.77
   5  -3   9   93.65    2.55
   5  -3   9   97.86    3.84
   5  -3  10   15.67    2.17
   5  -3  10   17.45    1.31
   5  -3  11   66.66    2.19
   5  -3  11   75.77    3.52
   5  -3  12   95.04    4.11
   5  -3  12   94.76    2.81
   5  -2 -10   27.15    1.79
  -5   2  10   29.07    1.84
   5  -2  -9   10.38    2.38
  -5   2   9    7.25    2.40
   5  -2  -8  113.71    3.28
  -5   2   8  125.04    4.77
   5  -2  -7   15.78    2.43
  -5   2   7   15.68    2.33
   5  -2  -6    7.91    1.18
  -5   2   6   10.02    1.15
   5  -2  -5  166.79    4.04
  -5   2   5  172.34    3.98
   5  -2  -4    3.33    1.85
  -5   2   4    3.63    0.94
   5  -2  -3  266.87    7.36
  -5   2   3  273.44    5.86
   5  -2  -2  130.18    4.40
  -5   2   2  132.88    4.22
   5  -2  -1  162.23    4.78
  -5   2   1  164.82    4.63
   5  -2   0  234.27    6.11
  -5   2   0  233.80    4.84
   5  -2   1   76.84    3.02
  -5   2  -1   80.59    2.07
   5  -2   2   -0.15    0.38
   5  -2   2    0.87    1.10
  -5   2  -2    0.28    1.10
   5  -2   3  510.12   11.87
   5  -2   3  517.30   10.72
   5  -2   4   32.45    1.32
   5  -2   4   29.87    2.04
   5  -2   5   18.83    0.91
   5  -2   5   19.64    1.80
   5  -2   6   19.26    1.86
   5  -2   6   19.54    0.60
   5  -2   6   21.84    1.92
   5  -2   7  356.38    7.45
   5  -2   7  374.12    8.94
   5  -2   8  189.44    4.12
   5  -2   8  203.72    5.56
   5  -2   9  239.68    5.20
   5  -2   9  251.82    5.44
   5  -2  10   18.04    1.99
   5  -2  10   16.86    1.15
   5  -2  11    5.58    0.95
   5  -2  11    6.46    1.71
   5  -2  12  111.88    4.08
   5  -2  12  116.92    3.03
   5  -2  13    0.38    1.53
   5  -2  13    1.01    1.57
   5  -1 -10    1.07    1.10
  -5   1  10    2.43    2.11
   5  -1  -9    9.84    2.37
   5  -1  -9   10.48    2.45
  -5   1   9   11.37    1.40
   5  -1  -8   33.69    1.76
  -5   1   8   35.17    2.99
   5  -1  -7   14.76    2.37
  -5   1   7   14.41    2.31
   5  -1  -6    1.59    0.94
  -5   1   6    1.18    1.69
   5  -1  -5   82.76    3.70
  -5   1   5   84.42    2.38
   5  -1  -4  141.81    3.53
  -5   1   4  144.58    3.47
   5  -1  -3  804.42   18.71
  -5   1   3  843.20   20.99
   5  -1  -2    3.85    0.94
  -5   1   2    4.06    0.87
   5  -1  -1    1.31    0.73
  -5   1   1    0.41    1.31
   5  -1   0   48.48    1.53
  -5   1   0   48.88    2.30
   5  -1   1   75.42    2.82
  -5   1  -1   77.89    2.76
   5  -1   2  375.62    8.68
   5  -1   2  385.95    8.19
  -5   1  -2  392.37    7.90
   5  -1   3   32.59    1.30
   5  -1   3   30.29    1.90
  -5   1  -3   32.57    1.90
   5  -1   4   27.93    1.11
   5  -1   4   28.02    1.79
   5  -1   5   15.98    1.53
   5  -1   5   16.31    1.12
   5  -1   6    0.88    0.47
   5  -1   6    1.10    0.63
   5  -1   6    0.96    0.61
   5  -1   7  216.35    5.38
   5  -1   7  223.17    4.55
   5  -1   8   26.40    1.84
   5  -1   8   27.85    1.95
   5  -1   9  434.62   10.26
   5  -1   9  430.35   10.19
   5  -1  10   60.62    2.54
   5  -1  10   59.75    1.72
   5  -1  11   63.97    1.78
   5  -1  11   66.00    2.71
  -5   1 -11   55.57    1.14
   5  -1  12    1.96    1.34
   5  -1  12    1.44    1.43
   5  -1  13    9.75    1.77
   5  -1  13   11.35    1.07
   5   0 -10    6.36    1.31
  -5   0  10    4.06    2.44
   5   0  -9   50.27    3.51
  -5   0   9   57.18    3.62
   5   0  -8   19.34    2.67
  -5   0   8   19.62    1.52
   5   0  -7    2.82    1.05
  -5   0   7    2.93    1.89
   5   0  -6    0.77    1.53
  -5   0   6    0.15    0.85
   5   0  -5   57.29    1.98
  -5   0   5   58.33    3.10
   5   0  -4  261.85    7.24
  -5   0   4  275.43    7.30
   5   0  -3   28.85    2.43
  -5   0   3   27.02    2.30
   5   0  -2  124.96    2.93
  -5   0   2  129.92    2.94
   5   0  -1   40.19    1.46
  -5   0   1   41.98    2.19
   5   0   0   20.69    1.81
  -5   0   0   22.38    1.73
   5   0   1  414.88    9.50
   5   0   1  409.90    8.26
  -5   0  -1  433.91    8.69
   5   0   2    0.52    1.05
   5   0   2    0.89    0.91
  -5   0  -2    0.49    1.04
   5   0   3   48.89    1.74
   5   0   3   46.30    1.31
  -5   0  -3   50.24    2.04
   5   0   4  654.43   14.14
   5   0   4  622.68   14.14
   5   0   5  380.18    7.73
   5   0   5  371.93    8.29
   5   0   6   29.61    1.03
   5   0   6   30.65    0.76
   5   0   7   12.43    1.32
   5   0   7   10.72    0.75
   5   0   8   66.85    1.62
   5   0   8   66.22    2.33
  -5   0  -8   65.18    1.64
   5   0   9   35.13    1.78
   5   0   9   34.04    1.84
  -5   0  -9   34.67    1.11
   5   0  10   45.68    1.34
   5   0  10   45.44    2.08
  -5   0 -10   44.11    1.26
   5   0  11   12.96    1.41
   5   0  11   12.45    1.49
  -5   0 -11   11.46    0.70
   5   0  12   21.26    1.65
   5   0  12   21.10    1.05
  -5   0 -12   16.50    0.81
   5   0  13    1.75    1.31
   5   0  13    1.54    1.22
   5   1 -10   42.52    2.24
  -5  -1  10   42.90    3.76
   5   1  -9  198.52    5.29
  -5  -1   9  207.29    7.18
   5   1  -8   69.78    3.92
  -5  -1   8   70.59    2.54
   5   1  -7   33.71    2.99
  -5  -1   7   34.07    1.79
   5   1  -6  246.65    5.82
  -5  -1   6  261.59    7.43
   5   1  -5   -0.19    1.33
  -5  -1   5    0.18    1.35
   5   1  -4    0.18    1.45
  -5  -1   4    0.26    0.78
   5   1  -3   43.10    2.62
  -5  -1   3   41.83    1.55
   5   1  -2  138.77    3.18
  -5  -1   2  145.18    4.17
   5   1  -1   28.09    1.19
  -5  -1   1   27.26    1.15
   5   1   0  134.36    2.91
   5   1   0  133.34    2.91
  -5  -1   0  139.11    2.87
   5   1   1  296.96    6.82
   5   1   1  306.33    7.13
  -5  -1  -1  307.71    6.88
   5   1   2  192.11    4.54
   5   1   2  199.18    4.72
  -5  -1  -2  203.56    4.58
   5   1   3   37.32    1.67
   5   1   3   37.42    1.72
  -5  -1  -3   37.78    1.64
   5   1   4    1.98    0.50
   5   1   4    1.85    0.91
   5   1   5   11.95    1.06
   5   1   5   10.05    1.12
   5   1   6   39.22    1.60
   5   1   6   40.28    1.02
  -5  -1  -6   43.62    1.71
   5   1   7   50.82    1.17
   5   1   7   46.31    1.73
   5   1   7   46.54    1.77
  -5  -1  -7   50.00    1.71
   5   1   8    6.74    0.61
   5   1   8    5.82    1.06
  -5  -1  -8    6.30    0.93
   5   1   9  166.28    4.06
   5   1   9  169.43    3.35
  -5  -1  -9  161.12    3.60
   5   1  10    3.56    1.10
   5   1  10    5.79    1.17
  -5  -1 -10    2.92    0.83
   5   1  11  107.12    2.96
   5   1  11  109.62    3.09
  -5  -1 -11  101.65    2.48
   5   1  12    1.37    0.97
   5   1  12    1.78    0.57
  -5  -1 -12    1.15    0.65
   5   1  13    2.67    1.11
   5   1  13    1.99    1.04
  -5  -1 -13    2.10    0.69
   5   1  14   50.17    2.14
   5   1  14   52.68    2.29
   5   2 -10   62.50    4.17
  -5  -2  10   64.60    4.42
   5   2  -9    5.10    2.30
  -5  -2   9    4.44    2.37
   5   2  -8    4.04    2.07
  -5  -2   8    3.67    1.19
   5   2  -7   45.95    1.92
  -5  -2   7   47.56    1.99
   5   2  -6    0.02    0.78
  -5  -2   6    0.39    1.48
   5   2  -5    0.09    1.51
  -5  -2   5    0.75    0.83
   5   2  -4  130.88    4.45
  -5  -2   4  135.64    4.50
   5   2  -3    6.49    0.97
   5   2  -3   -0.53    1.18
  -5  -2   3    8.07    1.73
   5   2  -2   23.54    2.14
   5   2  -2   23.77    2.58
  -5  -2   2   23.43    1.20
   5   2  -1   78.91    2.93
   5   2  -1   79.87    3.25
  -5  -2   1   80.05    2.88
   5   2   0   59.41    2.37
   5   2   0   60.26    1.76
  -5  -2   0   60.50    2.25
   5   2   1   14.01    1.39
  -5  -2  -1   14.00    0.76
   5   2   2   33.42    1.58
   5   2   2   34.62    1.89
  -5  -2  -2   34.84    0.99
   5   2   3    2.32    1.11
   5   2   3    2.11    0.47
  -5  -2  -3    2.50    0.83
   5   2   4   44.98    1.28
   5   2   4   46.94    1.57
  -5  -2  -4   48.48    1.56
   5   2   5   36.77    1.72
   5   2   5   36.27    0.92
  -5  -2  -5   35.89    1.88
   5   2   6  340.53    7.04
   5   2   6  340.30    6.66
  -5  -2  -6  340.23    6.80
   5   2   7  592.91   13.43
   5   2   7  577.44   12.49
   5   2   7  556.42   12.15
  -5  -2  -7  561.52   13.11
   5   2   8 3013.52   89.97
   5   2   8 2869.95   86.20
  -5  -2  -8 3099.77   95.24
   5   2   9  283.84    6.18
   5   2   9  286.64    6.20
  -5  -2  -9  278.85    6.55
   5   2  10  138.71    3.27
   5   2  10  139.46    3.31
  -5  -2 -10  133.62    3.44
   5   2  11   82.99    2.24
   5   2  11   86.27    2.36
  -5  -2 -11   80.96    1.80
   5   2  12   25.62    1.39
   5   2  12   26.62    0.86
  -5  -2 -12   24.41    1.37
   5   2  13    1.62    0.89
   5   2  13    2.65    0.54
  -5  -2 -13    1.69    0.86
   5   2  14   50.30    1.87
   5   2  14   49.33    1.98
  -5  -2 -14   46.04    1.28
   5   3  -9    1.95    2.05
  -5  -3   9    1.41    1.19
   5   3  -8    0.52    1.76
  -5  -3   8    0.73    1.02
   5   3  -7    0.81    1.70
  -5  -3   7    0.75    0.96
   5   3  -6   18.46    2.32
  -5  -3   6   18.92    2.41
   5   3  -5   33.80    2.55
   5   3  -5   34.88    1.78
  -5  -3   5   34.25    1.57
   5   3  -4  496.97   13.17
   5   3  -4  538.24   14.25
  -5  -3   4  509.91   13.13
   5   3  -3 1942.70   54.28
   5   3  -3 1902.20   55.55
  -5  -3   3 1987.82   57.74
   5   3  -2 4412.61  155.07
   5   3  -2 4448.50  153.10
  -5  -3   2 4534.79  158.43
   5   3  -1   36.17    2.30
   5   3  -1   34.58    2.90
  -5  -3   1   35.33    2.21
   5   3   0  137.79    3.68
   5   3   0  137.24    4.22
  -5  -3   0  138.49    3.54
   5   3   1    0.05    0.45
   5   3   1   -0.26    1.13
  -5  -3  -1    0.22    0.74
   5   3   2   17.93    1.03
   5   3   2   17.55    0.71
  -5  -3  -2   17.47    1.10
   5   3   3   13.93    0.90
   5   3   3   12.11    1.00
  -5  -3  -3   14.27    0.95
   5   3   4  173.29    3.55
   5   3   4  167.17    3.48
  -5  -3  -4  174.09    3.48
  -5  -3  -4  175.70    4.83
   5   3   5  217.52    4.31
   5   3   5  216.87    5.27
  -5  -3  -5  211.75    4.42
   5   3   6  215.52    5.29
   5   3   6  223.65    4.35
   5   3   6  222.55    4.83
  -5  -3  -6  221.21    5.60
   5   3   7  503.39   10.49
   5   3   7  505.80   10.30
   5   3   7  492.26   10.06
   5   3   8  220.36    4.33
   5   3   8  217.57    4.28
  -5  -3  -8  213.06    5.30
   5   3   9  292.24    5.78
   5   3   9  287.10    5.69
  -5  -3  -9  285.47    6.76
   5   3  10    6.53    0.72
   5   3  10    5.78    0.76
  -5  -3 -10    6.68    1.22
   5   3  11   79.93    2.00
   5   3  11   80.88    1.97
  -5  -3 -11   82.22    2.65
   5   3  12    5.08    0.73
   5   3  12    4.80    0.80
  -5  -3 -12    3.01    1.12
   5   3  13  110.59    2.61
   5   3  13  111.08    2.68
  -5  -3 -13  105.60    3.18
   5   4  -9    3.91    2.25
   5   4  -9    6.76    2.32
  -5  -4   9    5.98    2.51
   5   4  -8    0.81    1.82
   5   4  -8    0.78    1.79
  -5  -4   8    0.52    1.89
   5   4  -7   15.86    1.37
   5   4  -7   12.86    2.24
  -5  -4   7   15.25    2.41
   5   4  -6    1.86    1.68
   5   4  -6    2.41    1.90
  -5  -4   6    2.93    1.83
   5   4  -5  403.23   10.77
   5   4  -5  420.23   11.32
  -5  -4   5  406.53    9.25
   5   4  -4    7.62    1.76
   5   4  -4   10.44    2.12
  -5  -4   4    9.47    1.81
   5   4  -3   21.17    1.92
   5   4  -3   21.58    2.36
  -5  -4   3   22.56    1.95
   5   4  -2   26.29    1.85
   5   4  -2   28.28    1.45
  -5  -4   2   27.53    1.91
   5   4  -1   28.24    1.71
   5   4  -1   27.61    1.39
  -5  -4   1   28.35    1.08
   5   4   0   73.90    2.32
   5   4   0   76.54    3.20
  -5  -4   0   77.01    1.69
   5   4   1   33.31    1.41
   5   4   1   34.95    1.48
  -5  -4  -1   33.70    1.43
   5   4   2   15.79    1.87
   5   4   2   15.04    1.04
  -5  -4  -2   16.27    0.98
   5   4   3   62.82    1.67
   5   4   3   63.23    2.73
  -5  -4  -3   63.75    2.02
  -5  -4  -3   63.09    1.57
   5   4   4   61.49    1.51
   5   4   4   59.54    1.77
  -5  -4  -4   60.34    1.73
  -5  -4  -4   57.27    2.88
   5   4   5   26.56    1.21
   5   4   5   25.50    0.89
  -5  -4  -5   27.43    2.19
   5   4   6  626.99   13.55
   5   4   6  637.34   13.31
   5   4   6  646.33   13.58
  -5  -4  -6  611.97   13.56
   5   4   7   76.12    1.97
   5   4   7   75.36    1.47
   5   4   7   74.83    1.76
  -5  -4  -7   74.49    1.97
   5   4   8    2.54    0.43
   5   4   8    2.03    0.41
  -5  -4  -8    1.84    0.70
   5   4   9    1.19    0.42
   5   4   9    1.27    0.43
  -5  -4  -9    1.95    0.66
   5   4  10   50.25    1.20
   5   4  10   50.89    1.18
  -5  -4 -10   51.19    2.35
   5   4  11    5.02    0.54
   5   4  11    0.15    0.69
  -5  -4 -11    0.52    0.67
   5   4  12   24.18    0.92
   5   4  12   22.49    0.86
  -5  -4 -12   23.35    1.77
  -5  -4 -13   59.09    2.50
   5   5  -8   14.24    1.44
   5   5  -8   17.04    2.46
  -5  -5   8   14.39    2.67
   5   5  -7   43.07    1.91
   5   5  -7   44.53    2.95
  -5  -5   7   45.31    1.97
   5   5  -6   64.49    3.46
   5   5  -6   59.11    3.10
  -5  -5   6   65.11    2.19
   5   5  -5  159.51    4.88
   5   5  -5  166.66    5.45
  -5  -5   5  162.82    5.16
   5   5  -4    2.78    0.73
   5   5  -4    2.64    1.70
  -5  -5   4    2.31    0.80
   5   5  -3   23.76    1.73
   5   5  -3   25.00    1.35
  -5  -5   3   25.90    1.86
   5   5  -2   33.67    1.74
   5   5  -2   34.52    1.49
  -5  -5   2   35.48    1.84
   5   5  -1   97.82    2.67
   5   5  -1   96.51    2.51
  -5  -5   1   99.32    2.10
   5   5   0   38.56    2.51
   5   5   0   37.11    1.47
  -5  -5   0   37.69    1.54
   5   5   1  135.37    2.95
   5   5   1  138.93    4.33
  -5  -5  -1  144.24    3.10
   5   5   2   58.38    1.53
   5   5   2   57.84    1.82
  -5  -5  -2   60.45    1.54
   5   5   3  503.35   10.22
   5   5   3  508.78   12.46
  -5  -5  -3  496.53   12.66
  -5  -5  -3  526.37   10.94
   5   5   4  600.33   12.03
   5   5   4  619.01   14.99
  -5  -5  -4  599.44   11.94
  -5  -5  -4  597.43   13.33
   5   5   5  426.11    8.12
   5   5   5  423.24    8.97
  -5  -5  -5  409.37   10.33
   5   5   6   91.61    3.36
   5   5   6   85.22    1.53
   5   5   6   83.26    1.32
  -5  -5  -6   84.59    3.35
   5   5   7   82.95    1.29
   5   5   7   79.79    1.23
  -5  -5  -7   79.14    3.17
   5   5   8   19.37    0.52
   5   5   8   19.33    0.52
  -5  -5  -8   20.18    1.98
   5   5   9   46.44    0.93
   5   5   9   45.20    0.77
  -5  -5  -9   49.63    1.61
   5   5  10   93.89    1.75
   5   5  10   87.38    1.45
  -5  -5 -10   94.05    3.43
  -5  -5 -11    3.27    1.44
  -5  -5 -12    0.91    1.29
  -5  -5 -13   67.18    2.05
   5   6  -7    0.56    1.55
   5   6  -7    0.29    0.82
  -5  -6   7   -0.09    1.65
   5   6  -6   34.93    1.64
   5   6  -6   33.94    2.40
  -5  -6   6   33.80    2.68
   5   6  -5   12.85    2.13
   5   6  -5   13.32    0.99
  -5  -6   5   13.38    1.11
   5   6  -4    0.65    1.42
   5   6  -4    0.39    1.04
  -5  -6   4   -0.23    1.17
   5   6  -3   14.96    1.19
   5   6  -3   12.29    1.39
  -5  -6   3   14.13    0.91
   5   6  -2   35.02    1.68
   5   6  -2   36.78    1.58
  -5  -6   2   37.05    1.17
   5   6  -1   31.15    1.43
   5   6  -1   31.24    1.48
  -5  -6   1   33.03    1.54
   5   6   0   50.28    1.56
   5   6   0   52.24    1.77
  -5  -6   0   53.78    1.71
   5   6   1    0.52    0.55
   5   6   1    0.59    0.78
  -5  -6  -1    0.84    0.59
   5   6   2   33.58    0.98
   5   6   2   37.12    2.53
  -5  -6  -2   35.86    1.02
   5   6   3    0.75    0.33
   5   6   3    0.30    0.80
  -5  -6  -3    0.28    0.86
  -5  -6  -3    0.88    0.49
   5   6   4  211.82    3.60
   5   6   4  220.65    6.07
  -5  -6  -4  210.38    6.10
   5   6   5    0.08    0.72
  -5  -6  -5    0.37    1.42
   5   6   6    4.19    1.72
  -5  -6  -7    4.48    1.72
  -5  -6  -8  115.80    4.16
  -5  -6  -9  236.60    5.39
  -5  -6 -10   10.50    1.98
  -5  -6 -11   51.85    1.87
  -5  -6 -12   16.83    2.13
   5   7  -6    7.63    1.69
   5   7  -6    8.83    1.13
  -5  -7   6    8.18    1.93
   5   7  -5    2.16    1.67
   5   7  -5    1.39    0.69
  -5  -7   5    1.31    1.43
   5   7  -4    9.03    1.13
   5   7  -4    8.03    1.36
  -5  -7   4    8.59    0.90
   5   7  -3    3.71    1.00
   5   7  -3    2.34    1.11
  -5  -7   3    4.19    1.24
   5   7  -2  254.29    7.21
   5   7  -2  253.19    5.80
  -5  -7   2  253.58    6.01
   5   7  -1  175.68    5.48
   5   7  -1  172.86    3.92
  -5  -7   1  181.01    4.16
   5   7   0   40.87    2.77
   5   7   0   40.39    1.35
  -5  -7   0   42.19    1.48
   5   7   1   22.14    2.29
   5   7   1   19.29    0.82
  -5  -7  -1   20.59    0.91
   5   7   2    2.94    0.41
   5   7   2    3.11    0.96
  -5  -7  -2    3.50    1.07
  -5  -7  -2    3.42    0.45
   5   7   3   29.56    0.60
   5   7   3   34.55    1.57
  -5  -7  -3   31.83    0.68
  -5  -7  -3   33.44    1.62
   5   7   4    0.52    1.50
  -5  -7  -4    0.12    1.61
   5   7   5   19.49    1.38
  -5  -7  -5   21.44    2.45
  -5  -7  -7    3.93    1.93
  -5  -7  -8  174.88    4.26
  -5  -7  -9   94.69    2.81
  -5  -7 -10   11.70    2.25
  -5  -7 -11   86.65    2.71
   5   8  -4  173.69    4.32
   5   8  -4  165.59    4.54
  -5  -8   4  172.92    3.98
   5   8  -3    5.03    1.99
   5   8  -3    7.06    0.66
  -5  -8   3    6.03    1.29
   5   8  -2  213.66    6.45
   5   8  -2  207.56    4.79
  -5  -8   2  220.11    5.17
   5   8  -1   36.69    2.74
   5   8  -1   32.60    1.31
  -5  -8   1   34.93    1.47
   5   8   0    7.48    0.71
   5   8   0   10.89    1.15
  -5  -8   0    8.81    0.82
   5   8   1   24.66    0.82
   5   8   1   26.85    1.52
  -5  -8  -1   26.42    1.23
   5   8   2    2.68    0.46
   5   8   2    3.62    1.04
  -5  -8  -2    3.71    1.20
  -5  -8  -2    3.57    0.52
   5   8   3   82.99    3.76
  -5  -8  -3   82.51    2.64
   5   8   4    9.65    2.21
  -5  -8  -4    9.08    1.31
   5   8   5   10.40    2.32
  -5  -8  -5    8.70    2.41
  -5  -8  -6   35.99    3.10
  -5  -8  -7   53.91    2.20
  -5  -8  -8   80.99    2.68
  -5  -8  -9   49.33    3.39
  -5  -8 -10   21.12    1.58
   5   9  -2    8.16    0.98
   5   9  -2   10.58    1.21
  -5  -9   2   10.16    1.13
   5   9  -1   13.07    0.91
   5   9  -1   15.27    1.33
  -5  -9   1   15.74    1.06
   5   9   0   24.40    0.92
   5   9   0   30.80    2.67
   5   9   1   30.13    2.82
   5   9   2  138.28    4.72
  -5  -9  -2   70.58    2.83
   5   9   3    8.92    2.46
  -5  -9  -3   10.76    2.61
   5   9   4    1.05    2.05
  -5  -9  -4    0.27    1.20
  -5  -9  -5  791.38   20.01
  -5  -9  -6  503.94   12.28
  -5  -9  -7    5.86    2.55
  -5  -9  -8   27.29    3.14
   5  10   1  134.06    3.75
  -5 -10  -2    0.54    1.34
   5  10   3  339.42    8.39
  -5 -10  -3  350.56   11.33
  -5 -10  -4   21.43    3.34
  -5 -10  -5   15.69    3.04
   6  -8  -3   73.14    3.68
   6  -8  -2    3.27    1.06
   6  -8  -1  123.04    4.73
   6  -8   0    4.56    2.11
   6  -8   1  337.64    7.85
   6  -8   2  117.53    4.97
   6  -8   3   50.63    3.63
   6  -8   3   47.83    3.42
   6  -8   4   83.72    4.33
   6  -8   4   76.58    2.69
   6  -7  -5    1.26    1.03
  -6   7   5    2.36    1.80
   6  -7  -4   19.81    2.59
  -6   7   4   23.20    2.58
   6  -7  -3   10.74    2.21
  -6   7   3   10.76    2.20
   6  -7  -2   22.71    2.58
  -6   7   2   27.49    2.60
   6  -7  -1   -0.01    1.48
   6  -7   0   24.75    1.50
   6  -7   1   30.31    2.66
   6  -7   2   19.94    2.48
   6  -7   3   60.61    2.19
   6  -7   4   98.87    4.37
   6  -7   4   85.88    2.72
   6  -7   5   73.93    2.64
   6  -7   5   71.34    2.51
   6  -7   6   13.83    1.59
   6  -7   6   12.39    1.47
   6  -6  -6    3.21    1.11
  -6   6   6    2.23    1.07
   6  -6  -5   49.89    3.31
  -6   6   5   49.82    2.02
   6  -6  -4   14.11    2.40
  -6   6   4   15.71    2.41
   6  -6  -3   20.76    1.47
  -6   6   3   20.86    1.45
   6  -6  -2  105.84    4.34
  -6   6   2  111.77    3.04
   6  -6  -1   28.53    1.63
  -6   6   1   30.47    2.66
   6  -6   0    0.10    1.50
   6  -6   1   -0.60    1.61
   6  -6   2    1.07    1.69
   6  -6   3   16.91    1.33
   6  -6   3   14.77    0.72
   6  -6   4    0.45    1.29
   6  -6   4   69.53    2.73
   6  -6   5   56.08    3.34
   6  -6   5   59.51    3.45
   6  -6   6   13.29    2.51
   6  -6   6   11.68    2.36
   6  -6   7   29.30    3.13
   6  -6   7   24.28    2.93
   6  -6   8  125.03    3.63
   6  -6   8  136.69    3.84
   6  -5  -7   -0.94    1.03
  -6   5   7    0.13    1.81
   6  -5  -6   57.50    3.62
  -6   5   6   58.27    3.57
   6  -5  -5  137.13    3.80
  -6   5   5  150.32    3.89
   6  -5  -4    6.22    2.21
  -6   5   4    6.40    1.17
   6  -5  -3   71.40    3.72
  -6   5   3   74.73    2.40
   6  -5  -2   65.48    2.26
  -6   5   2   75.45    3.58
   6  -5  -1   -0.12    1.56
  -6   5   1    0.25    1.49
   6  -5   0    9.53    2.16
  -6   5   0   12.84    1.22
   6  -5   1   41.41    1.74
   6  -5   2  145.48    5.04
   6  -5   3  164.06    3.97
   6  -5   3  161.69    3.19
   6  -5   4    9.94    0.49
   6  -5   4   13.71    1.28
   6  -5   5    0.38    0.86
   6  -5   5   -0.79    1.50
   6  -5   6   54.73    3.23
   6  -5   6   48.70    3.09
   6  -5   7   34.55    1.81
   6  -5   7   35.21    2.86
   6  -5   8   26.89    2.76
   6  -5   8   30.22    2.96
   6  -5   9    6.33    1.27
   6  -5   9    8.35    1.31
   6  -4  -8   37.90    3.69
  -6   4   8   41.01    3.52
   6  -4  -7    8.09    2.47
  -6   4   7    8.62    1.37
   6  -4  -6    3.94    1.22
  -6   4   6    3.98    2.11
   6  -4  -5    3.88    2.13
  -6   4   5    5.60    2.06
   6  -4  -4    9.26    1.26
  -6   4   4    8.99    2.13
   6  -4  -3   28.79    2.74
  -6   4   3   30.26    2.59
   6  -4  -2   11.05    2.15
  -6   4   2    9.41    2.10
   6  -4  -1    5.79    1.10
  -6   4   1    5.10    1.11
   6  -4   0  551.57   12.49
  -6   4   0  587.96   14.99
   6  -4   1  229.18    7.59
  -6   4  -1  225.95    5.66
   6  -4   2 2067.72   57.45
   6  -4   3  193.87    6.44
   6  -4   3  191.01    4.00
   6  -4   4   14.91    0.69
   6  -4   4   15.20    1.32
   6  -4   5  204.79    3.52
   6  -4   5  225.75    6.37
   6  -4   6    0.62    1.66
   6  -4   6    1.44    1.61
   6  -4   7   64.11    3.40
   6  -4   7   60.13    3.23
   6  -4   8   75.05    3.56
   6  -4   8   79.01    2.49
   6  -4   9   34.62    1.71
   6  -4   9   37.41    3.03
   6  -4  10   49.65    3.34
   6  -4  10   50.51    2.10
   6  -3  -8 1069.26   29.52
  -6   3   8 1135.64   30.67
   6  -3  -7   -0.62    2.14
  -6   3   7   -0.21    2.12
   6  -3  -6  255.36    6.33
  -6   3   6  267.27    6.40
   6  -3  -5   -0.50    1.78
  -6   3   5    0.46    0.96
   6  -3  -4   36.96    3.02
  -6   3   4   38.10    1.75
   6  -3  -3    0.42    0.90
  -6   3   3    0.53    0.85
   6  -3  -2    1.73    1.74
  -6   3   2    1.51    0.91
   6  -3  -1   77.72    3.61
  -6   3   1   78.09    3.52
   6  -3   0  131.12    3.39
  -6   3   0  135.53    3.40
   6  -3   1  657.25   15.08
  -6   3  -1  696.14   17.77
   6  -3   2  832.83   21.73
  -6   3  -2  879.73   22.69
   6  -3   3  121.80    2.78
   6  -3   3  120.82    3.05
   6  -3   4   38.59    1.16
   6  -3   4   42.18    2.65
   6  -3   5   54.55    1.21
   6  -3   5   54.43    1.84
   6  -3   6   60.91    1.29
   6  -3   6   68.21    2.09
   6  -3   6   62.13    3.03
   6  -3   7  120.44    4.22
   6  -3   7  113.00    4.05
   6  -3   8   11.11    1.93
   6  -3   8    9.81    2.05
   6  -3   9   -0.24    0.74
   6  -3   9    0.22    0.77
   6  -3  10    4.94    1.88
   6  -3  10    5.62    1.92
   6  -3  11   47.52    3.08
   6  -3  11   49.22    1.98
   6  -2  -9   73.33    4.75
  -6   2   9   79.65    3.01
   6  -2  -8  102.68    3.47
  -6   2   8  112.31    5.21
   6  -2  -7    1.58    2.22
  -6   2   7    2.75    1.19
   6  -2  -6   31.41    1.82
  -6   2   6   34.38    2.96
   6  -2  -5    7.35    2.25
  -6   2   5    8.05    2.13
   6  -2  -4    5.97    1.19
  -6   2   4    8.18    2.04
   6  -2  -3  132.10    3.40
  -6   2   3  134.74    4.69
   6  -2  -2    4.88    1.90
  -6   2   2    4.59    1.80
   6  -2  -1    0.13    1.48
  -6   2   1   -0.25    0.76
   6  -2   0  324.44    7.06
  -6   2   0  344.89    8.73
   6  -2   1  203.35    4.57
  -6   2  -1  218.46    6.05
   6  -2   2    5.28    1.04
   6  -2   2    4.45    1.69
  -6   2  -2    4.27    0.95
   6  -2   3   23.95    2.14
   6  -2   3   25.22    1.22
  -6   2  -3   24.62    1.28
   6  -2   4    7.38    0.93
   6  -2   4    7.63    0.78
   6  -2   5   -0.19    1.23
   6  -2   5    0.16    0.46
   6  -2   6    2.32    1.50
   6  -2   6    3.79    0.69
   6  -2   7  302.40    6.45
   6  -2   7  292.94    6.26
   6  -2   8   58.42    1.88
   6  -2   8   64.17    2.05
   6  -2   9  521.85   11.64
   6  -2   9  554.05   13.88
   6  -2  10   94.59    3.76
   6  -2  10  102.11    3.87
   6  -2  11   61.98    3.10
   6  -2  11   67.60    2.13
   6  -2  12   82.47    3.49
   6  -2  12   81.59    3.61
   6  -1  -9    0.20    1.97
  -6   1   9    0.18    1.08
   6  -1  -8   11.58    1.48
  -6   1   8   11.95    1.47
   6  -1  -7   33.03    3.05
  -6   1   7   33.78    3.06
   6  -1  -6    1.66    1.06
  -6   1   6    0.95    1.02
   6  -1  -5   87.65    4.09
  -6   1   5   89.91    2.68
   6  -1  -4    0.60    0.95
  -6   1   4    0.79    0.89
   6  -1  -3  196.86    6.18
  -6   1   3  205.21    4.69
   6  -1  -2  534.82   14.01
  -6   1   2  553.02   12.45
   6  -1  -1  291.84    6.55
  -6   1   1  321.02    8.31
   6  -1   0    0.86    1.49
  -6   1   0    0.47    1.39
   6  -1   1  338.75    8.63
   6  -1   1  350.30    8.17
  -6   1  -1  341.20    7.21
   6  -1   2   32.83    1.68
   6  -1   2   31.29    2.26
  -6   1  -2   32.12    1.34
   6  -1   3   35.93    1.36
  -6   1  -3   36.95    1.37
   6  -1   4   85.77    2.13
   6  -1   4   89.03    2.25
   6  -1   5   48.69    1.43
   6  -1   5   47.78    2.34
   6  -1   6   59.83    1.69
   6  -1   6   63.09    1.56
   6  -1   7   98.04    2.07
   6  -1   7   94.52    3.27
   6  -1   7   90.44    3.11
   6  -1   8    1.89    1.36
   6  -1   8    1.82    1.30
   6  -1   9   33.32    2.10
   6  -1   9   33.80    2.20
   6  -1  10    9.17    1.56
   6  -1  10    8.28    1.60
   6  -1  11   11.00    0.98
   6  -1  11   10.13    1.73
   6  -1  12   24.27    2.03
   6  -1  12   23.66    1.25
   6   0  -9   14.87    2.78
  -6   0   9   11.65    2.87
   6   0  -8    9.98    1.46
  -6   0   8   10.79    1.44
   6   0  -7    2.01    2.00
  -6   0   7    1.83    2.00
   6   0  -6   11.60    2.40
  -6   0   6   11.87    1.34
   6   0  -5   72.95    2.48
  -6   0   5   77.16    3.71
   6   0  -4    1.14    1.69
  -6   0   4    1.34    1.66
   6   0  -3   24.07    1.42
  -6   0   3   24.47    2.35
   6   0  -2  149.35    4.86
  -6   0   2  156.06    4.75
   6   0  -1    0.85    1.48
  -6   0   1    0.74    0.75
   6   0   0   42.95    1.56
   6   0   0   45.15    1.56
  -6   0   0   42.14    1.48
   6   0   1   19.16    1.76
   6   0   1   20.19    1.15
  -6   0  -1   20.76    1.86
   6   0   2   95.64    2.95
   6   0   2   94.58    2.34
  -6   0  -2  100.88    3.31
   6   0   3  131.39    3.39
   6   0   3  127.68    3.77
  -6   0  -3  133.90    2.92
   6   0   4    2.21    0.95
   6   0   4    2.47    1.23
   6   0   5  136.32    2.57
   6   0   5  131.48    3.61
   6   0   6    0.00    0.67
   6   0   6    0.73    0.57
   6   0   7  317.22    6.46
   6   0   7  323.16    7.57
   6   0   7  307.83    7.24
   6   0   8   55.97    2.33
   6   0   8   54.91    2.26
   6   0   9   18.07    1.56
   6   0   9   18.79    1.61
   6   0  10   10.36    1.41
   6   0  10    9.35    1.43
   6   0  11    1.54    1.14
   6   0  11    1.10    1.18
   6   0  12  193.03    4.21
   6   0  12  195.09    5.27
   6   0  13  217.31    5.82
   6   0  13  220.25    4.92
   6   1  -9    6.27    2.57
  -6  -1   9    6.19    2.68
   6   1  -8   25.38    3.12
  -6  -1   8   30.15    1.94
   6   1  -7   94.01    3.09
  -6  -1   7  101.12    4.68
   6   1  -6   33.18    1.82
  -6  -1   6   38.54    3.05
   6   1  -5   36.67    2.92
  -6  -1   5   40.38    2.85
   6   1  -4   18.70    1.36
  -6  -1   4   20.20    2.28
   6   1  -3   74.07    3.33
  -6  -1   3   76.14    3.28
   6   1  -2    3.18    0.84
   6   1  -2   -0.34    0.91
  -6  -1   2    3.05    1.46
   6   1  -1    9.24    1.75
   6   1  -1    9.88    1.90
  -6  -1   1    8.86    0.92
   6   1   0   35.99    2.34
   6   1   0   35.51    2.26
  -6  -1   0   35.39    2.14
   6   1   1   25.20    1.18
   6   1   1   26.37    2.05
  -6  -1  -1   26.11    1.92
   6   1   2  680.90   14.94
   6   1   2  663.58   14.72
  -6  -1  -2  707.96   16.78
   6   1   3  838.70   20.44
   6   1   3  856.34   19.32
  -6  -1  -3  860.21   19.49
   6   1   4    6.02    1.21
   6   1   4    5.52    1.25
  -6  -1  -4    5.70    1.25
   6   1   5   27.74    1.51
   6   1   5   25.13    1.57
   6   1   6   41.60    1.61
   6   1   6   39.98    1.75
   6   1   7   70.13    2.27
   6   1   7   69.48    1.48
   6   1   7   68.13    1.61
   6   1   8   13.54    0.76
   6   1   8   16.48    1.28
   6   1   9   86.83    1.94
   6   1   9   83.88    2.57
  -6  -1  -9   85.08    1.81
   6   1  10  151.69    3.81
   6   1  10  156.90    3.99
  -6  -1 -10  149.71    3.44
   6   1  11    1.72    0.99
   6   1  11    2.38    1.04
  -6  -1 -11    0.76    0.69
   6   1  12  128.42    3.47
   6   1  12  131.53    2.84
  -6  -1 -12  118.97    2.81
   6   1  13    9.78    0.77
   6   1  13    9.73    1.38
   6   2  -8  240.03    8.29
  -6  -2   8  246.15    6.37
   6   2  -7   40.51    3.24
  -6  -2   7   40.71    3.32
   6   2  -6    1.90    1.90
  -6  -2   6    1.65    1.93
   6   2  -5    0.85    0.94
  -6  -2   5    1.40    1.71
   6   2  -4   19.95    1.32
  -6  -2   4   20.79    1.33
   6   2  -3   30.51    2.80
   6   2  -3   29.04    2.33
  -6  -2   3   28.05    1.37
   6   2  -2   34.29    1.58
   6   2  -2   32.72    1.41
  -6  -2   2   35.71    2.27
   6   2  -1   47.31    2.46
   6   2  -1   48.98    1.80
  -6  -2   1   49.65    2.45
   6   2   0  257.76    5.44
   6   2   0  266.77    7.03
  -6  -2   0  267.56    6.57
   6   2   1  191.27    5.29
   6   2   1  191.29    4.95
  -6  -2  -1  195.85    4.91
   6   2   2   22.53    1.65
   6   2   2   24.47    1.93
  -6  -2  -2   23.99    1.59
   6   2   3  132.29    2.90
   6   2   3  127.38    3.38
  -6  -2  -3  134.91    3.45
   6   2   4    0.50    0.55
   6   2   4   -0.24    0.79
  -6  -2  -4    0.01    0.43
   6   2   5    0.34    0.97
   6   2   5    0.10    0.75
   6   2   6   37.65    1.53
   6   2   6   40.85    1.86
   6   2   7  142.12    2.89
   6   2   7  141.77    3.32
   6   2   7  141.47    2.74
  -6  -2  -7  149.80    3.15
   6   2   8  196.31    4.50
   6   2   8  193.53    4.44
  -6  -2  -8  191.74    4.83
   6   2   9  608.30   13.64
   6   2   9  585.07   13.25
  -6  -2  -9  580.68   13.83
   6   2  10  662.50   14.92
   6   2  10  633.81   14.43
  -6  -2 -10  631.87   15.17
   6   2  11   96.39    2.56
   6   2  11   94.89    2.50
  -6  -2 -11   92.69    2.59
   6   2  12   34.07    1.47
   6   2  12   35.68    1.54
  -6  -2 -12   31.48    1.46
   6   2  13   12.99    0.69
   6   2  13   12.17    0.72
  -6  -2 -13   10.31    0.63
   6   3  -8   18.39    1.78
   6   3  -8   15.13    1.63
  -6  -3   8   17.13    2.86
   6   3  -7   15.75    1.66
   6   3  -7   12.94    1.43
  -6  -3   7   12.34    2.55
   6   3  -6    8.46    2.64
   6   3  -6    7.16    1.20
  -6  -3   6    8.96    1.23
   6   3  -5   27.84    3.06
   6   3  -5   24.98    1.51
  -6  -3   5   28.46    2.64
   6   3  -4   44.67    3.34
   6   3  -4   41.27    1.75
  -6  -3   4   43.14    1.81
   6   3  -3   12.44    1.93
   6   3  -3   10.49    1.35
  -6  -3   3   12.33    1.11
   6   3  -2   19.12    2.02
   6   3  -2   22.15    2.55
  -6  -3   2   18.09    1.18
   6   3  -1  974.35   25.69
   6   3  -1  969.97   23.41
  -6  -3   1  996.17   25.46
   6   3   0  808.89   20.23
   6   3   0  811.90   18.83
  -6  -3   0  823.39   20.16
   6   3   1   15.34    0.86
   6   3   1   14.69    1.18
  -6  -3  -1   15.11    1.43
   6   3   2  208.77    5.62
   6   3   2  203.07    4.77
  -6  -3  -2  207.90    4.76
   6   3   3   49.83    2.47
   6   3   3   50.58    1.79
  -6  -3  -3   50.61    1.76
   6   3   4   45.17    2.28
   6   3   4   42.60    1.55
  -6  -3  -4   44.84    1.54
   6   3   5   94.76    2.38
   6   3   5  100.11    2.38
   6   3   6  808.62   18.35
   6   3   6  827.98   20.16
  -6  -3  -6  830.32   19.18
   6   3   7    3.05    1.32
   6   3   7    3.71    0.75
   6   3   7    3.70    0.77
  -6  -3  -7    4.17    0.78
   6   3   8  276.21    5.68
   6   3   8  270.89    5.59
  -6  -3  -8  266.73    5.68
   6   3   9  376.97    7.75
   6   3   9  374.38    7.74
  -6  -3  -9  372.84    7.92
   6   3  10  157.53    3.34
   6   3  10  159.08    3.36
  -6  -3 -10  155.36    4.18
   6   3  11    7.91    0.83
   6   3  11    7.65    0.80
  -6  -3 -11    6.83    1.20
   6   3  12   31.86    1.29
   6   3  12   31.69    1.24
  -6  -3 -12   32.61    1.70
   6   3  13   25.83    1.18
   6   3  13   25.95    1.25
  -6  -3 -13   24.49    0.99
   6   4  -7    2.27    2.02
   6   4  -7    3.04    2.34
  -6  -4   7    3.74    1.20
   6   4  -6  148.68    4.12
   6   4  -6  152.87    4.33
  -6  -4   6  151.24    5.64
   6   4  -5  368.27    8.86
   6   4  -5  387.55   11.55
  -6  -4   5  370.19   10.63
   6   4  -4  922.55   23.28
   6   4  -4  978.44   24.42
  -6  -4   4  963.07   26.36
   6   4  -3  258.42    5.88
   6   4  -3  272.38    8.22
  -6  -4   3  273.87    7.47
   6   4  -2   18.57    2.45
   6   4  -2   17.34    1.82
  -6  -4   2   17.52    1.83
   6   4  -1    7.33    1.38
   6   4  -1    6.10    1.97
  -6  -4   1    6.35    1.36
   6   4   0    1.36    1.03
   6   4   0    1.34    1.60
  -6  -4   0    1.28    1.00
   6   4   1    5.42    1.80
   6   4   1    4.90    0.60
  -6  -4  -1    5.21    1.03
   6   4   2  113.89    2.81
   6   4   2  112.98    2.86
  -6  -4  -2  115.74    2.23
   6   4   3  143.63    3.24
   6   4   3  143.08    4.44
  -6  -4  -3  150.53    3.25
   6   4   4   65.44    1.76
   6   4   4   67.79    3.00
  -6  -4  -4   68.17    1.75
   6   4   5  215.79    4.31
   6   4   5  215.58    4.67
  -6  -4  -5  221.00    4.92
   6   4   6   18.88    0.86
   6   4   6   18.92    1.11
  -6  -4  -6   18.00    1.17
   6   4   7  185.06    5.12
   6   4   7  178.04    3.44
   6   4   7  178.53    3.44
  -6  -4  -7  177.96    4.00
   6   4   8  103.70    2.09
   6   4   8  107.66    2.16
  -6  -4  -8  105.88    2.59
   6   4   9  142.79    2.76
   6   4   9  145.17    2.81
  -6  -4  -9  141.78    4.19
   6   4  10    4.94    0.57
   6   4  10    5.53    0.80
  -6  -4 -10    5.61    1.37
   6   4  11  105.46    2.16
   6   4  11  105.08    2.16
  -6  -4 -11  108.09    2.55
  -6  -4 -12   19.66    1.69
   6   5  -6   30.69    2.68
   6   5  -6   34.50    3.18
  -6  -5   6   30.60    2.84
   6   5  -5    0.06    0.75
   6   5  -5    0.32    0.98
  -6  -5   5    0.19    0.82
   6   5  -4   31.98    1.45
   6   5  -4   34.67    3.04
  -6  -5   4   35.69    2.44
   6   5  -3    1.21    1.25
   6   5  -3    1.23    1.81
  -6  -5   3    1.28    1.33
   6   5  -2   53.95    2.30
   6   5  -2   53.78    2.02
  -6  -5   2   55.62    2.41
   6   5  -1   39.08    1.82
   6   5  -1   37.08    1.71
  -6  -5   1   38.88    1.89
   6   5   0   -0.38    0.81
   6   5   0    0.54    0.78
   6   5   0   -0.09    0.79
  -6  -5   0    0.26    0.80
   6   5   1  193.04    4.44
   6   5   1  194.03    4.38
  -6  -5  -1  193.33    4.36
   6   5   2   22.10    1.12
   6   5   2   23.67    2.36
  -6  -5  -2   23.91    1.14
   6   5   3  252.88    5.16
   6   5   3  254.59    5.64
  -6  -5  -3  267.72    5.32
   6   5   4  243.69    4.77
   6   5   4  243.77    6.71
  -6  -5  -4  235.44    4.51
   6   5   5  100.63    2.03
   6   5   5   99.97    2.64
  -6  -5  -5  100.96    4.13
   6   5   6  166.56    4.96
   6   5   6  156.40    2.80
   6   5   6  169.73    3.10
  -6  -5  -6  164.33    5.23
   6   5   7    3.21    1.62
   6   5   7    3.83    0.40
   6   5   7    3.04    0.36
  -6  -5  -7    4.05    1.67
   6   5   8    6.64    0.40
   6   5   8    5.89    0.37
  -6  -5  -8    5.84    1.71
  -6  -5  -9   60.38    1.86
  -6  -5 -10   15.25    1.89
  -6  -5 -11    5.77    1.57
  -6  -5 -12   24.46    2.07
   6   6  -5   41.42    1.96
   6   6  -5   37.87    1.55
  -6  -6   5   41.51    2.70
   6   6  -4    0.09    1.13
   6   6  -4    0.35    1.67
  -6  -6   4    0.28    1.24
   6   6  -3    9.17    1.42
   6   6  -3    9.75    1.28
  -6  -6   3   10.31    0.89
   6   6  -2   32.91    1.12
   6   6  -2   35.82    2.89
  -6  -6   2   36.20    1.24
   6   6  -1   -0.15    0.83
   6   6  -1    0.79    1.64
  -6  -6   1    1.01    0.90
   6   6   0   23.05    1.25
  -6  -6   0   22.64    0.83
   6   6   1  148.37    3.35
   6   6   1  150.92    5.19
  -6  -6  -1  157.29    3.47
   6   6   2  249.93    5.11
   6   6   2  259.81    7.47
  -6  -6  -2  262.52    5.28
   6   6   3  135.35    2.69
   6   6   3  140.32    3.50
  -6  -6  -3  143.19    2.84
   6   6   4   61.01    1.52
   6   6   4   65.23    3.30
  -6  -6  -4   61.46    1.26
  -6  -6  -4   61.34    2.28
   6   6   5    0.24    0.35
   6   6   5    0.17    0.81
  -6  -6  -5    0.04    0.88
   6   6   6   66.29    1.08
   6   6   6   74.69    3.25
   6   6   6   58.01    0.88
  -6  -6  -6   70.14    2.28
   6   6   7   14.52    1.27
  -6  -6  -7   14.78    2.24
  -6  -6  -8   60.78    3.24
  -6  -6  -9    2.34    1.71
  -6  -6 -10   55.07    1.93
  -6  -6 -11   49.86    2.88
   6   7  -4   10.04    1.35
   6   7  -4   10.57    1.51
  -6  -7   4    9.83    0.98
   6   7  -3   24.78    2.69
   6   7  -3   19.70    1.59
  -6  -7   3   24.00    1.79
   6   7  -2   29.35    2.77
   6   7  -2   25.03    1.51
  -6  -7   2   26.53    1.70
   6   7  -1   33.77    1.73
   6   7  -1   30.77    1.47
  -6  -7   1   33.71    1.06
   6   7   0   61.88    2.19
   6   7   0   58.64    1.76
  -6  -7   0   62.37    1.91
   6   7   1    1.30    1.01
   6   7   1    1.31    0.58
  -6  -7  -1    1.49    0.63
   6   7   2  137.29    3.52
   6   7   2  125.82    2.51
  -6  -7  -2  136.43    2.73
   6   7   3   -0.21    1.62
   6   7   3    0.29    0.45
  -6  -7  -3    0.32    0.35
   6   7   4   26.89    2.69
  -6  -7  -4   27.50    1.75
   6   7   5   15.20    2.27
  -6  -7  -5   13.20    1.39
   6   7   6   45.68    1.91
  -6  -7  -6   43.08    1.96
  -6  -7  -7   94.79    2.87
  -6  -7  -8    8.45    2.24
  -6  -7  -9   26.65    2.74
  -6  -7 -10   70.95    2.44
   6   8  -2    3.29    1.11
   6   8  -2    2.74    0.96
  -6  -8   2    2.70    1.09
   6   8  -1   12.98    2.48
   6   8  -1   11.78    1.04
  -6  -8   1   13.40    1.15
   6   8   0   44.84    3.16
   6   8   0   38.74    1.33
  -6  -8   0   42.07    1.49
   6   8   1    1.27    1.80
   6   8   1    0.58    0.47
   6   8   2    0.78    1.81
   6   8   3   41.88    3.24
   6   8   4  132.93    5.06
  -6  -8  -4  137.31    3.95
   6   8   5   25.39    2.83
  -6  -8  -5   20.69    1.68
   6   8   6   76.46    2.65
  -6  -8  -6   70.66    2.64
  -6  -8  -7   10.65    1.46
  -6  -8  -8   15.75    2.74
  -6  -8  -9   30.96    3.12
   6   9   1   18.74    1.62
   6   9   2   46.10    3.46
   6   9   3   34.44    3.25
   6   9   4   15.90    2.90
  -6  -9  -4   14.21    1.86
   6   9   5  105.78    5.07
  -6  -9  -5  100.63    3.50
  -6  -9  -6  159.67    6.60
   7  -7   0   55.84    3.90
   7  -7   1   40.63    3.39
   7  -7   2    6.00    1.34
   7  -6  -3    2.13    1.15
  -7   6   3    2.02    2.06
   7  -6  -2    4.95    2.24
  -7   6   2    3.94    2.24
   7  -6  -1   18.62    2.78
  -7   6   1   22.73    2.79
   7  -6   0   15.55    1.59
   7  -6   1   90.43    4.34
   7  -6   2   30.02    3.02
   7  -6   3   48.14    2.11
   7  -6   4    4.44    1.23
   7  -6   5   25.13    1.85
   7  -6   5   23.26    2.96
   7  -6   6  124.36    5.50
   7  -6   6  110.84    3.46
   7  -5  -5   19.61    3.05
  -7   5   5   17.08    1.68
   7  -5  -4  218.76    5.78
  -7   5   4  227.47    5.89
   7  -5  -3  219.12    7.63
  -7   5   3  234.84    5.90
   7  -5  -2    0.62    1.05
  -7   5   2    0.62    1.03
   7  -5  -1    9.31    2.35
  -7   5   1    7.49    1.32
   7  -5   0   11.05    2.42
  -7   5   0   10.66    2.37
   7  -5   1   11.85    1.38
   7  -5   2    0.10    0.37
   7  -5   2    0.38    1.66
   7  -5   3   46.57    1.47
   7  -5   3   57.08    2.17
   7  -5   4   61.40    2.27
   7  -5   5   10.75    1.35
   7  -5   6  197.59    6.49
   7  -5   6  175.94    4.50
   7  -5   7    0.15    1.07
   7  -5   7    0.75    1.02
   7  -5   8    9.45    2.63
   7  -5   8   10.58    1.39
   7  -4  -6   39.92    3.73
  -7   4   6   43.48    2.20
   7  -4  -5   89.62    3.10
  -7   4   5   95.81    4.76
   7  -4  -4   33.64    3.41
  -7   4   4   36.06    3.32
   7  -4  -3    4.09    2.24
  -7   4   3    4.88    2.15
   7  -4  -2    2.14    2.02
  -7   4   2    2.01    1.96
   7  -4  -1    7.37    2.26
  -7   4   1    6.69    2.21
   7  -4   0   10.72    2.50
  -7   4   0   12.38    1.43
   7  -4   1  277.68    8.44
  -7   4  -1  288.25    8.78
   7  -4   2  347.28    7.95
   7  -4   2  336.19    7.88
   7  -4   3   51.58    3.46
   7  -4   3   51.56    3.52
   7  -4   3   45.23    1.59
   7  -4   4  106.71    2.40
   7  -4   4  117.32    4.66
   7  -4   5  107.53    3.01
   7  -4   6   38.15    1.87
   7  -4   6   39.50    1.80
   7  -4   7   25.50    2.73
   7  -4   7   24.30    1.55
   7  -4   8   12.05    1.38
   7  -4   8   11.84    1.31
   7  -4   9    3.37    2.17
   7  -4   9    3.48    2.05
   7  -3  -6  143.90    6.31
  -7   3   6  157.17    6.34
   7  -3  -5    0.54    1.01
  -7   3   5   -0.48    0.97
   7  -3  -4   82.92    4.39
  -7   3   4   88.48    2.82
   7  -3  -3   29.12    1.81
  -7   3   3   31.44    1.76
   7  -3  -2   51.31    3.50
  -7   3   2   51.27    2.08
   7  -3  -1  119.53    3.52
  -7   3   1  118.67    5.45
   7  -3   0  916.60   25.20
  -7   3   0  963.71   26.12
   7  -3   1    0.42    0.68
   7  -3   1    4.17    1.23
  -7   3  -1    4.56    1.20
   7  -3   2   74.12    2.47
   7  -3   2   74.73    4.03
  -7   3  -2   76.92    4.12
   7  -3   3  826.51   19.88
   7  -3   3  831.64   19.62
   7  -3   4  231.25    4.90
   7  -3   4  244.69    7.36
   7  -3   5   51.69    1.39
   7  -3   5   56.40    3.18
   7  -3   6  133.30    2.48
   7  -3   6  141.48    4.85
   7  -3   7   46.52    1.84
   7  -3   7   48.19    2.99
   7  -3   8   70.24    3.50
   7  -3   8   63.96    3.32
   7  -3   9   23.65    1.55
   7  -3   9   22.34    2.52
   7  -3  10   51.95    3.36
   7  -3  10   49.94    3.13
   7  -2  -7   37.83    3.97
  -7   2   7   41.82    3.84
   7  -2  -6    3.04    2.43
  -7   2   6    3.58    1.31
   7  -2  -5    4.04    1.28
  -7   2   5    5.87    1.28
   7  -2  -4   48.29    3.61
  -7   2   4   51.34    3.50
   7  -2  -3  120.30    3.46
  -7   2   3  124.63    4.92
   7  -2  -2   50.87    3.43
  -7   2   2   51.19    3.37
   7  -2  -1   80.26    2.58
  -7   2   1   82.90    2.56
   7  -2   0   83.23    3.98
  -7   2   0   88.51    3.98
   7  -2   1   63.35    2.55
   7  -2   1   59.23    2.08
  -7   2  -1   63.00    2.10
   7  -2   2   59.32    2.22
   7  -2   2   59.83    3.26
  -7   2  -2   63.43    3.28
   7  -2   3  248.54    5.57
   7  -2   3  242.29    5.50
  -7   2  -3  257.80    5.80
   7  -2   4   20.27    2.30
   7  -2   4   19.21    1.17
   7  -2   5  115.88    2.63
   7  -2   5  112.83    2.88
   7  -2   6    1.33    0.56
   7  -2   6    2.40    0.86
   7  -2   7   23.97    0.84
   7  -2   7   28.35    2.36
   7  -2   7   26.19    2.26
   7  -2   8    0.11    0.78
   7  -2   8    0.73    1.36
   7  -2   9    0.38    1.48
   7  -2   9    0.27    1.35
   7  -2  10    3.06    1.79
   7  -2  10    3.35    0.93
   7  -1  -7    3.06    2.42
  -7   1   7    3.53    2.38
   7  -1  -6   -0.06    1.95
  -7   1   6   -0.18    1.03
   7  -1  -5  107.76    3.38
  -7   1   5  113.38    4.91
   7  -1  -4   -0.70    1.83
  -7   1   4   -0.11    1.79
   7  -1  -3   52.90    2.15
  -7   1   3   54.48    3.43
   7  -1  -2  102.53    4.38
  -7   1   2  105.82    4.32
   7  -1  -1   55.13    2.05
  -7   1   1   56.35    3.18
   7  -1   0   98.44    2.53
   7  -1   0   92.64    3.88
  -7   1   0   95.25    2.60
   7  -1   1    3.15    1.34
   7  -1   1    4.40    0.97
  -7   1  -1    3.26    1.74
   7  -1   2   14.88    1.48
   7  -1   2   14.76    2.06
  -7   1  -2   14.13    1.98
   7  -1   3   73.78    1.71
   7  -1   3   71.76    2.09
  -7   1  -3   77.64    2.17
   7  -1   4   21.45    2.04
   7  -1   4   20.38    1.30
   7  -1   5  141.65    3.24
   7  -1   5  139.30    3.23
   7  -1   6   40.24    1.42
   7  -1   6   37.33    2.42
   7  -1   7  488.04   10.25
   7  -1   7  487.46   10.77
   7  -1   7  485.19   12.03
   7  -1   8   45.78    2.65
   7  -1   8   44.40    2.58
   7  -1   9  185.68    5.34
   7  -1   9  169.63    4.97
   7  -1  10   72.39    3.17
   7  -1  10   69.32    2.95
   7  -1  11   39.97    1.58
   7  -1  11   40.51    2.46
   7   0  -7    5.29    2.48
  -7   0   7    4.51    2.44
   7   0  -6    0.43    1.90
  -7   0   6    0.15    1.04
   7   0  -5  100.22    3.22
  -7   0   5  106.69    4.79
   7   0  -4  218.54    5.59
  -7   0   4  224.80    7.27
   7   0  -3  193.97    6.66
  -7   0   3  200.08    4.88
   7   0  -2   -0.47    0.97
   7   0  -2    2.43    0.94
  -7   0   2    1.92    1.70
   7   0  -1   41.04    1.72
   7   0  -1   37.78    2.79
  -7   0   1   39.02    2.59
   7   0   0   44.52    2.53
   7   0   0   45.74    1.72
  -7   0   0   44.99    1.68
   7   0   1   25.09    2.01
   7   0   1   26.97    2.18
  -7   0  -1   25.56    2.19
   7   0   2  123.68    3.60
   7   0   2  122.26    3.95
  -7   0  -2  130.97    4.12
   7   0   3    4.98    1.50
   7   0   3    3.98    0.67
  -7   0  -3    4.78    1.51
   7   0   4    0.70    0.94
   7   0   4    0.71    1.20
   7   0   5   14.21    1.20
   7   0   5   13.76    1.62
   7   0   6   -0.10    0.71
   7   0   6   -0.03    1.06
   7   0   7  108.83    2.12
   7   0   7  106.32    3.36
   7   0   8   42.51    2.25
   7   0   8   42.68    2.18
   7   0   9   94.26    3.21
   7   0   9   96.28    3.13
   7   0  10   39.63    2.20
   7   0  10   40.11    2.09
   7   0  11  114.91    3.67
   7   0  11  114.16    3.59
   7   1  -7    4.51    1.35
  -7  -1   7    4.31    2.37
   7   1  -6    0.29    1.03
  -7  -1   6    0.53    1.02
   7   1  -5   26.29    2.87
  -7  -1   5   25.48    2.85
   7   1  -4  111.19    4.71
  -7  -1   4  117.91    3.25
   7   1  -3    2.98    1.18
   7   1  -3    3.31    1.02
  -7  -1   3    2.02    0.97
   7   1  -2    3.71    1.85
   7   1  -2    2.06    1.69
  -7  -1   2    2.31    0.91
   7   1  -1    0.16    0.75
   7   1  -1    0.21    1.47
  -7  -1   1    0.36    1.34
   7   1   0   63.37    3.06
   7   1   0   61.60    2.94
  -7  -1   0   61.68    1.87
   7   1   1  120.57    2.88
   7   1   1  121.09    2.91
  -7  -1  -1  126.29    3.94
   7   1   2   12.77    1.63
   7   1   2   11.11    1.63
  -7  -1  -2   10.77    1.64
   7   1   3   25.93    1.14
   7   1   3   25.11    1.13
  -7  -1  -3   27.12    1.87
   7   1   4  149.56    3.18
   7   1   4  147.46    4.07
  -7  -1  -4  152.97    4.13
   7   1   5    2.04    0.58
   7   1   5    1.45    1.12
   7   1   6   46.23    1.86
   7   1   6   46.33    2.00
   7   1   7    6.91    0.99
   7   1   7    0.22    0.62
   7   1   7    7.32    1.14
   7   1   8   75.11    2.19
   7   1   8   67.13    2.40
   7   1   8   69.79    2.39
   7   1   9    3.20    1.14
   7   1   9    3.48    1.12
   7   1  10   88.16    2.79
   7   1  10   85.97    2.67
   7   1  11   24.28    1.63
   7   1  11   22.84    1.55
   7   2  -6   23.29    2.04
   7   2  -6   21.57    2.96
  -7  -2   6   24.08    1.72
   7   2  -5    7.51    1.47
   7   2  -5    5.78    1.22
  -7  -2   5    6.16    2.17
   7   2  -4   -0.48    1.96
   7   2  -4    1.01    0.90
  -7  -2   4    0.36    1.64
   7   2  -3   17.12    2.63
   7   2  -3   16.75    2.21
  -7  -2   3   17.02    1.27
   7   2  -2   66.07    3.22
   7   2  -2   72.74    2.37
  -7  -2   2   66.93    3.15
   7   2  -1   10.17    1.24
   7   2  -1   10.95    1.05
  -7  -2   1   10.65    1.81
   7   2   0  175.88    4.16
   7   2   0  181.55    5.22
  -7  -2   0  180.63    4.01
   7   2   1  128.93    3.15
   7   2   1  130.55    2.99
  -7  -2  -1  136.79    4.00
   7   2   2   13.70    1.54
   7   2   2   11.79    1.84
  -7  -2  -2   14.83    1.53
   7   2   3   -0.03    0.60
   7   2   3    0.10    0.49
  -7  -2  -3   -0.34    0.88
   7   2   4    5.18    0.77
   7   2   4    4.70    1.13
  -7  -2  -4    4.83    0.65
   7   2   5    8.38    1.48
   7   2   5   10.29    1.19
   7   2   6   58.07    2.06
   7   2   6   60.96    2.35
   7   2   7   60.07    1.57
   7   2   7   59.75    2.03
   7   2   8   60.71    2.31
   7   2   8   58.18    1.43
   7   2   8   57.40    2.00
   7   2   9   53.69    1.96
   7   2   9   51.55    1.30
   7   2  10   61.48    2.07
   7   2  10   60.85    2.00
   7   2  11    6.30    1.03
   7   2  11    7.56    1.01
  -7  -2 -11    4.68    0.60
   7   3  -6    0.19    2.15
   7   3  -6    0.65    0.98
  -7  -3   6    0.09    1.01
   7   3  -5    6.80    2.14
   7   3  -5    7.79    2.69
  -7  -3   5    7.43    2.22
   7   3  -4   76.64    3.71
   7   3  -4   80.51    2.86
  -7  -3   4   73.56    3.73
   7   3  -3   31.61    3.20
   7   3  -3   27.90    2.47
  -7  -3   3   30.05    2.52
   7   3  -2   50.61    3.57
   7   3  -2   47.05    2.77
  -7  -3   2   50.66    2.83
   7   3  -1   97.09    4.17
   7   3  -1   92.39    2.47
  -7  -3   1   95.23    3.47
   7   3   0   63.54    2.72
   7   3   0   65.78    3.34
  -7  -3   0   66.16    1.84
   7   3   1    1.72    1.17
   7   3   1    2.16    1.61
  -7  -3  -1    1.78    1.14
   7   3   2    0.12    1.40
   7   3   2    0.46    0.52
  -7  -3  -2    0.19    0.93
   7   3   3    0.52    1.17
   7   3   3    0.27    0.79
  -7  -3  -3   -0.50    0.78
   7   3   4   19.44    1.95
   7   3   4   19.50    0.81
  -7  -3  -4   20.76    1.33
   7   3   5   38.04    1.59
   7   3   5   38.48    2.34
   7   3   6  253.01    5.68
   7   3   6  262.32    6.83
   7   3   7  715.97   17.99
   7   3   7  691.82   14.97
   7   3   7  715.64   16.48
   7   3   8 1527.88   41.60
   7   3   8 1478.78   38.38
   7   3   8 1470.91   38.27
   7   3   9   92.08    2.36
   7   3   9   89.31    2.40
  -7  -3  -9   95.56    2.39
   7   3  10    0.30    0.66
   7   3  10    0.24    0.36
  -7  -3 -10    0.52    1.05
   7   3  11   13.58    0.97
   7   3  11   13.28    0.94
  -7  -3 -11   12.17    0.82
   7   4  -5   70.28    2.87
   7   4  -5   59.64    3.64
  -7  -4   5   63.62    2.42
   7   4  -4  108.03    4.68
   7   4  -4  117.16    5.74
  -7  -4   4  111.02    4.70
   7   4  -3 1054.36   30.28
   7   4  -3 1139.31   32.90
  -7  -4   3 1092.83   31.26
   7   4  -2 1018.56   28.19
   7   4  -2 1033.57   26.41
  -7  -4   2 1030.76   28.49
   7   4  -1   -0.17    1.21
   7   4  -1   -0.53    1.91
  -7  -4   1   -0.17    1.26
   7   4   0  161.06    4.43
   7   4   0  163.93    5.54
  -7  -4   0  161.79    4.41
   7   4   1   20.94    2.39
   7   4   1   18.32    0.90
  -7  -4  -1   17.89    1.47
   7   4   2    0.75    0.84
   7   4   2    0.85    0.87
  -7  -4  -2    0.26    0.86
   7   4   3    1.89    1.58
   7   4   3    2.40    0.87
  -7  -4  -3    1.96    0.87
   7   4   4    0.88    0.73
   7   4   4    0.81    1.46
  -7  -4  -4    0.44    0.74
   7   4   5  143.82    3.26
   7   4   5  145.42    4.68
   7   4   6  144.16    3.21
   7   4   6  150.53    3.59
   7   4   7  482.52   12.06
   7   4   7  447.34    9.39
   7   4   7  474.50   10.01
   7   4   8   81.99    3.32
   7   4   8   76.12    1.86
   7   4   8   79.03    2.31
  -7  -4  -8   82.48    2.36
   7   4   9   67.44    1.63
   7   4   9   70.08    1.70
  -7  -4  -9   69.04    2.98
  -7  -4 -10    1.40    1.26
  -7  -4 -11   24.57    1.91
   7   5  -4   11.19    2.04
   7   5  -4   12.30    1.62
  -7  -5   4    7.48    2.12
   7   5  -3   11.07    1.81
   7   5  -3    9.26    2.70
  -7  -5   3    8.54    1.06
   7   5  -2   13.24    1.73
   7   5  -2   18.05    2.70
  -7  -5   2   13.91    1.03
   7   5  -1    6.78    0.76
   7   5  -1    8.01    1.26
  -7  -5   1    4.64    1.37
   7   5   0    6.69    1.25
   7   5   0    7.74    0.71
  -7  -5   0    7.73    1.23
   7   5   1    1.13    0.92
   7   5   1    0.64    0.47
  -7  -5  -1    0.59    0.86
   7   5   2   22.70    0.81
   7   5   2   24.44    2.51
  -7  -5  -2   24.12    1.30
   7   5   3    1.63    0.75
   7   5   3    2.42    1.74
  -7  -5  -3    2.29    0.76
   7   5   4    3.97    0.73
   7   5   4    3.80    1.03
  -7  -5  -4    3.95    0.69
   7   5   5    0.76    0.57
   7   5   5    0.94    1.58
   7   5   6  230.04    6.61
   7   5   6  231.63    4.57
   7   5   7   46.02    2.77
   7   5   7   42.49    1.08
   7   5   7   47.67    1.18
  -7  -5  -7   47.48    1.89
   7   5   8    1.29    0.84
  -7  -5  -8    0.50    1.50
  -7  -5  -9   20.37    2.14
  -7  -5 -10   25.50    1.34
   7   6  -3    2.12    0.71
   7   6  -3    1.76    2.14
  -7  -6   3    1.12    1.37
   7   6  -2    2.36    1.17
   7   6  -2    1.78    1.19
  -7  -6   2    1.95    1.26
   7   6  -1   86.21    2.82
   7   6  -1   91.52    4.42
  -7  -6   1   88.30    2.90
   7   6   0    0.53    0.46
   7   6   0    0.20    1.82
  -7  -6   0   -0.10    0.85
   7   6   1  130.01    3.18
   7   6   1  134.28    5.14
  -7  -6  -1  140.39    3.38
   7   6   2   14.74    0.99
   7   6   2   15.05    2.52
  -7  -6  -2   18.63    1.06
   7   6   3  139.51    2.99
   7   6   3  149.85    5.43
  -7  -6  -3  152.04    3.21
   7   6   4  324.78    6.56
   7   6   4  338.09    7.76
  -7  -6  -4  332.44    6.62
   7   6   5   18.81    1.48
   7   6   6    4.71    1.74
  -7  -6  -6    0.53    1.07
   7   6   7   46.38    1.90
  -7  -6  -7   44.98    3.31
  -7  -6  -8   27.91    1.60
  -7  -6  -9    8.99    2.10
   7   7  -1    2.88    0.99
   7   7  -1    3.67    1.24
  -7  -7   1    3.89    1.09
   7   7   0   54.17    1.85
   7   7   0   60.88    2.34
  -7  -7   0   58.33    1.99
   7   7   1    0.53    0.63
   7   7   1   -0.38    1.86
  -7  -7  -1    0.27    0.68
   7   7   2   19.29    0.91
   7   7   2   23.47    2.77
   7   7   3    0.95    1.89
   7   7   4   76.60    2.61
   7   7   5    1.85    1.08
   7   7   6   13.73    2.29
  -7  -7  -6    8.83    1.46
   7   7   7    2.82    2.06
  -7  -7  -7    2.44    2.24
  -7  -7  -8   93.27    4.53
   7   8   2    3.90    1.24
   7   8   3   10.69    1.48
   7   8   4    2.68    1.19
   7   8   5    1.00    1.08
   8  -5   0   11.52    2.71
  -8   5   0   11.20    2.69
   8  -5   1    5.12    0.67
   8  -5   1    5.97    2.51
   8  -5   2    0.91    0.79
   8  -5   2    1.43    2.11
   8  -5   3    3.26    1.28
   8  -4  -2   21.89    1.83
  -8   4   2   20.74    3.10
   8  -4  -1    0.82    2.12
  -8   4   1    0.96    2.04
   8  -4   0   20.06    3.03
  -8   4   0   19.63    2.99
   8  -4   1   76.11    2.92
   8  -4   1   83.96    2.94
  -8   4  -1   91.71    4.60
   8  -4   2  119.91    3.34
   8  -4   2  135.64    5.61
   8  -4   3   23.30    1.28
   8  -4   3   26.50    3.09
   8  -4   4   27.28    3.00
   8  -4   5    3.99    1.22
   8  -4   6    4.13    1.49
   8  -4   6   34.15    1.67
   8  -3  -3   21.95    1.86
  -8   3   3   22.95    1.78
   8  -3  -2    0.23    2.09
  -8   3   2    0.51    1.11
   8  -3  -1   95.30    5.04
  -8   3   1  100.02    3.36
   8  -3   0  339.04    8.44
  -8   3   0  364.37   11.09
   8  -3   1  211.08    4.91
   8  -3   1  220.76    8.21
  -8   3  -1  224.87    8.33
   8  -3   2  636.06   15.83
   8  -3   2  672.14   19.18
  -8   3  -2  677.82   16.37
   8  -3   3   81.09    2.56
   8  -3   3   89.14    2.93
   8  -3   4   25.22    2.73
   8  -3   4   21.66    1.21
   8  -3   5   29.80    2.81
   8  -3   6   27.59    2.74
   8  -3   7   10.25    2.34
   8  -3   7    9.32    2.23
   8  -2  -4    0.08    1.15
  -8   2   4   -0.52    1.09
   8  -2  -3    6.54    1.43
  -8   2   3    7.14    1.39
   8  -2  -2   38.73    3.57
  -8   2   2   39.77    2.07
   8  -2  -1   90.53    3.10
  -8   2   1   90.31    3.01
   8  -2   0   72.14    3.48
   8  -2   0   68.93    4.57
  -8   2   0   76.56    2.81
   8  -2   1  696.07   18.12
   8  -2   1  697.17   19.66
  -8   2  -1  720.18   20.16
   8  -2   2  285.08    7.18
   8  -2   2  270.14    6.74
  -8   2  -2  288.51    6.96
   8  -2   3   38.19    1.80
   8  -2   3   39.83    3.11
   8  -2   4   36.92    2.81
   8  -2   4   35.79    1.56
   8  -2   5    6.74    0.90
   8  -2   5    9.14    2.01
   8  -2   6   65.46    2.20
   8  -2   6   67.26    2.22
   8  -2   7   24.46    1.49
   8  -2   7   25.52    1.40
   8  -2   8    5.60    1.89
   8  -2   8    5.33    1.82
   8  -1  -4   13.72    1.64
  -8   1   4   15.52    1.63
   8  -1  -3    9.32    1.50
  -8   1   3    9.83    2.51
   8  -1  -2    0.20    0.98
   8  -1  -2    0.70    1.89
  -8   1   2    0.82    1.82
   8  -1  -1    6.31    1.94
   8  -1  -1    4.61    1.24
  -8   1   1    5.45    1.19
   8  -1   0   84.15    3.47
   8  -1   0   85.68    4.18
  -8   1   0   87.97    2.70
   8  -1   1  115.55    3.89
   8  -1   1  115.72    4.62
  -8   1  -1  121.17    4.69
   8  -1   2    9.14    1.50
   8  -1   2   10.31    1.20
  -8   1  -2   10.19    1.21
   8  -1   3   23.69    2.32
   8  -1   3   21.84    1.64
  -8   1  -3   25.21    2.37
   8  -1   4    0.77    0.91
   8  -1   4    0.35    1.46
   8  -1   5   24.27    1.36
   8  -1   5   25.48    2.20
   8  -1   6    2.76    0.85
   8  -1   6    4.01    0.89
   8  -1   7   93.17    2.31
   8  -1   7   96.44    2.56
   8  -1   8   61.26    2.02
   8  -1   8   57.74    1.90
   8  -1   9  185.52    4.35
   8  -1   9  175.11    4.12
   8   0  -4   -0.08    1.20
   8   0  -4    1.82    2.03
  -8   0   4    0.64    1.10
   8   0  -3   53.31    2.41
   8   0  -3   47.19    2.24
  -8   0   3   52.32    3.55
   8   0  -2  262.75    8.13
   8   0  -2  251.03    8.15
  -8   0   2  259.37    7.96
   8   0  -1   18.93    2.46
   8   0  -1   17.42    2.65
  -8   0   1   19.05    1.48
   8   0   0    7.77    1.20
   8   0   0    9.08    1.92
  -8   0   0    7.73    1.14
   8   0   1   96.68    3.61
   8   0   1   97.58    3.98
  -8   0  -1  102.45    4.01
   8   0   2   38.76    1.44
   8   0   2   39.07    2.63
  -8   0  -2   43.79    1.66
   8   0   3    5.91    0.92
   8   0   3    5.53    1.35
  -8   0  -3    5.14    1.72
   8   0   4   29.11    1.75
   8   0   4   26.00    2.19
   8   0   5  127.07    3.39
   8   0   5  124.26    4.01
   8   0   6   11.71    1.17
   8   0   6    9.97    0.96
   8   0   7  113.38    2.74
   8   0   7  118.93    3.01
   8   0   8   29.85    1.36
   8   0   8   29.22    1.29
   8   0   8   28.38    1.26
   8   0   9   35.06    2.27
   8   0   9   33.04    1.31
   8   1  -4    2.10    2.30
   8   1  -4    2.25    2.08
  -8  -1   4    1.99    1.14
   8   1  -3    1.43    1.17
   8   1  -3    1.26    1.97
  -8  -1   3    2.17    1.06
   8   1  -2   45.25    1.96
   8   1  -2   49.22    3.39
  -8  -1   2   45.68    3.11
   8   1  -1   -0.21    1.60
   8   1  -1    0.40    0.83
  -8  -1   1    0.01    0.79
   8   1   0   63.71    3.29
   8   1   0   66.83    3.22
  -8  -1   0   69.72    3.22
   8   1   1    3.25    1.69
   8   1   1    4.31    1.64
  -8  -1  -1    3.87    1.64
   8   1   2   19.84    1.18
   8   1   2   20.92    1.19
  -8  -1  -2   23.44    2.07
   8   1   3   14.76    1.79
   8   1   3   15.19    1.78
  -8  -1  -3   17.21    1.08
   8   1   4    1.83    1.22
   8   1   4    1.65    0.69
  -8  -1  -4    0.95    1.30
   8   1   5  126.93    2.80
   8   1   5  123.18    3.75
   8   1   6   45.18    1.35
   8   1   6   43.97    2.25
   8   1   7  112.12    3.45
   8   1   7  120.85    3.29
   8   1   8   33.28    1.64
   8   1   8   32.44    1.21
   8   1   8   30.88    1.88
   8   1   9   57.70    1.60
   8   1   9   56.75    1.57
   8   2  -4    5.47    1.22
   8   2  -4    7.28    1.49
  -8  -2   4    7.11    1.24
   8   2  -3   12.53    1.31
   8   2  -3   16.43    2.78
  -8  -2   3   14.92    1.35
   8   2  -2   18.93    1.57
   8   2  -2   15.42    2.30
  -8  -2   2   17.33    1.35
   8   2  -1   10.22    1.27
   8   2  -1    9.08    1.93
  -8  -2   1    9.56    1.10
   8   2   0   39.02    2.51
   8   2   0   39.16    2.89
  -8  -2   0   42.04    2.49
   8   2   1    4.30    0.87
   8   2   1    2.88    1.85
  -8  -2  -1    4.57    0.86
   8   2   2  285.52    7.52
   8   2   2  289.88    6.58
  -8  -2  -2  300.52    7.78
   8   2   3  157.14    4.91
   8   2   3  153.50    4.48
  -8  -2  -3  157.89    4.48
   8   2   4   22.44    1.20
   8   2   4   22.86    1.06
  -8  -2  -4   21.91    1.74
   8   2   5    7.58    1.55
   8   2   5    8.40    1.30
   8   2   6   48.28    2.06
   8   2   6   53.59    2.35
   8   2   7   13.82    0.81
   8   2   7   13.52    1.54
   8   2   8    0.59    1.04
   8   2   8    0.32    0.89
   8   2   8    0.71    0.90
   8   2   9   62.61    2.19
   8   2   9   59.23    2.11
   8   3  -3   16.07    2.94
   8   3  -3   14.89    2.24
  -8  -3   3   14.69    2.28
   8   3  -2   -0.59    1.85
   8   3  -2    0.41    1.35
  -8  -3   2    0.11    1.37
   8   3  -1   15.82    2.03
   8   3  -1   17.04    1.54
  -8  -3   1   19.19    2.09
   8   3   0   56.90    2.77
   8   3   0   59.73    2.22
  -8  -3   0   59.01    2.76
   8   3   1   35.59    1.34
   8   3   1   35.93    1.72
  -8  -3  -1   38.18    2.19
   8   3   2   12.22    1.20
   8   3   2   10.23    1.49
  -8  -3  -2   10.43    0.87
   8   3   3   11.19    1.94
   8   3   3    9.69    1.36
  -8  -3  -3   10.18    0.79
   8   3   4   11.72    1.88
   8   3   4   11.33    1.32
  -8  -3  -4   11.98    0.77
   8   3   5    0.20    0.48
   8   3   5    0.60    1.32
   8   3   6    5.82    1.09
   8   3   6    7.00    0.92
   8   3   7  130.30    4.09
   8   3   7  127.57    3.27
   8   3   8    0.67    1.31
   8   3   8    1.11    0.84
   8   3   8    0.81    0.86
   8   3   9  196.63    4.42
   8   3   9  198.73    3.90
   8   4  -2   12.10    1.99
   8   4  -2   11.95    2.90
  -8  -4   2   11.62    2.04
   8   4  -1  173.27    5.38
   8   4  -1  197.17    6.88
  -8  -4   1  193.07    5.70
   8   4   0   70.53    2.91
   8   4   0   76.31    2.64
  -8  -4   0   74.27    2.95
   8   4   1   15.85    1.43
   8   4   1   12.56    1.55
  -8  -4  -1   16.28    1.59
   8   4   2   10.92    2.22
   8   4   2    9.33    1.31
  -8  -4  -2   10.82    1.34
   8   4   3    0.97    1.70
   8   4   3    1.19    0.95
  -8  -4  -3    1.81    0.95
   8   4   4  103.03    2.24
   8   4   4  107.56    4.28
  -8  -4  -4  107.02    2.25
   8   4   5  250.49    5.83
   8   4   5  257.65    5.98
   8   4   6  609.83   14.14
   8   4   6  633.44   16.78
   8   4   7    1.24    1.55
   8   4   7    0.96    0.41
   8   4   7    0.65    0.78
   8   4   8   25.83    1.38
   8   4   8   23.50    1.11
   8   4   8   24.56    1.17
   8   5  -1    3.68    2.32
   8   5  -1    2.34    1.31
  -8  -5   1    2.14    1.36
   8   5   0    0.47    1.95
   8   5   0    0.19    1.05
  -8  -5   0    0.59    1.06
   8   5   1   10.59    2.46
   8   5   1   10.08    0.75
  -8  -5  -1    9.60    1.29
   8   5   2   42.25    1.23
   8   5   2   46.73    3.30
  -8  -5  -2   46.50    1.85
   8   5   3  117.58    3.08
   8   5   3  124.92    4.89
  -8  -5  -3  126.38    3.16
   8   5   4   36.95    1.54
   8   5   4   38.17    3.14
  -8  -5  -4   39.42    1.49
   8   5   5  228.95    5.01
   8   5   5  236.42    5.68
   8   5   6    3.35    1.97
   8   5   7   58.06    2.08
   8   5   8    9.92    2.07
   8   6   1   32.40    1.70
   8   6   1   42.06    3.40
  -8  -6  -1   38.64    1.72
   8   6   2    5.96    0.97
   8   6   2    5.95    2.41
  -8  -6  -2    7.72    0.97
   8   6   3   54.87    1.74
   8   6   3   65.85    3.83
   8   6   4  109.03    4.79
   8   6   5   13.23    1.42
   8   6   6   40.08    1.91
   9  -1   1   22.54    1.32
   9  -1   1   26.25    1.77
  -9   1  -1   23.12    2.93
   9  -1   2    3.49    1.44
   9  -1   2    4.38    2.14
  -9   1  -2    4.18    2.11
   9  -1   3   84.65    4.05
   9  -1   3   81.19    3.03
  -9   1  -3   88.13    2.75
   9  -1   4   39.01    2.01
   9  -1   4   43.98    3.02
   9  -1   5   56.68    2.11
   9  -1   5   60.69    3.28
   9   0   0   45.97    3.04
   9   0   0   43.63    3.35
  -9   0   0   47.44    3.30
   9   0   1    1.05    1.43
   9   0   1    0.11    0.90
  -9   0  -1   -0.19    1.66
  -9   0  -1   -0.00    1.63
   9   0   2    6.64    2.04
   9   0   2    8.27    0.96
  -9   0  -2    8.32    1.17
   9   0   3   -0.27    1.44
   9   0   3    0.55    1.15
  -9   0  -3   -0.22    1.47
   9   0   4    0.34    0.61
   9   0   4   -0.17    1.45
   9   0   5  117.44    3.49
   9   0   5  116.29    4.19
   9   1   0   34.97    2.90
   9   1   0   38.17    3.00
  -9  -1   0   35.86    2.92
   9   1   1    1.91    1.69
   9   1   1    1.49    1.71
  -9  -1  -1    2.21    1.73
   9   1   2   35.07    2.58
   9   1   2   35.42    2.57
  -9  -1  -2   37.07    2.61
   9   1   3   13.78    1.10
   9   1   3   13.71    1.13
  -9  -1  -3   12.25    1.99
   9   1   4    0.44    1.26
   9   1   4    0.60    1.33
   9   1   5   26.25    1.88
   9   1   5   23.62    2.04
   9   1   6    1.26    1.30
   9   1   6    1.55    1.16
   9   2   1   18.93    1.29
   9   2   1   16.82    2.51
  -9  -2  -1   20.53    2.17
   9   2   2    0.13    1.55
   9   2   2   -0.93    1.30
  -9  -2  -2    0.20    1.29
   9   2   3   72.26    2.27
   9   2   3   71.62    3.06
  -9  -2  -3   72.92    3.05
   9   2   4    2.02    1.59
   9   2   4    1.60    1.39
  -9  -2  -4    4.32    0.79
   9   2   5    7.16    1.61
   9   2   5    4.30    1.38
   9   3   3    2.21    1.79
   9   3   3    2.36    1.28
  -9  -3  -3    2.62    0.71
   9   3   4    8.82    1.39
   9   3   4    7.37    1.11
  -9  -3  -4    8.57    1.39
;
_shelx_hkl_checksum              2366
_shelx_res_file
;
    shelxl.res created by SHELXL-2014/7
TITL 05112916
CELL  0.71075 7.10250 9.05980 11.62710 82.290 78.542 86.794
ZERR  1 0.00410 0.00420 0.00640 0.021 0.025 0.024
LATT 1
SFAC C H O N
UNIT 34 38 6 2
SHEL 99999.000000 0.000000
OMIT     2  -4   9
OMIT     5  10   2
OMIT     2  -4  10
OMIT     2  -4  11
OMIT     4  -2 -11
OMIT    -2 -11   1
L.S. 20
FMAP 2
PLAN -20
WPDB -2
HTAB
BOND $H
CONF
LIST 4
TEMP -180.0
ACTA
SIZE 0.490 0.210 0.100
WGHT    0.083100    0.044500
FVAR       1.40902
O1    3    0.877408   -0.237374    0.372082    11.00000    0.03214    0.01850 =
         0.02077   -0.00596   -0.00793    0.00480
O2    3    0.777249   -0.209593    0.199121    11.00000    0.03324    0.02169 =
         0.02914   -0.00445   -0.01452    0.00622
O3    3    1.187889   -0.859428    0.228582    11.00000    0.02792    0.01529 =
         0.02255   -0.00618   -0.01058    0.00447
N1    4    0.736304    0.026002    0.408679    11.00000    0.01972    0.01599 =
         0.02439   -0.00331   -0.00338   -0.00040
C1    1    0.944102   -0.434881    0.257973    11.00000    0.01663    0.01619 =
         0.01738   -0.00146   -0.00184   -0.00165
C2    1    1.043316   -0.510216    0.341730    11.00000    0.01969    0.01912 =
         0.01601   -0.00363   -0.00337   -0.00193
AFIX  43
H2    2    1.057736   -0.463136    0.407590    11.00000   -1.20000
AFIX   0
C3    1    1.120766   -0.651928    0.330416    11.00000    0.01906    0.01874 =
         0.01783   -0.00163   -0.00555    0.00040
AFIX  43
H3    2    1.184895   -0.702727    0.389214    11.00000   -1.20000
AFIX   0
C4    1    1.104540   -0.720395    0.232227    11.00000    0.01763    0.01498 =
         0.01960   -0.00152   -0.00352   -0.00100
C5    1    1.007597   -0.646253    0.147199    11.00000    0.02361    0.01753 =
         0.01759   -0.00377   -0.00627   -0.00185
AFIX  43
H5    2    0.996584   -0.692105    0.080083    11.00000   -1.20000
AFIX   0
C6    1    0.927031   -0.504623    0.161240    11.00000    0.02084    0.01704 =
         0.01834    0.00015   -0.00645   -0.00094
AFIX  43
H6    2    0.859338   -0.454856    0.103832    11.00000   -1.20000
AFIX   0
C7    1    0.856865   -0.283094    0.272115    11.00000    0.01772    0.01788 =
         0.02009   -0.00221   -0.00273   -0.00233
C8    1    1.174390   -0.937507    0.130715    11.00000    0.02455    0.01733 =
         0.01880   -0.00452   -0.00736    0.00032
AFIX  23
H8A   2    1.230503   -0.878199    0.055006    11.00000   -1.20000
H8B   2    1.038187   -0.954922    0.130256    11.00000   -1.20000
AFIX   0
C9    1    1.284350   -1.084575    0.145858    11.00000    0.02051    0.01592 =
         0.02296   -0.00423   -0.00667    0.00069
AFIX  23
H9A   2    1.223796   -1.144245    0.220370    11.00000   -1.20000
H9B   2    1.417917   -1.065689    0.151602    11.00000   -1.20000
AFIX   0
C10   1    1.287145   -1.172361    0.042491    11.00000    0.03021    0.01948 =
         0.02368   -0.00664   -0.00608    0.00146
AFIX  23
H10A  2    1.345183   -1.111193   -0.031878    11.00000   -1.20000
H10B  2    1.153259   -1.191615    0.037683    11.00000   -1.20000
AFIX   0
C11   1    1.399154   -1.320560    0.053063    11.00000    0.02686    0.02195 =
         0.03541   -0.01019   -0.00287    0.00181
AFIX 137
H11A  2    1.531066   -1.302672    0.059901    11.00000   -1.50000
H11B  2    1.401390   -1.369560   -0.017412    11.00000   -1.50000
H11C  2    1.336984   -1.384680    0.123491    11.00000   -1.50000
AFIX   0
C12   1    0.663513    0.110818    0.323834    11.00000    0.02139    0.02105 =
         0.02098   -0.00635   -0.00322   -0.00067
AFIX  43
H12   2    0.660976    0.070729    0.252752    11.00000   -1.20000
AFIX   0
C13   1    0.591612    0.254556    0.334924    11.00000    0.01906    0.02004 =
         0.01910   -0.00097   -0.00509    0.00069
AFIX  43
H13   2    0.542917    0.311577    0.271905    11.00000   -1.20000
AFIX   0
C14   1    0.591073    0.315233    0.439239    11.00000    0.01516    0.01501 =
         0.02102   -0.00165   -0.00348   -0.00102
C15   1    0.665755    0.225164    0.527872    11.00000    0.02525    0.01606 =
         0.02185   -0.00339   -0.00791    0.00070
AFIX  43
H15   2    0.667447    0.261177    0.600712    11.00000   -1.20000
AFIX   0
C16   1    0.737110    0.083576    0.509194    11.00000    0.02443    0.01617 =
         0.02364   -0.00152   -0.00734    0.00155
AFIX  43
H16   2    0.788950    0.024406    0.570004    11.00000   -1.20000
AFIX   0
C17   1    0.513738    0.467213    0.450650    11.00000    0.01859    0.01449 =
         0.02177   -0.00039   -0.00596    0.00096
AFIX  43
H17   2    0.480396    0.523771    0.382280    11.00000   -1.20000
AFIX   0
H1    2    0.822919   -0.132774    0.386297    11.00000    0.10026
HKLF 4
REM  05112916
REM R1 =  0.0406 for    2919 Fo > 4sig(Fo)  and  0.0441 for all    3311 data
REM    195 parameters refined using      0 restraints
END
WGHT      0.0832      0.0422
REM Instructions for potential hydrogen bonds
EQIV $1 -x+2, -y-1, -z+1
HTAB C16 O3_$1
HTAB O1 N1
REM Highest difference peak  0.182,  deepest hole -0.448,  1-sigma level  0.105
Q1    1   1.0406  0.0964  0.4774  11.00000  0.05    0.18
Q2    1   1.3084 -1.4675  0.2333  11.00000  0.05    0.18
Q3    1   1.3277 -0.7821  0.4660  11.00000  0.05    0.18
Q4    1   1.0491 -0.0948  0.2752  11.00000  0.05    0.17
Q5    1   1.4137 -0.9903  0.3448  11.00000  0.05    0.17
Q6    1   0.8247 -0.5532  0.3390  11.00000  0.05    0.17
Q7    1   1.4009 -0.9597  0.3799  11.00000  0.05    0.17
Q8    1   1.0147 -1.0584  0.2161  11.00000  0.05    0.17
Q9    1   1.1539 -0.5244  0.4982  11.00000  0.05    0.17
Q10   1   1.0304  0.0181  0.4141  11.00000  0.05    0.16
Q11   1   1.0889 -1.2557  0.0822  11.00000  0.05    0.16
Q12   1   1.2944  0.0107  0.4188  11.00000  0.05    0.16
Q13   1   1.1516 -1.2234  0.2247  11.00000  0.05    0.16
Q14   1   0.8096 -0.3605  0.4412  11.00000  0.05    0.16
Q15   1   1.1515 -0.3229  0.1972  11.00000  0.05    0.16
Q16   1   1.0231 -0.9635  0.3623  11.00000  0.05    0.16
Q17   1   0.9863  0.1326  0.3823  11.00000  0.05    0.16
Q18   1   1.1323 -1.1870  0.2389  11.00000  0.05    0.16
Q19   1   1.1845 -1.2864  0.2752  11.00000  0.05    0.16
Q20   1   0.8126 -0.4581  0.4841  11.00000  0.05    0.16
;
_shelx_res_checksum              44464
loop_
_symmetry_equiv_pos_site_id
_symmetry_equiv_pos_as_xyz
1 +X,+Y,+Z
2 -X,-Y,-Z
loop_
_atom_site_type_symbol
_atom_site_label
_atom_site_fract_x
_atom_site_fract_y
_atom_site_fract_z
_atom_site_U_iso_or_equiv
_atom_site_adp_type
_atom_site_calc_flag
_atom_site_occupancy
O O1 0.87741(10) -0.23737(7) 0.37208(5) 0.02330(17) Uani d 1
O O2 0.77725(10) -0.20959(7) 0.19912(6) 0.02700(18) Uani d 1
O O3 1.18789(9) -0.85943(7) 0.22858(6) 0.02097(17) Uani d 1
N N1 0.73630(11) 0.02600(8) 0.40868(7) 0.02009(18) Uani d 1
C C1 0.94410(12) -0.43488(9) 0.25797(7) 0.01695(19) Uani d 1
C C2 1.04332(12) -0.51022(9) 0.34173(7) 0.01810(19) Uani d 1
H H2 1.0577 -0.4631 0.4076 0.022 Uiso calc 1
C C3 1.12077(12) -0.65193(9) 0.33042(7) 0.01837(19) Uani d 1
H H3 1.1849 -0.7027 0.3892 0.022 Uiso calc 1
C C4 1.10454(12) -0.72040(9) 0.23223(8) 0.01745(19) Uani d 1
C C5 1.00760(13) -0.64625(9) 0.14720(7) 0.01907(19) Uani d 1
H H5 0.9966 -0.6921 0.0801 0.023 Uiso calc 1
C C6 0.92703(12) -0.50462(9) 0.16124(8) 0.01858(19) Uani d 1
H H6 0.8593 -0.4549 0.1038 0.022 Uiso calc 1
C C7 0.85686(12) -0.28309(9) 0.27212(8) 0.0186(2) Uani d 1
C C8 1.17439(13) -0.93751(9) 0.13072(8) 0.0196(2) Uani d 1
H H8A 1.2305 -0.8782 0.0550 0.024 Uiso calc 1
H H8B 1.0382 -0.9549 0.1303 0.024 Uiso calc 1
C C9 1.28435(12) -1.08457(9) 0.14586(8) 0.0193(2) Uani d 1
H H9A 1.2238 -1.1442 0.2204 0.023 Uiso calc 1
H H9B 1.4179 -1.0657 0.1516 0.023 Uiso calc 1
C C10 1.28714(14) -1.17236(10) 0.04249(8) 0.0241(2) Uani d 1
H H10A 1.3452 -1.1112 -0.0319 0.029 Uiso calc 1
H H10B 1.1533 -1.1916 0.0377 0.029 Uiso calc 1
C C11 1.39915(14) -1.32056(10) 0.05306(9) 0.0280(2) Uani d 1
H H11A 1.5311 -1.3027 0.0599 0.042 Uiso calc 1
H H11B 1.4014 -1.3696 -0.0174 0.042 Uiso calc 1
H H11C 1.3370 -1.3847 0.1235 0.042 Uiso calc 1
C C12 0.66351(13) 0.11082(10) 0.32383(8) 0.0209(2) Uani d 1
H H12 0.6610 0.0707 0.2528 0.025 Uiso calc 1
C C13 0.59161(12) 0.25456(10) 0.33492(8) 0.0194(2) Uani d 1
H H13 0.5429 0.3116 0.2719 0.023 Uiso calc 1
C C14 0.59107(12) 0.31523(9) 0.43924(8) 0.01710(19) Uani d 1
C C15 0.66576(13) 0.22516(9) 0.52787(8) 0.0205(2) Uani d 1
H H15 0.6674 0.2612 0.6007 0.025 Uiso calc 1
C C16 0.73711(13) 0.08358(10) 0.50919(8) 0.0212(2) Uani d 1
H H16 0.7889 0.0244 0.5700 0.025 Uiso calc 1
C C17 0.51374(12) 0.46721(9) 0.45065(8) 0.0182(2) Uani d 1
H H17 0.4804 0.5238 0.3823 0.022 Uiso calc 1
H H1 0.823(3) -0.133(3) 0.3863(19) 0.100(7) Uiso d 1
loop_
_atom_site_aniso_label
_atom_site_aniso_U_11
_atom_site_aniso_U_22
_atom_site_aniso_U_33
_atom_site_aniso_U_12
_atom_site_aniso_U_13
_atom_site_aniso_U_23
O1 0.0321(4) 0.0185(3) 0.0208(3) 0.0048(3) -0.0079(3) -0.0060(2)
O2 0.0332(4) 0.0217(3) 0.0291(4) 0.0062(3) -0.0145(3) -0.0044(3)
O3 0.0279(3) 0.0153(3) 0.0225(3) 0.0045(2) -0.0106(3) -0.0062(2)
N1 0.0197(4) 0.0160(3) 0.0244(4) -0.0004(3) -0.0034(3) -0.0033(3)
C1 0.0166(4) 0.0162(4) 0.0174(4) -0.0017(3) -0.0018(3) -0.0015(3)
C2 0.0197(4) 0.0191(4) 0.0160(4) -0.0019(3) -0.0034(3) -0.0036(3)
C3 0.0191(4) 0.0187(4) 0.0178(4) 0.0004(3) -0.0055(3) -0.0016(3)
C4 0.0176(4) 0.0150(4) 0.0196(4) -0.0010(3) -0.0035(3) -0.0015(3)
C5 0.0236(4) 0.0175(4) 0.0176(4) -0.0019(3) -0.0063(3) -0.0038(3)
C6 0.0208(4) 0.0170(4) 0.0183(4) -0.0009(3) -0.0064(3) 0.0002(3)
C7 0.0177(4) 0.0179(4) 0.0201(4) -0.0023(3) -0.0027(3) -0.0022(3)
C8 0.0246(4) 0.0173(4) 0.0188(4) 0.0003(3) -0.0074(3) -0.0045(3)
C9 0.0205(4) 0.0159(4) 0.0230(4) 0.0007(3) -0.0067(3) -0.0042(3)
C10 0.0302(5) 0.0195(4) 0.0237(4) 0.0015(3) -0.0061(4) -0.0066(3)
C11 0.0269(5) 0.0219(4) 0.0354(5) 0.0018(4) -0.0029(4) -0.0102(4)
C12 0.0214(4) 0.0211(4) 0.0210(4) -0.0007(3) -0.0032(3) -0.0063(3)
C13 0.0191(4) 0.0200(4) 0.0191(4) 0.0007(3) -0.0051(3) -0.0010(3)
C14 0.0152(4) 0.0150(4) 0.0210(4) -0.0010(3) -0.0035(3) -0.0016(3)
C15 0.0252(4) 0.0161(4) 0.0218(4) 0.0007(3) -0.0079(3) -0.0034(3)
C16 0.0244(4) 0.0162(4) 0.0236(4) 0.0016(3) -0.0073(3) -0.0015(3)
C17 0.0186(4) 0.0145(4) 0.0218(4) 0.0010(3) -0.0060(3) -0.0004(3)
loop_
_atom_type_symbol
_atom_type_description
_atom_type_scat_dispersion_real
_atom_type_scat_dispersion_imag
_atom_type_scat_source
C C 0.0033 0.0016 'International Tables Vol C Tables 4.2.6.8 and 6.1.1.4'
H H 0.0000 0.0000 'International Tables Vol C Tables 4.2.6.8 and 6.1.1.4'
O O 0.0106 0.0060 'International Tables Vol C Tables 4.2.6.8 and 6.1.1.4'
N N 0.0061 0.0033 'International Tables Vol C Tables 4.2.6.8 and 6.1.1.4'
loop_
_geom_angle_atom_site_label_1
_geom_angle_atom_site_label_2
_geom_angle_atom_site_label_3
_geom_angle_site_symmetry_1
_geom_angle
C7 O1 H1 . 116.3(12)
C4 O3 C8 . 118.25(7)
C12 N1 C16 . 117.89(8)
C6 C1 C2 . 118.62(8)
C6 C1 C7 . 120.51(8)
C2 C1 C7 . 120.87(8)
C3 C2 C1 . 121.11(8)
C3 C2 H2 . 119.4
C1 C2 H2 . 119.4
C2 C3 C4 . 119.79(8)
C2 C3 H3 . 120.1
C4 C3 H3 . 120.1
O3 C4 C5 . 124.92(8)
O3 C4 C3 . 115.24(8)
C5 C4 C3 . 119.84(8)
C6 C5 C4 . 119.59(8)
C6 C5 H5 . 120.2
C4 C5 H5 . 120.2
C1 C6 C5 . 121.02(8)
C1 C6 H6 . 119.5
C5 C6 H6 . 119.5
O2 C7 O1 . 124.00(9)
O2 C7 C1 . 123.57(8)
O1 C7 C1 . 112.43(8)
O3 C8 C9 . 107.37(7)
O3 C8 H8A . 110.2
C9 C8 H8A . 110.2
O3 C8 H8B . 110.2
C9 C8 H8B . 110.2
H8A C8 H8B . 108.5
C8 C9 C10 . 111.29(8)
C8 C9 H9A . 109.4
C10 C9 H9A . 109.4
C8 C9 H9B . 109.4
C10 C9 H9B . 109.4
H9A C9 H9B . 108.0
C9 C10 C11 . 113.13(8)
C9 C10 H10A . 109.0
C11 C10 H10A . 109.0
C9 C10 H10B . 109.0
C11 C10 H10B . 109.0
H10A C10 H10B . 107.8
C10 C11 H11A . 109.5
C10 C11 H11B . 109.5
H11A C11 H11B . 109.5
C10 C11 H11C . 109.5
H11A C11 H11C . 109.5
H11B C11 H11C . 109.5
N1 C12 C13 . 122.92(8)
N1 C12 H12 . 118.5
C13 C12 H12 . 118.5
C12 C13 C14 . 119.64(8)
C12 C13 H13 . 120.2
C14 C13 H13 . 120.2
C13 C14 C15 . 117.01(8)
C13 C14 C17 . 119.36(8)
C15 C14 C17 . 123.63(9)
C16 C15 C14 . 119.76(9)
C16 C15 H15 . 120.1
C14 C15 H15 . 120.1
N1 C16 C15 . 122.78(8)
N1 C16 H16 . 118.6
C15 C16 H16 . 118.6
C17 C17 C14 2_666 125.41(10)
C17 C17 H17 2_666 117.3
C14 C17 H17 . 117.3
loop_
_geom_bond_atom_site_label_1
_geom_bond_atom_site_label_2
_geom_bond_site_symmetry_2
_geom_bond_distance
O1 C7 . 1.3218(12)
O1 H1 . 1.03(2)
O2 C7 . 1.2167(12)
O3 C4 . 1.3637(12)
O3 C8 . 1.4392(11)
N1 C12 . 1.3363(13)
N1 C16 . 1.3433(13)
C1 C6 . 1.3901(13)
C1 C2 . 1.3969(14)
C1 C7 . 1.4923(13)
C2 C3 . 1.3805(13)
C2 H2 . 0.9500
C3 C4 . 1.3970(13)
C3 H3 . 0.9500
C4 C5 . 1.3940(13)
C5 C6 . 1.3919(13)
C5 H5 . 0.9500
C6 H6 . 0.9500
C8 C9 . 1.5138(13)
C8 H8A . 0.9900
C8 H8B . 0.9900
C9 C10 . 1.5240(13)
C9 H9A . 0.9900
C9 H9B . 0.9900
C10 C11 . 1.5251(14)
C10 H10A . 0.9900
C10 H10B . 0.9900
C11 H11A . 0.9800
C11 H11B . 0.9800
C11 H11C . 0.9800
C12 C13 . 1.3848(14)
C12 H12 . 0.9500
C13 C14 . 1.3965(13)
C13 H13 . 0.9500
C14 C15 . 1.3973(14)
C14 C17 . 1.4665(13)
C15 C16 . 1.3812(13)
C15 H15 . 0.9500
C16 H16 . 0.9500
C17 C17 2_666 1.3375(18)
C17 H17 . 0.9500
loop_
_geom_hbond_atom_site_label_D
_geom_hbond_atom_site_label_H
_geom_hbond_atom_site_label_A
_geom_hbond_site_symmetry_A
_geom_hbond_distance_DH
_geom_hbond_distance_HA
_geom_hbond_distance_DA
_geom_hbond_angle_DHA
_geom_hbond_publ_flag
O1 H1 N1 . 1.02(3) 1.57(3) 2.5912(18) 179(2) y
C11 H11C Cg 1_545 0.98 2.92 3.800(2) 150 y
loop_
_geom_torsion_atom_site_label_1
_geom_torsion_atom_site_label_2
_geom_torsion_atom_site_label_3
_geom_torsion_atom_site_label_4
_geom_torsion_site_symmetry_4
_geom_torsion
C6 C1 C2 C3 . -0.99(13)
C7 C1 C2 C3 . 178.60(7)
C1 C2 C3 C4 . 1.67(13)
C8 O3 C4 C5 . -0.63(13)
C8 O3 C4 C3 . 179.14(7)
C2 C3 C4 O3 . 179.19(7)
C2 C3 C4 C5 . -1.03(13)
O3 C4 C5 C6 . 179.50(7)
C3 C4 C5 C6 . -0.26(13)
C2 C1 C6 C5 . -0.33(13)
C7 C1 C6 C5 . -179.92(7)
C4 C5 C6 C1 . 0.95(13)
C6 C1 C7 O2 . -4.16(13)
C2 C1 C7 O2 . 176.26(8)
C6 C1 C7 O1 . 176.40(7)
C2 C1 C7 O1 . -3.18(12)
C4 O3 C8 C9 . 177.82(7)
O3 C8 C9 C10 . -177.05(7)
C8 C9 C10 C11 . 179.13(7)
C16 N1 C12 C13 . 0.69(13)
N1 C12 C13 C14 . -0.95(14)
C12 C13 C14 C15 . 0.29(13)
C12 C13 C14 C17 . -179.66(7)
C13 C14 C15 C16 . 0.56(13)
C17 C14 C15 C16 . -179.49(8)
C12 N1 C16 C15 . 0.23(13)
C14 C15 C16 N1 . -0.86(14)
C13 C14 C17 C17 2_666 172.64(10)
C15 C14 C17 C17 2_666 -7.31(17)

_cod_database_fobs_code 2241909
