#------------------------------------------------------------------------------
#$Date: 2015-11-19 04:01:29 +0200 (Thu, 19 Nov 2015) $
#$Revision: 170403 $
#$URL: svn://www.crystallography.net/cod/cif/2/24/13/2241325.cif $
#------------------------------------------------------------------------------
#
# This file is available in the Crystallography Open Database (COD),
# http://www.crystallography.net/. The original data for this entry
# were provided by IUCr Journals, http://journals.iucr.org/.
#
# The file may be used within the scientific community so long as
# proper attribution is given to the journal article from which the
# data were obtained.
#
data_2241325
loop_
_publ_author_name
'McAdam, C. John'
'Hanton, Lyall R.'
'Moratti, Stephen C.'
'Simpson, Jim'
_publ_section_title
;
 Crystal structures of two bis(iodomethyl)benzene derivatives:
 similarities and differences in the crystal packing
;
_journal_coeditor_code           SU5235
_journal_issue                   12
_journal_name_full               'Acta Crystallographica Section E'
_journal_page_first              1505
_journal_page_last               1509
_journal_paper_doi               10.1107/S2056989015021295
_journal_volume                  71
_journal_year                    2015
_chemical_formula_iupac          'C8 H8 I2'
_chemical_formula_moiety         'C8 H8 I2'
_chemical_formula_sum            'C8 H8 I2'
_chemical_formula_weight         357.94
_chemical_name_systematic
;
1,3-Bis(iodomethyl)benzene
;
_space_group_crystal_system      monoclinic
_space_group_IT_number           14
_space_group_name_Hall           '-P 2yn'
_space_group_name_H-M_alt        'P 1 21/n 1'
_symmetry_space_group_name_Hall  '-P 2yn'
_symmetry_space_group_name_H-M   'P 1 21/n 1'
_atom_sites_solution_hydrogens   geom
_audit_creation_method           SHELXL-2014/7
_cell_angle_alpha                90
_cell_angle_beta                 95.2030(10)
_cell_angle_gamma                90
_cell_formula_units_Z            4
_cell_length_a                   13.5323(3)
_cell_length_b                   4.54640(10)
_cell_length_c                   15.6269(4)
_cell_measurement_temperature    90(2)
_cell_measurement_theta_max      32.97
_cell_measurement_theta_min      2.62
_cell_volume                     957.46(4)
_computing_cell_refinement
;
APEX2 and SAINT (Bruker, 2013)
;
_computing_data_collection
;
APEX2 (Bruker, 2013)
;
_computing_data_reduction
;
SAINT (Bruker, 2013)
;
_computing_molecular_graphics
;
Mercury (Macrae <i>et al.</i>,  2008)
;
_computing_publication_material
;
SHELXL2014 (Sheldrick, 2015b), enCIFer (Allen <i>et al.</i>,
2004),
PLATON (Spek, 2009),  publCIF (Westrip, 2010) and WinGX
(Farrugia, 2012)
;
_computing_structure_refinement
;
SHELXL2014 (Sheldrick, 2015b) and <i>TITAN2000</i> (Hunter & Simpson,
1999)
;
_computing_structure_solution
;
SHELXT (Sheldrick, 2015a)
;
_diffrn_ambient_temperature      90(2)
_diffrn_measured_fraction_theta_full 0.998
_diffrn_measured_fraction_theta_max 0.924
_diffrn_measurement_device_type  'Bruker APEXII CCD area-detector'
_diffrn_measurement_method       '\w scans'
_diffrn_radiation_type           MoK\a
_diffrn_radiation_wavelength     0.71073
_diffrn_reflns_av_R_equivalents  0.0332
_diffrn_reflns_limit_h_max       20
_diffrn_reflns_limit_h_min       -20
_diffrn_reflns_limit_k_max       5
_diffrn_reflns_limit_k_min       -6
_diffrn_reflns_limit_l_max       24
_diffrn_reflns_limit_l_min       -23
_diffrn_reflns_number            16804
_diffrn_reflns_theta_full        25.242
_diffrn_reflns_theta_max         33.440
_diffrn_reflns_theta_min         3.023
_diffrn_standards_number         0
_exptl_absorpt_coefficient_mu    6.499
_exptl_absorpt_correction_T_max  1.000000
_exptl_absorpt_correction_T_min  0.569306
_exptl_absorpt_correction_type   multi-scan
_exptl_absorpt_process_details
;
(SADABS; Bruker, 2013)
;
_exptl_crystal_colour            colourless
_exptl_crystal_density_diffrn    2.483
_exptl_crystal_density_method    'not measured'
_exptl_crystal_description       needle
_exptl_crystal_F_000             648
_exptl_crystal_size_max          0.450
_exptl_crystal_size_mid          0.060
_exptl_crystal_size_min          0.050
_refine_diff_density_max         1.237
_refine_diff_density_min         -0.767
_refine_ls_extinction_method     none
_refine_ls_goodness_of_fit_ref   1.064
_refine_ls_hydrogen_treatment    constr
_refine_ls_matrix_type           full
_refine_ls_number_parameters     91
_refine_ls_number_reflns         3435
_refine_ls_number_restraints     0
_refine_ls_restrained_S_all      1.064
_refine_ls_R_factor_all          0.0325
_refine_ls_R_factor_gt           0.0239
_refine_ls_shift/su_max          0.002
_refine_ls_shift/su_mean         0.000
_refine_ls_structure_factor_coef Fsqd
_refine_ls_weighting_details
'w=1/[\s^2^(Fo^2^)+(0.0109P)^2^+1.4343P] where P=(Fo^2^+2Fc^2^)/3'
_refine_ls_weighting_scheme      calc
_refine_ls_wR_factor_gt          0.0445
_refine_ls_wR_factor_ref         0.0477
_reflns_number_gt                2826
_reflns_number_total             3435
_reflns_threshold_expression     'I > 2\s(I)'
_cod_data_source_file            su5235sup1.cif
_cod_data_source_block           II
_cod_database_code               2241325
_shelx_space_group_comment
;
The symmetry employed for this shelxl refinement is uniquely defined
by the following loop, which should always be used as a source of
symmetry information in preference to the above space-group names.
They are only intended as comments.
;
_shelx_estimated_absorpt_t_min   0.158
_shelx_estimated_absorpt_t_max   0.737
_shelx_hkl_file
;
   1   0   0   -0.59    0.26
  -1   0   0   -1.22    0.18
   2   0   0 1020.95   27.65
  -2   0   0 1073.03   26.61
   3   0   0    0.50    0.54
  -3   0   0    0.71    0.49
   3   0   0    0.05    0.40
  -3   0   0    1.17    0.74
  -4   0   0  363.43   11.91
   4   0   0  340.86   12.04
   4   0   0  350.97   11.49
  -4   0   0  359.46   14.15
  -4   0   0  350.28   11.94
   5   0   0    0.44    0.46
  -5   0   0   -0.33    0.71
  -5   0   0    0.26    0.48
  -5   0   0    0.21    0.47
   5   0   0    0.13    0.39
   6   0   0  517.71   17.54
   6   0   0  563.23   19.15
  -6   0   0  558.89   21.87
  -6   0   0  591.94   19.40
  -6   0   0  554.72   18.45
  -7   0   0   -1.79    1.23
   7   0   0   -2.43    0.84
  -7   0   0   -0.20    1.21
   7   0   0   -2.49    0.59
  -8   0   0   35.85    5.60
   8   0   0   44.14    4.63
  -8   0   0   44.95    6.81
   8   0   0   47.82    4.41
  -9   0   0   -1.43    0.73
   9   0   0    0.70    0.63
   9   0   0    0.89    0.82
  -9   0   0   -0.33    0.63
 -10   0   0   68.00    9.42
  10   0   0   60.25    5.54
 -10   0   0   75.09    7.56
  11   0   0    0.75    0.90
  11   0   0    0.69    0.78
 -11   0   0   -0.39    0.78
 -11   0   0    1.03    1.20
 -12   0   0  902.96   35.11
  12   0   0  904.23   31.36
  12   0   0  884.20   31.01
 -12   0   0  906.55   39.60
 -13   0   0    3.69    1.72
 -13   0   0    1.95    1.37
  13   0   0    6.58    2.01
  13   0   0    2.87    1.15
  14   0   0 1855.74   54.40
 -14   0   0 1739.31   59.90
 -14   0   0 1786.80   67.68
  14   0   0 1757.94   53.99
  15   0   0    3.78    1.50
 -15   0   0    5.81    1.96
  15   0   0    0.77    1.47
 -15   0   0    2.66    1.75
 -16   0   0  212.88   19.21
  16   0   0  240.42   15.31
 -16   0   0  223.85   17.53
  17   0   0   -0.48    1.80
 -17   0   0    4.37    1.91
 -17   0   0   -2.71    1.70
 -18   0   0   79.93   14.48
 -18   0   0   88.92   16.33
 -19   0   0    0.32    5.06
 -19   0   0   -1.73    3.72
   0   1   0    0.48    0.55
   0  -1   0    0.24    0.32
   0   1   0   -0.05    0.51
   0  -1   0    1.38    0.71
   0  -1   0    1.45    0.62
   0  -1   0   -0.22    0.25
   0  -1   0    0.01    0.34
   0   1   0    0.62    0.83
   0   1   0    0.47    0.72
   0   1   0    1.84    0.83
   0   1   0    0.39    0.44
   0  -1   0    0.80    0.50
   1   1   0 1262.22   36.06
   1  -1   0 1474.04   36.61
   1   1   0 1512.33   34.59
   1  -1   0 1467.02   34.86
  -1  -1   0 1440.64   35.62
  -1   1   0 1488.83   36.00
  -1   1   0 1480.89   37.47
   1   1   0 1484.84   35.17
  -1   1   0 1465.31   36.16
   1   1   0 1446.84   37.55
   1  -1   0 1340.13   37.10
  -1   1   0 1229.09   35.24
  -1   1   0 1402.45   34.38
  -1  -1   0 1456.74   35.94
  -1  -1   0 1481.45   34.68
   1  -1   0 1307.44   35.73
   1  -1   0 1450.66   36.13
   1   1   0 1450.91   37.18
   2   1   0 4622.25  114.18
  -2  -1   0 4542.80  123.36
  -2   1   0 4807.06  109.06
  -2  -1   0 4720.00  114.16
   2  -1   0 4857.60  107.18
  -2   1   0 4766.70  113.66
   2   1   0 4825.83  109.08
   2  -1   0 4728.37  110.05
   2  -1   0 4755.28  113.30
   2   1   0 4753.31  113.13
  -2  -1   0 4617.20  107.90
  -2   1   0 4845.70  123.69
   2   1   0 4880.42  108.18
  -2   1   0 4872.53  109.57
   3  -1   0 1859.46   47.64
   3   1   0 1867.40   47.39
  -3  -1   0 1922.11   46.59
  -3  -1   0 1808.49   53.02
   3   1   0 1894.77   52.66
  -3   1   0 1851.21   50.00
  -3   1   0 1840.48   46.23
   3   1   0 1910.36   46.54
  -3  -1   0 1815.04   47.91
   3  -1   0 1877.72   51.00
   3  -1   0 1836.85   47.18
   4   1   0 1460.01   36.36
  -4  -1   0 1438.21   44.46
   4  -1   0 1458.34   38.97
   4  -1   0 1438.18   39.50
  -4   1   0 1475.47   39.99
   4  -1   0 1468.98   40.46
  -4   1   0 1496.95   37.05
   4  -1   0 1377.65   37.23
   4   1   0 1468.25   38.32
  -4  -1   0 1420.95   39.31
   4   1   0 1493.87   39.17
   5  -1   0  731.78   21.21
   5   1   0  706.29   18.87
   5  -1   0  696.81   22.76
  -5  -1   0  685.81   22.67
   5  -1   0  735.13   21.83
  -5  -1   0  706.12   26.90
   5   1   0  739.29   21.98
   5  -1   0  704.43   23.53
   6   1   0   31.94    2.95
   6  -1   0   26.87    4.32
   6  -1   0   30.31    2.63
  -6  -1   0   28.83    5.51
  -6  -1   0   26.56    4.00
   6  -1   0   35.10    4.92
   6  -1   0   29.47    3.44
   7  -1   0   11.72    2.53
   7  -1   0   10.56    2.02
   7  -1   0    6.25    1.96
   7   1   0   12.92    2.41
   7   1   0   10.09    1.55
  -7  -1   0   10.38    3.25
  -7  -1   0   12.41    3.01
   7  -1   0   10.42    2.77
   8  -1   0    4.12    1.11
   8  -1   0    2.74    0.99
  -8  -1   0    4.66    1.58
   8  -1   0    3.10    1.66
   8   1   0    2.88    1.02
   8  -1   0    1.74    0.92
  -8  -1   0    2.89    1.87
   9  -1   0  125.26    7.97
   9  -1   0  110.63    8.46
   9  -1   0  119.10    7.06
  -9  -1   0  111.67   10.91
  -9  -1   0  108.18    8.66
   9   1   0  101.83    6.87
   9  -1   0  108.97    8.73
   9   1   0  114.41    6.07
  10  -1   0  556.32   23.71
  10   1   0  542.14   18.05
  10  -1   0  574.98   21.88
  10   1   0  546.90   20.84
  10  -1   0  570.02   23.21
 -10  -1   0  545.89   23.83
 -10  -1   0  553.00   28.48
  10  -1   0  564.36   20.77
  11  -1   0  591.40   21.49
  11   1   0  544.55   18.77
  11  -1   0  586.81   22.80
  11  -1   0  536.31   24.13
 -11  -1   0  520.97   24.42
  11  -1   0  556.61   23.86
 -11  -1   0  561.83   29.82
  11   1   0  544.00   21.82
  12  -1   0  418.07   21.16
  12   1   0  451.96   19.77
  12   1   0  469.51   17.20
  12  -1   0  432.07   21.83
 -12  -1   0  464.91   27.60
 -12  -1   0  451.37   22.97
  12  -1   0  494.39   19.01
  12  -1   0  463.41   20.40
 -12   1   0  440.62   24.32
  13   1   0  105.97    8.45
  13   1   0   94.72    6.46
  13  -1   0   78.75   10.14
 -13  -1   0   83.77   10.88
 -13  -1   0   92.70   13.93
 -13   1   0  108.43   11.19
  13  -1   0  127.07    9.44
  13  -1   0   84.74   10.20
 -14   1   0   16.37    4.69
  14  -1   0   16.05    4.16
 -14  -1   0   18.41    4.78
  14  -1   0   20.80    4.50
 -14   1   0   22.57    6.11
  14  -1   0   14.71    2.83
 -15  -1   0  215.03   16.57
  15  -1   0  211.02   15.58
 -15   1   0  213.29   17.13
  15  -1   0  231.42   16.08
 -15   1   0  213.77   17.87
  15   1   0  231.48   13.20
 -15  -1   0  225.77   20.41
 -16  -1   0  465.73   27.03
 -16   1   0  444.35   28.61
 -16   1   0  486.27   27.82
  16  -1   0  446.09   24.23
  16  -1   0  464.92   25.19
 -16  -1   0  502.08   33.17
 -17  -1   0  299.84   21.94
 -17   1   0  336.27   23.33
  17  -1   0  361.42   21.30
  17  -1   0  333.84   21.18
 -17  -1   0  355.41   29.15
 -17   1   0  332.31   25.82
 -18  -1   0  289.10   27.05
 -18   1   0  236.63   21.07
 -18  -1   0  230.15   20.83
 -18   1   0  251.63   23.90
  18  -1   0  236.55   17.62
 -19  -1   0   46.06   11.42
 -19   1   0   39.99   10.32
 -19   1   0   54.20   13.51
 -19  -1   0   37.23   11.80
   0  -2   0  158.31    8.45
   0   2   0  148.84    8.14
   0   2   0  148.00    8.69
   0  -2   0  141.68    8.34
   0  -2   0  147.79    8.52
   0  -2   0  143.74    9.39
   0   2   0  147.13    8.10
   0  -2   0  150.97    8.20
   0  -2   0  161.39    9.02
   1  -2   0 4862.54  114.27
  -1  -2   0 4844.04  114.72
   1   2   0 4921.31  111.26
   1  -2   0 4775.74  114.10
  -1   2   0 4671.10  116.40
  -1  -2   0 4616.27  118.83
   1  -2   0 4704.02  117.98
   1  -2   0 4844.39  111.61
  -1  -2   0 4718.36  112.35
   1  -2   0 5015.07  114.35
   1  -2   0 4852.33  117.41
   1   2   0 4643.17  113.02
  -1  -2   0 4848.46  111.70
   2  -2   0   41.37    5.46
  -2  -2   0   37.25    3.17
   2  -2   0   36.31    5.08
  -2  -2   0   36.07    4.87
  -2   2   0   43.63    3.92
   2  -2   0   48.50    4.17
  -2  -2   0   29.40    4.98
  -2  -2   0   44.89    4.27
   2  -2   0   41.21    3.85
   2   2   0   45.81    3.75
   3  -2   0  256.47   12.86
   3   2   0  257.06   11.04
   3   2   0  259.35    9.47
  -3   2   0  250.44   11.98
  -3  -2   0  255.45   13.65
   3  -2   0  255.14   10.84
   3  -2   0  257.17   10.88
  -3  -2   0  243.62   12.18
  -3  -2   0  245.70   11.65
   3  -2   0  254.53   12.95
  -4   2   0   58.93    4.35
  -4  -2   0   51.44    6.22
  -4   2   0   51.10    4.56
  -4  -2   0   55.71    5.19
  -4  -2   0   62.54    7.36
   4  -2   0   54.83    4.22
   4  -2   0   61.54    4.51
   4   2   0   60.39    3.56
   4  -2   0   56.00    6.65
   4  -2   0   46.70    6.23
  -5   2   0  742.01   24.28
  -5   2   0  757.28   22.40
  -5  -2   0  752.58   26.34
   5  -2   0  757.53   22.90
   5   2   0  779.15   19.62
  -5  -2   0  739.05   26.45
   5  -2   0  779.13   22.62
   5  -2   0  729.74   27.17
  -6   2   0    6.35    1.86
   6  -2   0    7.02    1.48
   6  -2   0    5.80    2.43
  -6  -2   0    6.56    2.86
  -6  -2   0    5.83    2.07
   6  -2   0    5.13    1.33
   6  -2   0    5.57    2.26
  -6   2   0    4.00    1.42
   7  -2   0   84.71    5.10
   7  -2   0   81.25    4.96
   7  -2   0   90.74    8.29
  -7  -2   0   87.00   11.22
   7   2   0   81.89    5.96
   7  -2   0   65.23    8.37
  -7  -2   0   83.45    7.55
  -8  -2   0    2.28    2.08
   8  -2   0   -0.59    0.78
   8  -2   0    0.24    0.56
   8  -2   0    0.60    1.38
   8   2   0    0.73    0.77
  -8  -2   0    1.10    1.04
   8  -2   0    2.22    0.71
   9  -2   0  172.05   12.78
   9  -2   0  188.55   13.68
  -9  -2   0  196.87   16.30
  -9  -2   0  172.47   12.45
   9   2   0  186.31    9.81
 -10  -2   0   10.89    2.88
  10  -2   0   11.16    2.19
  10   2   0    8.66    2.03
  10  -2   0    3.13    1.72
  10  -2   0    7.54    2.77
 -10  -2   0    3.49    1.71
  11  -2   0  112.41   10.79
  11  -2   0  115.00   11.21
 -11  -2   0  138.73   14.69
 -11  -2   0  128.72   11.36
  11  -2   0  133.69    7.76
  11   2   0  117.36    7.72
  12  -2   0   17.67    4.54
 -12  -2   0   21.72    5.03
  12  -2   0   22.51    5.21
  12   2   0   17.98    3.12
 -12  -2   0   25.23    7.57
 -13  -2   0 1138.89   45.59
  13   2   0 1192.87   38.15
  13  -2   0 1201.49   46.01
  13  -2   0 1128.23   44.63
 -13  -2   0 1087.65   53.30
  14  -2   0    6.78    2.31
  14  -2   0   15.79    3.89
 -14  -2   0   20.46    5.04
 -14  -2   0    6.72    2.78
 -15   2   0  927.42   43.36
  15  -2   0  874.88   39.80
  15  -2   0  884.35   40.31
 -15  -2   0  958.45   51.09
 -15  -2   0 1012.45   43.95
 -16   2   0    1.13    1.61
 -16  -2   0   -0.47    2.25
 -16  -2   0    1.65    2.27
  16  -2   0   -0.94    1.94
 -16   2   0    0.79    2.34
  16  -2   0    3.20    2.40
 -17  -2   0    2.34    3.88
  17  -2   0    3.05    2.56
 -17   2   0    1.38    5.08
  17  -2   0    0.13    2.48
 -17  -2   0   -0.45    3.78
 -17   2   0   -0.49    3.11
 -18   2   0    7.10    5.30
 -18  -2   0    0.93    4.96
 -18  -2   0    0.10    4.81
  18  -2   0    0.20    4.01
 -18   2   0   -2.71    3.62
  18  -2   0    1.30    4.61
  19  -2   0  128.80   18.36
 -19  -2   0  123.53   20.02
   0  -3   0    0.75    0.86
   0  -3   0    0.28    0.81
   0  -3   0   -0.05    0.62
   0  -3   0    0.80    0.77
   1  -3   0  516.75   22.76
  -1  -3   0  483.00   22.84
   1  -3   0  441.59   19.89
  -1  -3   0  474.78   19.46
   1  -3   0  473.32   20.82
   1  -3   0  482.80   19.99
  -1  -3   0  501.97   19.37
  -1  -3   0  474.25   20.54
  -2  -3   0  619.59   27.05
   2  -3   0  624.78   23.60
  -2  -3   0  588.06   24.05
   2  -3   0  609.12   24.77
   2  -3   0  586.11   24.68
   2  -3   0  618.73   23.22
  -2  -3   0  622.77   21.60
  -2  -3   0  631.11   23.67
   3  -3   0 1838.98   50.17
  -3  -3   0 1790.15   52.65
  -3  -3   0 1745.61   56.63
  -3  -3   0 1748.63   51.67
   3  -3   0 1805.85   54.18
   3  -3   0 1799.37   54.02
   3  -3   0 1757.11   51.18
  -4  -3   0  616.91   24.47
   4   3   0  584.21   19.34
   4  -3   0  618.91   22.52
   4  -3   0  657.33   26.91
   4  -3   0  576.97   25.70
   4  -3   0  626.35   22.61
  -4  -3   0  602.27   25.24
  -4  -3   0  621.86   27.91
   5  -3   0  345.92   19.26
  -5  -3   0  364.37   18.67
   5  -3   0  326.79   18.84
   5  -3   0  369.60   15.48
   5  -3   0  367.08   15.63
  -5  -3   0  343.06   20.13
   5   3   0  343.82   12.49
  -5  -3   0  367.24   17.71
   6  -3   0   11.26    2.19
   6  -3   0   15.15    3.07
   6  -3   0   19.85    5.06
  -6  -3   0   15.77    3.59
   6  -3   0   13.99    3.96
  -6  -3   0   19.70    5.16
   7  -3   0    4.14    1.04
   7  -3   0    7.84    1.59
   7  -3   0   13.44    4.30
   7  -3   0    6.11    2.46
  -7  -3   0   15.60    4.51
   8  -3   0    4.57    2.37
   8  -3   0    8.65    2.80
  -8  -3   0   11.55    3.92
   8  -3   0    3.64    1.10
   8  -3   0    6.23    1.30
  -8  -3   0    7.03    2.21
   9  -3   0   48.04    8.61
   9   3   0   51.04    4.93
   9  -3   0   60.32    4.41
   9  -3   0   45.09    8.18
  -9  -3   0   45.48    7.94
   9  -3   0   56.50    4.67
  -9  -3   0   44.05    8.80
  10  -3   0  208.00   16.35
  10   3   0  181.43   10.55
 -10  -3   0  186.79   14.92
  10  -3   0  184.79   15.57
  11  -3   0  529.44   28.77
 -11  -3   0  510.59   27.80
  11   3   0  491.40   19.90
  11  -3   0  461.68   26.92
 -12  -3   0   90.23   12.93
  12  -3   0  103.94   13.95
 -12  -3   0  111.51   17.87
  12  -3   0  105.44   14.33
 -13  -3   0   86.20   16.36
  13  -3   0   85.35   13.03
 -13  -3   0  108.77   14.87
  13  -3   0   92.81   13.30
  14  -3   0   -1.84    1.84
 -14  -3   0   -2.50    2.44
 -14  -3   0    2.31    2.39
  14  -3   0    1.11    1.95
  15  -3   0  219.02   19.52
 -15  -3   0  222.86   19.62
 -15  -3   0  196.25   27.61
  15  -3   0  237.38   20.01
 -16  -3   0  201.68   28.72
 -16  -3   0  178.40   22.10
  16  -3   0  213.04   22.57
  16  -3   0  171.79   20.57
 -17  -3   0  352.05   35.34
  17  -3   0  353.68   27.67
 -17   3   0  342.51   26.68
  17  -3   0  342.64   27.32
 -17  -3   0  437.50   32.55
  18  -3   0  107.08   16.99
  18  -3   0  123.17   18.68
 -18  -3   0   72.23   16.63
   0  -4   0 2751.78   82.66
   0  -4   0 2773.13   76.38
   0  -4   0 2739.05   75.71
   0  -4   0 2617.02   75.93
   1  -4   0  102.68    9.29
  -1  -4   0   91.46   12.03
  -1  -4   0  105.44    9.84
  -1  -4   0  101.71    8.86
  -1  -4   0   95.36    8.35
   1  -4   0   96.49    9.23
   2  -4   0  679.29   29.21
   2  -4   0  669.64   27.54
  -2  -4   0  618.51   31.17
  -2  -4   0  662.68   28.95
  -2  -4   0  652.84   27.12
   3  -4   0    0.33    1.29
   3  -4   0    0.72    1.15
  -3  -4   0   -1.46    1.13
   3  -4   0    0.56    1.09
  -3  -4   0    1.00    1.32
  -3  -4   0   -0.32    1.13
   4  -4   0   68.46   10.57
   4  -4   0   63.93    8.06
  -4  -4   0   82.29   12.25
  -4  -4   0   68.97    9.02
   4  -4   0   68.13   10.04
  -4  -4   0   64.35    9.90
  -5  -4   0   11.29    3.21
   5  -4   0   11.45    4.01
   5  -4   0   15.11    4.38
   5  -4   0    6.98    1.84
  -5  -4   0   17.14    5.05
  -5  -4   0    5.41    2.15
   6  -4   0  142.10   10.02
  -6  -4   0  140.71   11.56
   6  -4   0  153.01   13.82
  -6  -4   0  123.77   15.32
   6  -4   0  136.28   12.84
   7  -4   0    6.16    1.39
  -7  -4   0   15.34    4.42
   7  -4   0   10.62    3.41
  -7  -4   0   25.38    5.38
   7  -4   0    9.85    3.30
   8  -4   0    2.01    1.65
   8  -4   0   14.95    2.73
  -8  -4   0    4.84    1.76
   8  -4   0    8.54    3.04
  -8  -4   0   12.35    4.07
   9  -4   0    5.43    3.37
  -9  -4   0    4.22    2.49
   9  -4   0   -0.03    2.12
  -9  -4   0    4.02    2.25
  10  -4   0    6.18    2.57
  10  -4   0    5.89    2.70
 -10  -4   0    7.20    3.65
 -10  -4   0   10.55    3.16
 -11  -4   0    0.82    2.24
 -11  -4   0    5.20    2.56
  11  -4   0    3.19    2.14
  11  -4   0    0.86    1.94
  12  -4   0  291.41   23.13
 -12  -4   0  223.76   18.49
  12  -4   0  254.07   21.39
 -12  -4   0  272.24   24.87
  13  -4   0   54.31   12.39
  13  -4   0   35.31    9.41
 -13  -4   0   34.19   11.50
 -13  -4   0   37.40    7.38
  14  -4   0  659.74   39.27
 -14  -4   0  607.62   36.41
 -14  -4   0  626.06   44.46
  14  -4   0  682.64   39.92
 -15  -4   0    9.75    6.98
  15  -4   0   14.57    6.69
  15  -4   0   12.27    7.07
  16  -4   0  156.99   22.01
   0  -5   0    2.17    1.81
   0  -5   0    0.95    1.50
   0  -5   0   -1.04    1.66
   1  -5   0   41.10    7.19
  -1  -5   0   42.95    9.04
   1  -5   0   68.94   10.19
  -1  -5   0   49.15    8.69
  -2  -5   0  708.43   34.17
  -2  -5   0  655.60   36.08
   2  -5   0  787.57   35.38
  -2  -5   0  778.37   32.49
   2  -5   0  775.96   33.41
  -3  -5   0  240.02   19.68
   3  -5   0  259.98   17.02
  -3  -5   0  271.68   17.27
  -3  -5   0  235.02   18.27
   3  -5   0  262.01   18.83
   4  -5   0  292.42   20.73
  -4  -5   0  350.59   24.94
   4  -5   0  328.99   19.06
  -4  -5   0  325.27   19.63
  -5  -5   0   35.18    6.46
   5  -5   0   30.94    7.07
  -5  -5   0   35.98    7.93
   5  -5   0   27.86    5.12
   5  -5   0   40.39    8.74
   6  -5   0   15.60    3.32
   6  -5   0   10.50    2.00
  -6  -5   0   13.41    2.76
   6  -5   0   15.04    4.81
  -6  -5   0    3.79    2.22
  -7  -5   0   -1.82    2.32
   7  -5   0   -1.38    1.98
  -7  -5   0   -0.20    2.21
   7  -5   0    1.26    2.11
   8  -5   0    3.07    2.12
   8  -5   0    2.23    1.94
  -8  -5   0   -2.32    2.54
  -8  -5   0    2.48    2.53
   9  -5   0   26.51    8.76
   9  -5   0   33.50    8.72
  -9  -5   0   15.54    4.33
  -9  -5   0   28.28    7.14
  10  -5   0  134.53   19.74
 -10  -5   0  145.04   13.85
 -10  -5   0  118.04   20.34
  10  -5   0  145.11   20.07
  11  -5   0   66.72   13.68
 -11  -5   0   73.17   10.25
  11  -5   0   64.22   14.05
 -11  -5   0   75.46   16.82
  12  -5   0  176.15   22.81
 -12  -5   0  119.79   15.50
 -12  -5   0  133.92   22.87
  12  -5   0  163.73   22.89
  13  -5   0   16.57    8.55
   1  -6   0  557.91   30.78
  -2  -6   0   10.35    5.36
   2  -6   0    3.90    2.63
   2  -6   0    2.85    2.46
   3  -6   0   21.10    3.86
   3  -6   0   15.91    3.36
  -3  -6   0   28.56    8.60
   4  -6   0    2.31    2.54
   4  -6   0    2.47    4.11
  -4  -6   0    1.30    4.89
   5  -6   0  103.19   16.71
  -5  -6   0  130.82   20.37
  -6  -6   0   16.58    7.39
   6  -6   0   17.83    7.72
  -7  -6   0    3.79    4.60
   7  -6   0    9.51    5.63
   8  -6   0   -2.23    3.84
  -8  -6   0    3.68    5.25
 -19   0   1  143.11   20.96
 -19   0   1  176.62   20.66
  18   0  -1    1.12    2.31
 -18   0   1   -0.89    3.44
 -18   0   1    0.23    3.09
  17   0  -1    1.37    1.95
 -17   0   1    3.42    2.38
 -17   0   1    2.20    1.89
  16   0  -1   -0.53    1.70
 -16   0   1   -0.04    1.80
  16   0  -1    0.97    1.48
 -16   0   1    1.49    1.64
 -15   0   1  126.29   12.31
  15   0  -1  132.75   10.64
  15   0  -1  133.61    9.87
 -15   0   1  117.55   15.15
 -14   0   1    1.59    1.40
 -14   0   1    2.36    1.28
  14   0  -1    0.13    1.30
  14   0  -1    0.69    1.31
 -13   0   1  399.43   24.75
  13   0  -1  376.51   18.02
 -13   0   1  431.54   22.65
  13   0  -1  395.43   19.17
  12   0  -1    3.62    1.58
 -12   0   1    5.16    2.03
 -12   0   1    5.83    2.54
 -11   0   1 1574.63   56.05
 -11   0   1 1589.10   51.63
  11   0  -1 1544.03   50.10
  11   0  -1 1592.95   45.90
 -10   0   1    2.66    1.68
 -10   0   1   -0.14    0.97
  10   0  -1   -0.63    0.70
  10   0  -1    0.92    0.98
   9   0  -1  105.74    7.24
  -9   0   1   94.40    9.04
   9   0  -1   96.43    7.61
   8   0  -1   -0.31    0.75
   8   0  -1   -0.64    0.59
   8   0  -1   -0.47    0.52
  -8   0   1    2.46    1.31
  -7   0   1 3744.23  106.70
   7   0  -1 3803.28   92.82
  -7   0   1 4149.50   96.63
   7   0  -1 4023.42   90.02
   7   0  -1 3837.27  101.70
  -6   0   1    2.74    1.39
  -6   0   1    4.53    1.89
   6   0  -1    4.30    1.27
  -5   0   1 3098.69   87.45
   5   0  -1 3373.17   74.44
   5   0  -1 3223.12   83.77
   5   0  -1 3263.10   76.77
  -5   0   1 3347.50   79.54
  -5   0   1 3249.16   83.97
   4   0  -1   -0.16    0.32
  -4   0   1    0.91    0.56
   4   0  -1    1.14    0.63
  -4   0   1    0.11    0.68
  -4   0   1    0.79    0.67
   4   0  -1    0.78    0.53
  -3   0   1  494.03   14.02
   3   0  -1  498.45   14.17
   3   0  -1  502.85   13.22
  -3   0   1  513.48   15.80
   3   0  -1  502.36   15.53
   2   0  -1    2.12    1.56
   0   0   1   -0.03    0.07
   0   0  -1   -0.03    0.05
   0   0  -1    0.05    0.07
   0   0   1    0.00    0.05
   2   0   1    0.17    0.23
  -2   0  -1    2.40    0.68
   2   0   1    0.32    0.27
   2   0   1    0.05    0.29
   2   0   1   -0.12    0.15
  -2   0  -1    1.46    0.53
   3   0   1 2318.77   54.33
  -3   0  -1 2170.42   58.75
   3   0   1 2371.99   57.33
  -3   0  -1 2327.26   57.99
  -3   0  -1 2461.90   57.09
   4   0   1    1.31    0.79
  -4   0  -1   -0.45    0.78
  -4   0  -1    3.14    1.33
   4   0   1   -0.11    0.56
  -4   0  -1   -0.58    0.68
  -5   0  -1  279.62   10.77
   5   0   1  256.12   10.62
  -5   0  -1  266.36   11.53
  -5   0  -1  250.46    9.89
  -6   0  -1    3.23    1.19
   6   0   1    0.15    0.43
  -6   0  -1    1.99    1.12
  -6   0  -1    0.70    1.24
  -6   0  -1   -0.22    0.38
  -7   0  -1 4128.04  106.92
   7   0   1 4356.20   99.69
  -7   0  -1 4217.16  115.81
  -8   0  -1   -0.03    0.82
   8   0   1    0.16    0.66
  -9   0  -1 2470.33   69.74
  -9   0  -1 2477.92   76.34
   9   0   1 2537.13   65.15
   9   0   1 2529.65   64.10
  11   0   1   79.89    6.98
  11   0   1   82.13    6.87
 -11   0  -1   68.75   10.39
 -11   0  -1   96.65    8.82
  12   0   1    2.08    1.07
 -12   0  -1    0.49    1.06
  12   0   1    0.60    0.98
 -12   0  -1    1.20    1.31
 -13   0  -1  242.97   18.87
  13   0   1  232.26   13.44
  13   0   1  214.02   13.16
 -13   0  -1  246.42   16.31
  14   0   1   -0.53    1.27
 -14   0  -1    1.32    1.42
 -14   0  -1    1.21    1.39
  14   0   1    3.19    1.38
 -15   0  -1  134.29   12.73
  15   0   1  120.35    9.90
 -15   0  -1  140.86   15.04
  15   0   1  129.78   10.13
  16   0   1    3.83    1.61
 -16   0  -1    6.62    3.09
 -16   0  -1    2.00    1.82
 -17   0  -1   83.49   14.95
 -17   0  -1   69.31   11.88
 -18   0  -1    6.37    5.03
 -18   0  -1    1.13    3.81
 -19   0  -1   22.35    8.52
 -19   0  -1   31.27    9.62
 -19  -1   1    8.51    6.16
  19  -1  -1    3.37    4.37
 -19   1   1    6.84    5.64
 -19  -1   1    2.46    5.37
 -19   1   1    5.03    4.72
  18  -1  -1   17.56    4.35
 -18  -1   1   46.22   10.43
 -18   1   1   34.46   10.40
 -18  -1   1   26.34    9.40
 -18   1   1   47.88   11.26
  17  -1  -1    2.03    2.13
 -17   1   1   -1.54    1.96
  17  -1  -1   -3.10    2.21
 -17  -1   1   -0.66    2.56
 -17   1   1    0.84    2.05
 -17  -1   1    1.15    2.45
 -16  -1   1   17.95    6.17
 -16   1   1   11.96    3.87
  16  -1  -1   13.32    3.48
  16  -1  -1   11.59    2.77
 -16  -1   1    5.45    2.07
  16   1  -1   10.38    2.43
 -16   1   1    6.72    2.57
 -15   1   1   12.48    3.99
 -15   1   1    9.19    3.14
  15  -1  -1    9.99    2.91
 -15  -1   1   11.18    2.97
  15   1  -1    9.67    2.03
 -15  -1   1    5.28    1.83
  15  -1  -1   10.62    2.62
  14  -1  -1    4.51    1.80
  14  -1  -1   10.91    2.60
  14  -1  -1    9.67    3.05
  14   1  -1   12.33    2.76
 -14  -1   1    6.85    2.46
 -14  -1   1   18.48    6.17
 -14   1   1   10.58    3.52
 -13  -1   1    5.22    2.19
  13  -1  -1    8.05    2.84
 -13  -1   1    4.73    2.66
 -13   1   1    5.12    2.17
  13   1  -1    6.41    1.53
  13   1  -1    9.54    2.77
  13  -1  -1    4.92    1.79
  13  -1  -1    5.71    1.71
 -12  -1   1   49.73    9.63
  12  -1  -1   42.84    6.91
 -12  -1   1   49.89    8.19
  12  -1  -1   54.59    4.29
  12   1  -1   49.37    4.06
  12   1  -1   42.86    6.38
 -12   1   1   53.20    8.81
  12  -1  -1   40.72    6.69
  12  -1  -1   56.63    7.42
  11  -1  -1  506.82   21.62
  11  -1  -1  463.34   21.97
  11  -1  -1  527.99   17.63
  11   1  -1  473.58   20.10
 -11   1   1  432.40   23.33
  11  -1  -1  505.61   22.38
 -11  -1   1  498.15   27.46
  11   1  -1  485.08   16.61
 -11  -1   1  468.19   22.62
 -10  -1   1 1330.05   43.85
 -10  -1   1 1401.74   36.72
 -10  -1   1 1353.53   50.84
  10  -1  -1 1366.12   33.59
  10  -1  -1 1255.17   41.59
  10   1  -1 1272.29   40.76
  10   1  -1 1313.57   35.31
  10  -1  -1 1295.28   42.54
  10  -1  -1 1375.24   42.51
  10  -1  -1 1388.80   38.99
   9  -1  -1 2423.32   65.54
   9  -1  -1 2302.63   64.60
  -9  -1   1 2245.49   74.55
  -9  -1   1 2465.20   58.93
   9  -1  -1 2474.63   64.18
  -9  -1   1 2298.18   66.20
   9   1  -1 2313.98   56.80
   9  -1  -1 2316.56   63.92
   9   1  -1 2291.18   64.65
   8  -1  -1 1199.07   37.08
   8  -1  -1 1203.42   37.76
   8  -1  -1 1205.58   37.07
  -8  -1   1 1183.48   37.84
  -8  -1   1 1228.72   31.68
   8   1  -1 1155.64   36.06
   8  -1  -1 1232.56   34.33
  -8  -1   1 1233.54   44.30
   8   1  -1 1193.30   30.69
  -7  -1   1  570.48   21.03
   7  -1  -1  546.21   21.17
  -7  -1   1  578.47   15.91
   7  -1  -1  549.30   20.63
   7  -1  -1  581.03   17.24
   7   1  -1  556.10   15.41
   7  -1  -1  533.37   19.92
  -7  -1   1  543.42   24.72
   7   1  -1  537.94   19.49
   6  -1  -1   57.82    5.10
   6  -1  -1   54.32    3.00
   6   1  -1   49.84    2.52
  -6  -1   1   60.74    6.37
   6  -1  -1   57.50    5.32
   6   1  -1   54.72    4.44
  -6  -1   1   46.14    4.50
   6  -1  -1   59.12    4.68
  -5  -1   1  119.62    6.96
   5  -1  -1  124.79    5.01
  -5  -1   1  117.37    6.83
   5  -1  -1  117.93    6.61
   5  -1  -1  108.09    6.94
   5   1  -1  116.34    6.64
  -5  -1   1  120.45    8.82
   5  -1  -1  113.50    7.43
  -4   1   1  626.24   18.42
   4   1  -1  622.03   22.34
   4  -1  -1  581.39   20.09
   4  -1  -1  602.73   19.62
  -4   1   1  594.76   20.01
  -4  -1   1  622.33   19.32
  -4  -1   1  605.30   19.01
   4  -1  -1  612.37   18.82
  -4   1   1  634.21   17.79
   4  -1  -1  636.69   15.82
   4   1  -1  615.18   19.44
   4   1  -1  616.41   19.27
  -4  -1   1  591.76   22.68
   3  -1  -1 1042.82   28.54
   3  -1  -1  997.85   28.63
   3   1  -1 1104.02   33.18
   3  -1  -1 1069.29   25.64
  -3   1   1 1048.69   29.26
   3   1  -1 1048.42   28.73
   3  -1  -1 1048.51   29.68
  -3   1   1 1062.38   28.36
   3   1  -1 1068.35   28.24
  -3  -1   1 1047.20   33.44
  -3  -1   1 1023.84   28.45
  -3   1   1 1071.75   29.55
  -3  -1   1 1040.05   28.56
   2  -1  -1  188.37    7.91
  -2  -1   1  175.04    6.90
  -2  -1   1  160.02    8.15
   2   1  -1  187.11    6.74
  -2   1   1  189.33    7.70
  -2   1   1  178.57    7.12
   2   1  -1  181.97    9.17
   2  -1  -1  180.96    7.16
   2   1  -1  177.25    5.55
   2  -1  -1  171.11    7.98
  -2   1   1  178.30    8.13
   2   1  -1  164.33    7.61
  -2   1   1  171.66    6.05
   2  -1  -1  173.51    6.11
  -2  -1   1  160.00    7.54
   1  -1  -1   10.95    1.92
  -1   1   1   11.81    1.70
  -1   1   1   12.89    2.17
  -1  -1   1   10.77    2.12
  -1   1   1    7.02    1.57
  -1  -1   1   10.70    1.40
   1  -1  -1   11.49    1.97
   1   1  -1   16.61    2.70
  -1   1   1   12.56    2.15
   1  -1  -1   12.61    2.00
  -1  -1   1    9.79    1.83
   1   1  -1   12.84    1.29
   1   1  -1    8.66    1.86
  -1  -1   1   14.53    1.42
  -1   1   1   11.17    2.01
   1  -1  -1   18.85    2.33
   1  -1  -1    9.97    1.51
   1  -1  -1   11.00    1.89
   1   1  -1   11.22    1.46
  -1   1   1   11.23    1.91
   0   1  -1   -0.10    0.43
   0  -1   1    0.84    0.47
   0   1   1    0.00    0.45
   0   1   1    1.79    0.91
   0   1  -1    0.02    0.43
   0  -1  -1    0.69    0.41
   0  -1  -1    0.14    0.27
   0   1  -1    2.46    1.19
   0   1   1    0.03    0.40
   0   1   1    5.86    1.48
   0   1   1    0.77    0.65
   0   1  -1    0.56    0.57
   0   1  -1    1.25    0.55
   0  -1  -1    0.03    0.29
   0  -1   1    0.45    0.28
   0   1  -1    1.64    0.73
   0  -1   1    1.84    0.71
   0   1   1    1.24    0.62
   0  -1   1   -0.12    0.31
   0  -1  -1    2.01    0.75
  -1   1  -1   11.53    2.22
   1   1   1    9.73    1.91
   1   1   1   14.80    1.85
   1  -1   1    9.70    1.85
  -1   1  -1   11.86    2.32
  -1  -1  -1    9.59    1.81
  -1  -1  -1   10.23    1.45
  -1  -1  -1    9.54    2.01
   1   1   1   13.35    2.40
   1  -1   1    7.86    1.54
  -1   1  -1    8.00    1.78
   1   1   1    9.41    2.03
  -1  -1  -1   10.81    1.87
  -1   1  -1   11.08    2.07
  -1   1  -1   12.23    1.68
   1   1   1   11.32    1.54
  -1   1  -1   12.74    1.55
   1  -1   1   10.96    1.79
  -1  -1  -1   11.12    1.94
  -2  -1  -1   98.03    6.19
  -2  -1  -1  100.17    5.98
  -2   1  -1   91.90    5.68
   2   1   1   97.06    5.39
  -2   1  -1  100.95    5.41
  -2   1  -1   96.42    5.54
  -2  -1  -1   99.08    5.64
   2   1   1   87.65    5.79
   2  -1   1   95.53    3.85
   2   1   1  102.73    6.17
   2  -1   1   96.07    5.57
  -2   1  -1   95.53    3.74
   2   1   1  100.84    5.63
  -3  -1  -1 1345.38   37.79
  -3   1  -1 1430.95   36.60
  -3   1  -1 1377.29   38.26
   3   1   1 1345.59   37.01
   3  -1   1 1388.20   37.12
   3  -1   1 1404.59   39.73
   3   1   1 1420.83   38.85
  -3  -1  -1 1360.00   41.33
  -3   1  -1 1394.24   38.89
  -3   1  -1 1407.69   35.37
   3   1   1 1420.14   36.45
   3   1   1 1404.11   40.60
   3  -1   1 1400.81   37.41
   4  -1   1 2478.14   63.35
   4  -1   1 2559.69   63.89
   4  -1   1 2586.47   64.41
   4   1   1 2793.40   71.97
  -4   1  -1 2590.89   66.26
   4   1   1 2595.08   66.81
  -4  -1  -1 2553.74   72.30
   4   1   1 2518.00   65.40
  -4  -1  -1 2484.87   65.59
   4   1   1 2513.82   61.93
   4  -1   1 2578.67   69.53
   5   1   1 2811.51   71.30
  -5  -1  -1 2737.61   72.03
   5  -1   1 2809.70   70.59
   5  -1   1 2842.84   75.88
   5  -1   1 2860.81   69.91
   5   1   1 2752.56   67.63
   5  -1   1 2791.47   69.08
  -5  -1  -1 2798.88   79.82
   6   1   1 1854.15   45.48
   6  -1   1 1826.59   49.67
   6  -1   1 1787.88   46.45
  -6  -1  -1 1841.52   56.82
   6  -1   1 1773.14   51.16
   6  -1   1 1619.89   47.81
   6   1   1 1879.47   47.72
  -6  -1  -1 1776.85   49.93
   7  -1   1  618.34   21.97
   7  -1   1  567.51   21.07
   7  -1   1  584.37   19.05
   7   1   1  592.32   18.21
   7  -1   1  607.39   22.71
   7   1   1  599.38   18.98
  -7  -1  -1  601.02   22.29
  -7  -1  -1  619.48   26.75
   8  -1   1   43.60    6.00
   8   1   1   39.04    3.39
   8  -1   1   39.74    4.09
  -8  -1  -1   54.81    5.54
   8   1   1   36.45    3.41
  -8  -1  -1   43.64    7.73
   8  -1   1   40.40    5.95
   8  -1   1   36.20    3.57
   9  -1   1  238.97   12.87
  -9  -1  -1  274.60   14.71
  -9  -1  -1  283.97   18.25
   9   1   1  258.34   10.73
   9  -1   1  251.66   14.32
   9  -1   1  274.55   12.15
   9  -1   1  261.11   13.94
   9   1   1  279.03   12.05
  10  -1   1  344.72   16.78
  10  -1   1  322.24   14.19
  10  -1   1  323.23   17.08
  10   1   1  322.25   14.10
 -10  -1  -1  333.52   21.05
 -10  -1  -1  282.58   16.11
  10  -1   1  302.18   15.26
  10   1   1  305.60   12.58
 -11  -1  -1  810.32   32.71
  11  -1   1  903.26   29.79
  11   1   1  837.70   26.56
  11  -1   1  854.60   32.63
  11  -1   1  940.68   32.82
  11  -1   1  858.57   31.62
 -11  -1  -1  905.96   40.18
  11   1   1  866.65   29.52
 -12   1  -1  221.36   16.06
  12  -1   1  265.47   14.08
 -12  -1  -1  229.63   18.85
  12  -1   1  267.99   13.79
 -12  -1  -1  244.79   15.92
  12   1   1  259.87   12.02
 -12   1  -1  279.02   18.55
  12  -1   1  219.70   14.55
  12  -1   1  269.99   16.20
  13  -1   1    2.78    1.56
  13  -1   1    4.89    1.74
  13  -1   1    2.52    1.49
  13   1   1    3.83    1.10
 -13   1  -1    2.46    1.87
 -13  -1  -1    0.76    1.17
  13   1   1    0.83    1.17
 -13   1  -1    2.98    1.84
 -13  -1  -1    1.92    1.76
  13  -1   1    2.48    1.20
 -14  -1  -1    1.75    1.46
  14  -1   1    5.78    2.16
  14   1   1    2.55    1.22
 -14  -1  -1    3.60    2.33
 -14   1  -1    4.75    2.01
 -14   1  -1    0.58    1.41
  14  -1   1    2.87    1.73
  15  -1   1    2.53    2.10
  15  -1   1    1.51    1.64
 -15  -1  -1    4.03    2.19
 -15  -1  -1    2.33    1.88
  15   1   1   -0.73    1.34
 -15   1  -1    5.97    2.71
 -15   1  -1    3.20    1.89
  16  -1   1   17.10    3.94
 -16   1  -1   11.58    3.36
 -16   1  -1   21.98    6.12
  16  -1   1   24.76    4.74
 -16  -1  -1   23.26    7.20
 -16  -1  -1   17.44    5.38
  17  -1   1  106.99   10.17
  17  -1   1  117.84   11.27
 -17  -1  -1  116.01   15.50
 -17   1  -1  127.60   18.43
 -17   1  -1  108.47   14.90
 -17  -1  -1  123.93   19.85
  18  -1   1  155.35   13.27
 -18   1  -1  162.47   19.19
 -18   1  -1  171.00   21.84
 -18  -1  -1  159.93   23.38
 -18  -1  -1  164.72   19.50
 -19   1  -1  243.82   24.25
 -19  -1  -1  260.79   26.82
 -19  -1  -1  213.13   21.76
 -19   1  -1  254.69   22.56
 -19  -2   1   -2.19    6.21
  19  -2  -1    0.34    4.71
 -19   2   1    4.09    5.08
 -18  -2   1   48.74   11.91
 -18   2   1   38.66   10.32
 -18   2   1   51.82   12.72
 -18  -2   1   43.63   13.16
  18  -2  -1   41.45   10.36
  18  -2  -1   41.13    9.25
 -17   2   1    0.51    5.33
 -17  -2   1    0.15    4.03
 -17  -2   1    2.89    2.78
  17  -2  -1    3.52    2.75
  17  -2  -1    1.58    2.75
 -17   2   1    5.26    4.56
  16  -2  -1    2.28    2.37
  16  -2  -1   -0.25    2.07
 -16  -2   1    0.48    2.88
 -16  -2   1   -0.47    2.18
 -16   2   1    2.02    1.99
 -15  -2   1    0.29    2.01
 -15   2   1   -0.71    1.39
  15  -2  -1    0.18    1.85
 -15  -2   1    0.34    1.95
  15  -2  -1    1.79    1.84
 -14  -2   1  228.49   17.51
  14  -2  -1  226.54   17.42
  14   2  -1  225.19   13.15
  14  -2  -1  220.31   16.97
 -14  -2   1  247.69   22.22
  13  -2  -1    5.07    1.74
  13  -2  -1   -0.61    1.61
 -13  -2   1    0.43    1.52
 -13  -2   1    3.87    1.76
  13   2  -1    2.61    1.20
  12  -2  -1 1117.08   35.95
  12   2  -1 1046.65   35.31
  12  -2  -1 1024.41   40.89
 -12  -2   1 1086.24   42.09
 -12  -2   1 1045.44   49.40
  12  -2  -1 1053.25   41.60
 -11  -2   1   18.34    4.80
 -11  -2   1    7.83    3.01
  11  -2  -1   16.60    2.96
  11   2  -1   13.99    2.96
  11  -2  -1   14.29    4.09
  11  -2  -1    9.29    2.87
 -10  -2   1  170.60   12.49
  10  -2  -1  184.81   10.28
  10   2  -1  164.03   10.02
 -10  -2   1  188.43   16.46
  10  -2  -1  138.61   11.84
  10  -2  -1  159.30   12.80
   9  -2  -1    3.43    1.06
  -9  -2   1    4.43    2.28
  -9  -2   1    0.88    0.97
   9   2  -1    2.28    1.00
   9  -2  -1    2.26    1.19
   9  -2  -1    0.72    1.01
   9  -2  -1    2.62    0.57
   8  -2  -1  900.35   33.49
  -8  -2   1  913.86   39.48
   8  -2  -1  886.77   33.96
  -8  -2   1  919.95   32.92
   8   2  -1  924.96   30.57
   8  -2  -1  942.53   24.23
   7  -2  -1   33.49    5.91
  -7  -2   1   34.31    7.21
   7  -2  -1   39.95    2.91
   7  -2  -1   42.80    3.88
  -7  -2   1   38.58    5.80
   7  -2  -1   44.44    6.90
   6  -2  -1 3036.24   69.71
  -6   2   1 2935.97   78.91
   6  -2  -1 3026.25   75.12
  -6   2   1 3088.06   75.31
  -6  -2   1 2949.92   76.41
   6  -2  -1 2962.63   79.49
   6  -2  -1 2930.99   78.36
  -6  -2   1 2868.65   89.32
  -6  -2   1 2921.67   78.96
   5  -2  -1   19.40    4.19
  -5  -2   1   20.89    4.00
   5  -2  -1   17.09    2.48
  -5  -2   1   23.10    4.12
  -5   2   1   23.99    3.06
   5  -2  -1   16.95    4.04
  -5  -2   1   19.05    4.47
  -5   2   1   21.57    3.33
   5  -2  -1   18.63    3.03
  -4  -2   1 1267.36   40.87
  -4  -2   1 1291.38   37.64
   4  -2  -1 1278.70   38.69
  -4  -2   1 1215.55   37.29
   4  -2  -1 1251.44   38.91
   4  -2  -1 1286.82   33.36
   4   2  -1 1269.80   31.96
  -4   2   1 1301.72   35.62
  -4   2   1 1294.60   38.02
   4  -2  -1 1241.80   35.97
  -3  -2   1   17.55    3.06
  -3  -2   1   15.21    2.06
   3  -2  -1   19.78    3.03
  -3  -2   1   21.35    4.49
  -3  -2   1   21.96    4.10
   3  -2  -1   19.11    3.41
   3  -2  -1   19.33    3.91
  -3   2   1   25.52    3.60
   3  -2  -1   19.73    3.97
   2  -2  -1   55.05    4.90
   2   2  -1   47.37    4.05
  -2  -2   1   50.75    4.38
   2  -2  -1   50.90    5.07
  -2  -2   1   52.59    6.64
  -2  -2   1   53.57    3.87
  -2  -2   1   52.02    5.09
   2  -2  -1   52.26    4.27
  -2   2   1   57.97    4.58
  -2   2   1   52.60    4.59
   2  -2  -1   43.80    5.56
   1  -2  -1   29.29    3.91
   1  -2  -1   34.83    4.63
   1  -2  -1   28.75    4.28
  -1  -2   1   39.72    3.59
  -1   2   1   35.33    4.42
   1  -2  -1   37.19    4.93
  -1  -2   1   31.42    3.72
  -1  -2   1   35.81    5.46
   1  -2  -1   28.21    4.27
   1   2  -1   32.28    3.54
   1  -2  -1   30.19    4.19
  -1  -2   1   35.20    4.84
   0  -2  -1  331.90   13.72
   0   2  -1  354.65   14.10
   0  -2  -1  331.14   13.44
   0   2  -1  330.89   12.49
   0  -2  -1  324.10   13.23
   0  -2   1  312.84   15.08
   0  -2   1  325.93   13.96
   0  -2  -1  360.15   14.98
   0  -2   1  321.17   13.21
   0   2   1  348.29   13.70
   0  -2  -1  332.32   14.73
   0  -2   1  307.71   12.21
   0  -2  -1  306.86   13.03
   1  -2   1    2.58    1.43
  -1  -2  -1    3.39    1.41
   1  -2   1    3.26    1.60
   1   2   1    0.65    1.13
  -1  -2  -1   -0.73    0.71
   1  -2   1   -0.52    0.58
  -1  -2  -1    6.91    2.27
   1   2   1    5.16    1.96
  -1   2  -1    0.75    1.25
   1  -2   1    1.25    1.38
  -1   2  -1    3.07    1.47
  -1  -2  -1    3.13    1.58
  -1  -2  -1    1.62    1.13
  -2  -2  -1 1520.94   42.59
  -2  -2  -1 1441.43   44.01
  -2  -2  -1 1507.11   41.73
   2  -2   1 1518.08   42.75
   2   2   1 1545.09   39.64
  -2   2  -1 1484.19   40.62
  -2   2  -1 1498.83   40.16
   2   2   1 1534.76   39.39
   2  -2   1 1505.05   42.91
   2  -2   1 1528.18   40.82
  -3  -2  -1   63.74    5.57
   3  -2   1   66.17    5.95
  -3  -2  -1   58.47    6.88
  -3  -2  -1   59.45    5.49
  -3   2  -1   66.34    4.36
   3  -2   1   58.25    4.13
   3   2   1   65.82    4.75
   3  -2   1   62.49    5.92
   3  -2   1   61.73    4.95
   3   2   1   59.52    4.30
   4  -2   1  334.17   11.89
   4   2   1  349.69   11.75
   4  -2   1  353.42   16.23
  -4   2  -1  334.36   11.60
  -4  -2  -1  312.13   15.94
   4   2   1  338.34   12.57
   4  -2   1  361.18   13.61
   5  -2   1    6.98    2.43
   5  -2   1    5.67    1.25
  -5   2  -1    6.79    1.64
   5  -2   1    8.20    2.85
  -5  -2  -1    6.18    2.57
   5  -2   1    3.63    1.31
  -5  -2  -1    6.25    2.16
   5   2   1    5.74    1.59
   6  -2   1 2068.77   50.34
   6   2   1 1998.52   49.16
  -6  -2  -1 1995.41   57.98
  -6  -2  -1 1904.01   64.59
   6   2   1 1946.05   47.57
   6  -2   1 2010.27   57.84
   6  -2   1 2031.05   57.50
   7  -2   1   15.60    3.11
   7   2   1   14.56    1.46
   7  -2   1   16.14    2.06
  -7  -2  -1   14.87    3.81
   7  -2   1    6.81    2.59
  -7  -2  -1   34.42    7.23
   7   2   1   14.39    2.69
   7  -2   1   11.82    3.39
  -8  -2  -1 3027.10   83.89
   8  -2   1 2980.56   81.86
   8  -2   1 2947.79   82.54
   8   2   1 2915.84   71.98
  -8  -2  -1 2907.23   93.62
   8   2   1 2994.70   78.50
   8  -2   1 3085.07   84.12
   8  -2   1 3095.99   73.22
   9  -2   1   93.63   10.61
   9  -2   1   95.38    4.86
   9   2   1   92.99    6.06
  -9  -2  -1   99.85   13.38
  -9  -2  -1   79.59    8.21
   9  -2   1   86.44   10.34
   9  -2   1  101.60    7.11
  10  -2   1  480.55   23.80
  10  -2   1  483.46   19.48
  10  -2   1  478.20   24.36
  10   2   1  482.57   14.09
  10  -2   1  512.65   15.69
 -10  -2  -1  494.85   24.16
 -10  -2  -1  490.25   29.23
  10   2   1  488.34   17.81
 -11  -2  -1    7.21    3.82
  11  -2   1    5.55    2.50
  11   2   1    5.67    1.25
  11  -2   1    7.47    2.60
  11  -2   1    9.58    2.03
 -11  -2  -1    7.90    2.92
  12  -2   1   23.53    5.82
 -12  -2  -1   24.68    6.85
  12   2   1   36.30    4.58
  12  -2   1   33.81    7.05
 -12  -2  -1   29.10    6.48
  13  -2   1    7.77    2.74
  13  -2   1    5.65    2.03
 -13  -2  -1    1.58    1.69
 -13  -2  -1    6.65    2.72
  14  -2   1    0.06    1.53
 -14  -2  -1    0.90    1.81
 -14  -2  -1    0.11    1.75
  14  -2   1   -1.56    1.74
  15  -2   1    1.98    1.98
  15  -2   1   -0.14    1.91
 -15  -2  -1    0.36    1.98
 -15   2  -1    2.87    2.12
 -15   2  -1   -0.90    1.45
 -15  -2  -1    4.37    2.28
 -16  -2  -1   88.69   13.55
 -16  -2  -1   88.83   17.18
 -16   2  -1   94.79   14.24
 -16   2  -1   72.94   13.02
  16  -2   1   97.98   13.52
  16  -2   1   79.17   11.89
 -17  -2  -1    3.42    5.48
  17  -2   1   -1.05    2.46
 -17   2  -1    9.28    5.84
 -17  -2  -1    1.38    4.03
  17  -2   1    5.52    2.65
 -17   2  -1    0.76    3.64
  18  -2   1    9.78    5.60
 -18   2  -1   11.62    5.92
 -18  -2  -1   14.44    8.02
 -18  -2  -1   17.87    7.87
 -18   2  -1    4.29    4.76
  18  -2   1    5.14    4.94
  19  -2   1   -3.55    4.14
 -19  -2  -1   -4.11    5.75
  19  -2   1    2.64    4.95
 -18  -3   1   23.45    9.34
  18  -3  -1   21.44    7.85
  18  -3  -1   29.65    9.89
 -17   3   1   13.95    6.42
  17  -3  -1    7.56    6.06
 -17  -3   1    8.22    7.22
  17  -3  -1    2.28    5.28
 -17  -3   1    9.93    8.02
 -16  -3   1    1.40    3.11
  16  -3  -1    6.34    5.77
 -16  -3   1    3.93    5.77
  16  -3  -1    1.53    3.97
  15  -3  -1    7.53    3.05
 -15  -3   1   14.41    8.00
  15  -3  -1   11.48    3.28
 -15  -3   1   13.65    4.73
  14  -3  -1   46.28    8.83
 -14  -3   1   57.07    9.86
  14  -3  -1   87.64   13.52
 -14  -3   1   60.96   13.51
 -13  -3   1   -0.23    2.00
 -13  -3   1    4.53    2.15
  13  -3  -1    1.61    1.66
  13  -3  -1    3.81    2.25
 -12  -3   1   93.56   13.29
  12   3  -1   85.06    6.94
  12  -3  -1   75.13   12.01
  12  -3  -1   71.20   11.08
  11   3  -1  331.64   15.77
  11  -3  -1  301.92   20.94
  11  -3  -1  306.79   21.14
 -11  -3   1  304.33   20.46
  10  -3  -1 1128.71   44.30
  10  -3  -1 1014.61   42.35
  10   3  -1 1053.62   36.04
 -10  -3   1 1040.64   42.16
 -10  -3   1 1089.47   47.31
   9  -3  -1  706.32   32.09
   9   3  -1  696.99   26.46
  -9  -3   1  644.44   33.45
  -9  -3   1  649.59   30.12
   9  -3  -1  680.86   31.98
   9  -3  -1  700.27   20.94
   9  -3  -1  688.50   23.97
   8  -3  -1 1087.12   30.29
  -8  -3   1 1094.56   39.93
   8  -3  -1 1010.00   40.65
   8  -3  -1 1111.67   33.81
   8  -3  -1 1013.74   40.28
  -8  -3   1 1008.19   43.31
   7  -3  -1  217.55   10.06
  -7  -3   1  183.90   13.37
  -7  -3   1  183.65   15.28
   7  -3  -1  189.77   14.53
   7  -3  -1  190.42   14.39
   7  -3  -1  206.31   10.98
   6  -3  -1    6.53    2.63
   6  -3  -1   10.73    2.32
   6  -3  -1   12.86    4.09
  -6  -3   1   14.98    4.16
   6   3  -1   15.64    1.33
  -6  -3   1    9.18    3.17
  -6  -3   1    8.49    2.67
   6  -3  -1   10.36    2.31
   5  -3  -1   72.54    9.37
  -5  -3   1   78.36    9.39
   5  -3  -1   76.65    9.49
  -5  -3   1   74.21    6.93
   5  -3  -1   71.33    5.62
  -5  -3   1   66.30    9.86
   5  -3  -1   73.99    6.33
   5   3  -1   70.09    4.47
   4  -3  -1  486.47   18.46
   4  -3  -1  473.48   19.67
   4  -3  -1  461.65   22.06
  -4  -3   1  474.69   19.97
  -4  -3   1  453.01   23.47
  -4  -3   1  433.85   20.81
   4   3  -1  463.42   16.09
   4  -3  -1  504.26   22.78
  -3  -3   1  220.69   10.17
   3  -3  -1  207.57   13.34
  -3  -3   1  195.48   12.88
   3  -3  -1  227.26   11.69
  -3  -3   1  197.51   11.49
   3  -3  -1  217.61   13.63
  -3  -3   1  198.69   14.27
   3  -3  -1  207.92   12.07
   2  -3  -1   96.11    7.98
  -2  -3   1   95.19    7.29
  -2  -3   1  105.51    9.92
  -2  -3   1   94.36    6.75
   2  -3  -1   93.90    8.24
   2  -3  -1  100.06    8.59
   2  -3  -1  100.46    7.58
  -2  -3   1  103.95    8.74
   1  -3  -1   20.03    3.96
   1  -3  -1   16.16    3.62
   1  -3  -1   20.90    4.35
   1  -3  -1   15.46    3.74
   1  -3  -1   24.17    4.46
  -1  -3   1   19.76    3.58
  -1  -3   1   16.36    3.65
   1  -3  -1   15.21    3.62
  -1  -3   1   23.43    5.08
  -1  -3   1   25.00    4.18
   0  -3   1   24.51    4.06
   0  -3  -1   14.64    3.66
   0  -3  -1   12.78    3.48
   0  -3  -1   28.59    5.23
   0  -3   1   19.60    4.32
   0  -3   1   22.00    4.11
   0  -3  -1   26.91    4.56
   0  -3  -1   15.22    3.28
   0  -3   1   14.96    3.85
   0  -3  -1   28.31    4.87
  -1  -3  -1   26.92    4.83
  -1  -3  -1   42.68    5.55
   1  -3   1   45.73    6.40
   1  -3   1   31.89    5.40
  -1  -3  -1   45.23    6.28
   1  -3   1   38.33    6.78
  -1  -3  -1   37.87    6.56
  -2  -3  -1   67.29    7.95
   2  -3   1   59.99    7.74
  -2  -3  -1   66.05    6.44
  -2  -3  -1   66.22    8.85
   2  -3   1   62.62    7.37
   2  -3   1   66.76    8.39
   3  -3   1  451.86   21.38
  -3  -3  -1  467.85   22.81
  -3  -3  -1  461.82   20.50
   3  -3   1  454.91   19.38
   3  -3   1  475.83   21.94
  -3  -3  -1  463.48   20.75
   4  -3   1 2010.30   54.76
  -4  -3  -1 1968.94   58.04
  -4  -3  -1 1990.38   62.04
   4  -3   1 1979.69   59.52
  -4  -3  -1 1939.56   57.41
   4  -3   1 1981.68   59.60
  -5  -3  -1  763.33   29.64
   5  -3   1  797.68   27.09
  -5  -3  -1  780.09   32.98
  -5   3  -1  796.32   24.58
   5   3   1  774.73   23.46
   5  -3   1  783.63   31.77
   5  -3   1  767.16   31.37
  -6  -3  -1 1095.99   42.63
   6   3   1 1131.63   30.25
   6  -3   1 1162.10   41.77
  -6   3  -1 1104.82   31.70
   6  -3   1 1130.41   32.40
  -6  -3  -1 1091.44   38.83
   6  -3   1 1150.13   34.77
   6  -3   1 1087.72   40.61
   7  -3   1  173.24   13.81
  -7  -3  -1  159.23   14.00
   7  -3   1  184.63   10.41
   7  -3   1  187.77   14.52
   7  -3   1  196.58    8.65
  -7  -3  -1  170.87   12.48
  -8  -3  -1   14.08    3.57
   8  -3   1   12.60    4.22
   8  -3   1   11.03    1.68
   8  -3   1   12.09    3.70
  -8  -3  -1    7.61    2.88
   8  -3   1   10.74    2.08
  -9  -3  -1  101.58   10.30
   9  -3   1   91.22   12.29
   9  -3   1  111.93    7.18
   9   3   1   94.71    6.62
   9  -3   1  105.23   12.92
  -9  -3  -1  102.73   14.14
 -10  -3  -1  470.98   25.94
  10  -3   1  452.30   26.10
  10  -3   1  484.63   17.94
  10   3   1  462.87   18.01
  10  -3   1  441.21   25.21
 -11  -3  -1  157.71   20.90
 -11  -3  -1  162.90   14.61
  11  -3   1  153.94   14.25
  11  -3   1  172.88   15.45
 -12  -3  -1  133.09   16.06
 -12  -3  -1  160.25   21.57
  12  -3   1  118.22   14.89
  12  -3   1  127.60   15.55
  13  -3   1   -0.15    1.65
 -13  -3  -1    0.04    2.03
 -13  -3  -1    4.27    2.27
  13  -3   1    1.48    1.72
 -14  -3  -1    0.75    2.60
 -14  -3  -1   -1.27    2.20
  14  -3   1   -3.09    2.02
  14  -3   1   -1.47    2.01
 -15  -3  -1    1.98    5.24
  15  -3   1    5.69    3.80
 -15  -3  -1    8.29    3.04
  15  -3   1    5.70    2.47
  16  -3   1    8.90    5.28
 -16  -3  -1    1.80    5.78
 -16  -3  -1   10.51    6.17
  16  -3   1    6.83    5.95
  17  -3   1   44.46   11.31
  17  -3   1   28.99    9.17
 -17  -3  -1   37.92   11.54
 -17   3  -1   56.49   12.08
 -17   3  -1   56.29   12.48
 -17  -3  -1   52.57   15.52
  18  -3   1  161.17   21.25
  18  -3   1  168.08   21.22
 -18  -3  -1  164.99   24.24
  16  -4  -1   -1.84    4.42
  15  -4  -1   11.67    6.93
  15  -4  -1    8.47    6.10
 -15  -4   1    5.16    4.80
  14  -4  -1   15.17    7.85
  14  -4  -1    6.99    5.65
 -14  -4   1    8.52    6.10
  13  -4  -1  292.71   24.83
  13  -4  -1  318.87   25.49
 -13  -4   1  318.10   29.44
 -13  -4   1  280.78   21.37
  12  -4  -1   27.48    6.87
  12  -4  -1   28.70    7.68
 -12  -4   1   26.90    7.90
 -12  -4   1   32.98    6.94
 -11  -4   1  495.69   33.16
  11  -4  -1  486.77   29.74
 -11  -4   1  411.85   25.58
  11  -4  -1  442.18   28.64
 -10  -4   1   13.98    5.20
  10  -4  -1   18.77    5.38
  10  -4  -1   10.31    3.57
 -10  -4   1   16.33    3.44
   9  -4  -1   40.05    8.84
  -9  -4   1   18.64    3.81
   9  -4  -1   24.27    5.91
  -9  -4   1   35.80    8.75
  -8  -4   1   45.16    7.22
  -8  -4   1   30.06    7.34
   8  -4  -1   40.55    8.25
   8  -4  -1   50.59    9.52
  -7  -4   1 1216.43   51.95
   7  -4  -1 1302.01   38.95
   7  -4  -1 1247.41   48.79
  -7  -4   1 1231.47   44.92
   7  -4  -1 1204.28   48.48
   7  -4  -1 1306.45   41.41
   6  -4  -1   49.61    6.78
  -6  -4   1   41.66    9.13
   6  -4  -1   65.80   10.35
   6  -4  -1   51.53    9.56
  -6  -4   1   66.99    9.12
  -6  -4   1   46.78    8.54
   6  -4  -1   59.45    5.52
   5  -4  -1  809.03   35.44
   5  -4  -1  837.47   31.31
  -5  -4   1  812.82   34.81
   5  -4  -1  808.72   29.10
  -5  -4   1  765.06   37.43
   5  -4  -1  781.56   35.03
  -5  -4   1  785.15   31.60
   4  -4  -1    7.62    2.87
   4  -4  -1    5.79    1.69
  -4  -4   1    5.52    2.23
  -4  -4   1    6.22    1.83
  -4  -4   1   -0.72    1.04
   4  -4  -1    3.31    1.10
   4  -4  -1    2.59    1.72
   3  -4  -1   11.29    2.61
  -3  -4   1    6.07    2.73
  -3  -4   1   16.52    3.48
   3  -4  -1   14.23    3.60
  -3  -4   1   13.47    4.16
   3  -4  -1   15.31    4.34
  -2  -4   1    1.19    0.95
  -2  -4   1    1.26    1.28
  -2  -4   1    1.28    1.03
   2  -4  -1    0.81    1.16
   2  -4  -1    2.48    1.37
  -2  -4   1    0.28    1.33
  -1  -4   1    3.94    2.52
  -1  -4   1    7.12    2.70
  -1  -4   1    2.71    1.23
   1  -4  -1    5.29    1.66
  -1  -4   1    1.67    1.11
   1  -4  -1    7.18    2.25
   1  -4  -1    3.37    1.28
   0  -4   1   -0.40    0.99
   0  -4   1    0.79    1.40
   0  -4  -1   -0.87    1.05
   0  -4   1   -0.80    1.33
   0  -4  -1    2.50    1.58
   0  -4  -1   -0.47    1.04
   0  -4  -1    0.15    1.08
   1  -4   1  436.70   21.87
   1  -4   1  408.64   23.67
   1  -4   1  433.02   21.76
  -1  -4  -1  436.14   21.96
  -1  -4  -1  413.49   20.92
  -1  -4  -1  439.93   24.01
  -2  -4  -1   57.68    8.33
   2  -4   1   72.16    9.62
  -2  -4  -1   65.44   10.05
   2  -4   1   56.66    8.14
  -2  -4  -1   45.21    7.47
  -3  -4  -1  463.45   23.65
   3  -4   1  456.69   23.91
   3  -4   1  457.05   21.98
  -3  -4  -1  459.98   22.85
  -3  -4  -1  472.03   26.16
  -4  -4  -1   16.93    3.79
   4  -4   1   16.16    4.08
   4  -4   1   14.50    4.35
  -4  -4  -1   16.92    4.41
   4  -4   1   21.88    5.83
  -5  -4  -1  122.38   14.73
  -5  -4  -1  122.50   10.98
   5  -4   1  126.55   14.33
   5  -4   1  128.39   11.98
   5  -4   1  133.11   10.17
  -6  -4  -1  113.42   10.67
  -6  -4  -1   86.65   12.68
   6  -4   1  101.01    8.50
   6  -4   1   94.53   13.05
   6  -4   1   94.44   12.78
   7  -4   1 1301.29   40.28
   7  -4   1 1124.85   46.92
  -7  -4  -1 1143.61   44.56
   7  -4   1 1198.82   47.70
  -7  -4  -1 1147.78   49.59
   8  -4   1   28.51    7.11
  -8  -4  -1   30.02    6.85
   8  -4   1   22.36    5.38
  -8  -4  -1   24.01    4.68
   8  -4   1   40.21    5.43
  -9  -4  -1  888.66   44.22
   9  -4   1  819.76   39.67
  -9  -4  -1  850.50   38.19
   9  -4   1  908.57   41.70
  10  -4   1    8.46    3.73
 -10  -4  -1    5.04    2.17
  10  -4   1    3.05    1.97
 -10  -4  -1    5.16    2.15
 -11  -4  -1    4.33    2.60
 -11  -4  -1    4.08    2.31
  11  -4   1   -2.35    2.00
  11  -4   1    3.91    2.26
  12  -4   1   -0.88    2.16
 -12  -4  -1   -0.19    2.53
  12  -4   1   -0.53    1.96
 -12  -4  -1    0.62    2.77
  13  -4   1   12.83    6.04
 -13  -4  -1   13.78    4.23
  13  -4   1   18.09    7.36
 -13  -4  -1   29.65   10.97
  14  -4   1    3.39    5.17
 -14  -4  -1    3.27    3.50
  14  -4   1    1.07    4.28
 -14  -4  -1    0.34    4.38
  15  -4   1   35.64   10.46
 -15  -4  -1   37.92   10.65
  15  -4   1   27.75    9.36
 -15  -4  -1   22.94    8.56
 -16  -4  -1    9.82    8.77
  16  -4   1   11.82    6.79
  13  -5  -1    4.43    5.28
  12  -5  -1   25.76    8.61
  12  -5  -1   18.34    8.93
 -12  -5   1    7.98    5.75
 -11  -5   1  168.35   25.16
  11  -5  -1  185.50   22.43
  11  -5  -1  187.15   23.34
 -10  -5   1  114.21   20.39
  10  -5  -1  111.36   17.51
  10  -5  -1   99.15   17.00
   9  -5  -1  800.66   42.53
  -9  -5   1  850.79   48.14
   9  -5  -1  853.54   44.22
  -9  -5   1  844.24   38.77
   8  -5  -1  167.36   19.29
  -8  -5   1  150.30   21.55
  -8  -5   1  180.91   14.41
   8  -5  -1  146.27   18.65
   7  -5  -1  108.77   15.65
  -7  -5   1   92.30   15.81
   7  -5  -1  152.27   17.84
  -7  -5   1  112.11   10.65
  -6  -5   1    4.60    2.06
   6  -5  -1    0.17    1.81
  -6  -5   1    2.28    2.20
   6  -5  -1    0.91    1.88
   6  -5  -1    1.94    1.70
   5  -5  -1   94.18   13.89
  -5  -5   1   98.93   13.86
  -5  -5   1   91.67   14.58
   5  -5  -1  106.98   14.23
   5  -5  -1  104.50    9.09
  -5  -5   1  108.21   10.16
   4  -5  -1   60.27   10.39
  -4  -5   1   46.08    7.24
   4  -5  -1   48.37    8.93
   4  -5  -1   52.03    7.75
  -4  -5   1   47.51    9.46
  -4  -5   1   26.34    6.10
  -3  -5   1  128.96   16.86
  -3  -5   1  136.51   10.84
   3  -5  -1  143.30   11.58
  -3  -5   1  115.74   14.74
   3  -5  -1  138.39   13.03
  -2  -5   1    9.79    3.57
   2  -5  -1    3.89    1.97
  -2  -5   1    6.18    1.75
  -2  -5   1    7.44    2.91
   2  -5  -1   11.77    3.01
  -1  -5   1    6.68    3.15
  -1  -5   1    7.51    1.83
  -1  -5   1    2.11    1.94
   1  -5  -1    7.19    2.43
   1  -5  -1    9.26    2.00
   0  -5   1    4.40    1.70
   0  -5   1    0.22    1.90
   0  -5   1    1.28    1.59
   0  -5  -1    3.73    1.93
   0  -5  -1    0.86    1.83
  -1  -5  -1   -0.78    1.65
   1  -5   1   -2.85    1.52
  -1  -5  -1   -0.32    1.79
   1  -5   1   -1.07    1.61
  -1  -5  -1    4.19    1.63
   2  -5   1   12.23    3.49
   2  -5   1    6.95    2.24
  -2  -5  -1   10.04    2.63
  -2  -5  -1   19.38    4.95
  -3  -5  -1  317.42   22.89
  -3  -5  -1  332.52   20.24
   3  -5   1  296.31   20.36
   3  -5   1  319.84   19.74
  -4  -5  -1  187.09   17.05
   4  -5   1  213.30   16.90
   4  -5   1  201.43   14.66
  -4  -5  -1  212.41   15.59
   5  -5   1  783.74   38.21
   5  -5   1  844.88   34.21
  -5  -5  -1  779.63   35.42
  -5  -5  -1  760.89   40.25
  -6  -5  -1  169.13   14.23
  -6  -5  -1  155.38   19.05
   6  -5   1  178.06   13.07
   6  -5   1  169.73   15.82
  -7  -5  -1   89.86   14.30
  -7  -5  -1  112.45   13.82
   7  -5   1   99.70   15.04
   7  -5   1  112.34   15.03
  -8  -5  -1   -0.19    2.43
   8  -5   1    4.80    3.03
   8  -5   1    1.12    2.20
  -8  -5  -1    1.02    2.41
   9  -5   1   89.62   15.43
   9  -5   1  111.29   17.06
  -9  -5  -1   89.24   13.04
  -9  -5  -1  107.43   17.24
 -10  -5  -1   47.61   12.71
 -10  -5  -1   54.26    8.96
  10  -5   1   56.26   13.08
  10  -5   1   82.24   15.68
 -11  -5  -1  239.19   19.66
  11  -5   1  251.79   24.14
 -11  -5  -1  254.63   30.03
  11  -5   1  255.74   23.81
 -12  -5  -1   14.02    5.49
 -12  -5  -1   33.32    9.27
  12  -5   1   11.95    7.11
  12  -5   1   20.02    8.89
 -13  -5  -1    5.05    8.14
   9  -6  -1    9.37    7.88
  -8  -6   1  107.35   20.28
   8  -6  -1  123.63   19.62
  -7  -6   1   68.70   15.18
   7  -6  -1   42.13   10.62
   6  -6  -1  413.71   30.29
  -6  -6   1  436.36   33.48
   5  -6  -1   42.14   10.74
  -5  -6   1   14.86    6.78
  -4  -6   1  107.95   18.86
   4  -6  -1  117.92   17.06
  -3  -6   1    2.67    5.68
  -2  -6   1    2.10    5.73
  -2  -6   1    9.10    3.78
  -1  -6   1    0.08    2.34
   0  -6   1   23.15    4.81
   1  -6   1   37.06    6.29
   1  -6   1   36.99    6.86
   2  -6   1  142.33   12.93
  -2  -6  -1  134.63   18.68
   2  -6   1  129.76   15.36
  -3  -6  -1   15.17    6.36
   3  -6   1   12.24    3.05
   3  -6   1    6.82    2.73
   4  -6   1   44.09    6.43
  -4  -6  -1   50.97   11.85
   4  -6   1   76.21   13.45
  -5  -6  -1    2.60    5.07
   5  -6   1   -1.17    4.11
  -6  -6  -1  267.67   25.52
   6  -6   1  257.35   23.39
   7  -6   1   47.45   11.31
  -7  -6  -1   55.45   12.96
   8  -6   1  464.54   33.29
  -8  -6  -1  485.11   36.91
 -20   0   2  336.59   27.15
 -19   0   2    5.43    4.95
 -19   0   2   -0.21    3.83
 -18   0   2  794.72   44.73
  18   0  -2  852.52   36.30
 -18   0   2  841.93   41.47
 -17   0   2    2.42    1.71
 -17   0   2    3.04    2.18
  17   0  -2    0.43    1.94
  17   0  -2    0.95    1.89
  16   0  -2   86.05    8.37
  16   0  -2   91.38   10.95
 -16   0   2   88.33   13.60
 -16   0   2   91.94   12.55
  15   0  -2   -1.11    1.50
 -15   0   2    0.61    1.24
  15   0  -2    1.84    1.42
 -15   0   2   -1.25    1.42
  15   0  -2    3.55    1.46
  14   0  -2  350.20   17.19
 -14   0   2  336.92   20.74
 -14   0   2  316.29   21.95
  13   0  -2   -1.22    1.07
  13   0  -2   -0.08    1.24
 -13   0   2    3.67    1.64
 -13   0   2    0.01    1.07
  12   0  -2  331.44   15.85
 -12   0   2  336.91   19.55
 -12   0   2  327.83   20.90
  12   0  -2  338.82   18.33
  11   0  -2   -0.93    0.77
  11   0  -2   -0.82    0.93
 -11   0   2   -0.92    0.89
  10   0  -2   -0.22    0.71
  10   0  -2    0.60    0.81
 -10   0   2    0.46    0.80
   9   0  -2   -0.31    0.80
  -9   0   2   -0.45    0.61
   9   0  -2   -0.58    0.73
   9   0  -2   -0.58    0.66
   8   0  -2   85.42    6.04
   8   0  -2   83.40    5.10
   8   0  -2   81.71    6.63
  -8   0   2   77.45    7.55
   7   0  -2    1.83    0.84
  -7   0   2   -0.11    1.23
  -7   0   2    0.89    0.96
   7   0  -2    1.30    0.81
   7   0  -2    0.70    0.56
  -6   0   2 2991.75   69.99
   6   0  -2 2939.95   67.12
   6   0  -2 2840.84   76.82
  -6   0   2 2859.12   80.62
   6   0  -2 2920.06   70.07
   5   0  -2    1.65    1.02
  -5   0   2    0.21    0.71
  -5   0   2   -0.31    0.75
   5   0  -2   -0.68    0.51
   5   0  -2    1.37    0.85
   4   0  -2 5470.22  118.53
  -4   0   2 5304.35  118.94
  -4   0   2 5336.25  133.07
  -4   0   2 5457.89  120.76
  -4   0   2 5138.59  136.46
   4   0  -2 5118.85  120.75
   3   0  -2    2.02    0.77
   3   0  -2    0.17    0.70
  -3   0   2    0.52    0.76
  -3   0   2    0.20    0.27
  -3   0   2    1.98    0.97
   3   0  -2    0.38    0.47
  -3   0   2    0.47    0.45
   1   0  -2    8.07    1.21
  -1   0   2    4.24    1.17
   1   0  -2    2.77    1.54
  -1   0   2    0.11    1.38
   1   0   2    0.70    0.38
  -1   0  -2    1.23    0.50
   2   0   2 5580.86  127.82
  -2   0  -2 5527.18  124.92
  -2   0  -2 5472.58  129.93
  -2   0  -2 5598.59  128.86
  -2   0  -2 5240.01  130.17
   2   0   2 5518.11  129.79
   3   0   2    1.92    1.29
  -3   0  -2   -0.25    0.99
   3   0   2    1.28    0.80
   3   0   2    3.53    1.36
  -3   0  -2   -0.40    0.70
  -3   0  -2    0.34    0.73
   3   0   2    1.53    0.80
  -4   0  -2   80.40    5.13
   4   0   2   89.64    4.42
   4   0   2   82.85    4.73
   4   0   2   88.97    5.36
  -4   0  -2   86.23    5.31
  -4   0  -2   93.17    4.69
  -5   0  -2   -0.98    0.88
  -5   0  -2   -1.89    1.16
   5   0   2   -1.20    0.81
   5   0   2    1.32    1.32
   5   0   2    0.57    1.06
  -5   0  -2    1.26    1.63
  -6   0  -2   88.39    6.26
  -6   0  -2   85.23    6.36
   6   0   2   86.92    5.82
   6   0   2   97.44    6.40
   6   0   2   83.66    5.15
  -6   0  -2   84.07    5.21
   7   0   2   -0.71    1.17
   7   0   2    0.69    0.51
  -7   0  -2   -0.38    0.54
  -7   0  -2    1.09    0.82
   7   0   2    1.51    0.90
  -8   0  -2  952.13   35.41
   8   0   2  919.14   30.17
  -8   0  -2  908.70   31.15
   8   0   2  958.43   27.85
   9   0   2   -0.12    0.59
  -9   0  -2    0.79    0.79
  -9   0  -2    0.32    0.87
 -10   0  -2 1655.74   56.19
  10   0   2 1608.48   44.78
 -10   0  -2 1549.23   49.70
  10   0   2 1599.73   46.52
 -11   0  -2    2.15    1.43
  11   0   2    0.02    0.85
  11   0   2    0.58    0.89
 -11   0  -2    0.67    0.95
  12   0   2   39.37    6.05
 -12   0  -2   41.14    7.20
 -12   0  -2   48.90    9.39
  12   0   2   40.69    5.91
  13   0   2   -1.45    1.05
 -13   0  -2   -0.54    1.18
 -13   0  -2    1.90    1.65
  13   0   2    0.29    1.07
 -14   0  -2  619.11   34.11
  14   0   2  610.44   25.65
 -14   0  -2  584.13   29.02
  14   0   2  555.72   23.99
  15   0   2    1.88    1.48
  15   0   2   -0.60    1.46
 -15   0  -2    2.33    1.90
 -15   0  -2    1.10    1.67
 -16   0  -2  620.49   36.71
  16   0   2  602.18   26.52
 -16   0  -2  645.91   32.77
 -17   0  -2    5.56    4.19
 -17   0  -2    2.63    2.66
 -18   0  -2   70.00   15.06
 -18   0  -2   75.67   14.04
 -19   0  -2    2.79    4.07
 -19   0  -2    1.22    5.52
  19  -1  -2    0.44    3.73
 -19  -1   2    1.90    3.04
 -19   1   2    3.27    3.41
 -19   1   2    9.34    6.45
 -19  -1   2    4.81    4.90
 -18   1   2   65.65   12.96
 -18   1   2   70.54   13.93
 -18  -1   2   97.65   14.99
 -18  -1   2   84.87   16.97
  18  -1  -2   57.20    8.97
 -17  -1   2  200.38   20.95
  17  -1  -2  208.96   15.10
 -17   1   2  186.78   17.20
  17  -1  -2  184.13   15.59
 -17   1   2  223.92   20.16
 -17  -1   2  202.74   17.15
  17   1  -2  199.02   13.58
  16   1  -2  490.98   24.90
 -16  -1   2  463.96   31.74
  16  -1  -2  510.99   25.45
 -16   1   2  505.36   30.54
 -16   1   2  489.51   28.94
  16  -1  -2  507.59   26.81
 -16  -1   2  476.40   27.46
 -15   1   2  522.87   29.69
 -15  -1   2  438.95   30.17
 -15  -1   2  523.75   27.94
  15   1  -2  520.83   24.83
  15  -1  -2  561.04   26.01
  15  -1  -2  481.25   25.72
  15  -1  -2  531.63   25.78
 -14   1   2  317.80   21.35
 -14  -1   2  333.60   24.28
  14  -1  -2  340.40   19.47
  14  -1  -2  350.50   19.41
  14   1  -2  360.28   19.04
 -14  -1   2  347.82   21.21
  14  -1  -2  324.42   19.58
  13  -1  -2   71.37    9.14
 -13  -1   2   60.73   11.31
  13   1  -2   66.96    8.36
  13  -1  -2   76.23    9.83
 -13  -1   2   68.64    9.82
  13  -1  -2   70.88    9.00
 -13   1   2   69.20   10.32
 -12  -1   2    3.49    2.03
 -12  -1   2    1.45    1.24
  12  -1  -2    2.26    1.17
  12   1  -2    1.21    0.80
  12   1  -2    2.84    1.25
  12  -1  -2    2.39    1.34
 -12   1   2    2.68    1.64
  12  -1  -2    6.00    1.78
 -11   1   2    0.33    0.90
  11   1  -2   -0.57    0.76
 -11  -1   2   -1.42    0.81
 -11  -1   2    0.96    0.97
  11   1  -2    0.95    0.67
  11  -1  -2    0.52    0.75
  11  -1  -2   -0.27    0.90
  11  -1  -2    0.71    1.01
  11  -1  -2   -0.46    0.83
  10  -1  -2   -0.62    0.78
  10   1  -2   -0.49    0.78
  10   1  -2   -0.61    0.55
  10  -1  -2   -1.87    0.70
 -10  -1   2    0.77    1.18
 -10  -1   2    1.93    0.90
 -10   1   2    0.31    0.71
  10  -1  -2    0.10    0.56
 -10  -1   2    0.75    0.88
  10  -1  -2    1.73    1.12
   9  -1  -2   58.93    7.27
  -9  -1   2   62.84    6.25
   9   1  -2   53.02    3.51
   9  -1  -2   52.84    6.93
   9  -1  -2   56.08    6.88
  -9  -1   2   59.47    9.10
   9   1  -2   57.67    5.34
  -9  -1   2   55.40    3.86
  -8  -1   2  512.18   14.79
  -8  -1   2  468.01   23.66
   8  -1  -2  502.99   20.60
   8   1  -2  477.08   14.23
   8  -1  -2  515.42   20.58
   8   1  -2  517.36   19.77
   8  -1  -2  499.81   20.21
  -8  -1   2  507.11   20.29
  -7  -1   2  350.72   15.47
   7   1  -2  381.85   15.61
   7  -1  -2  379.59   16.58
  -7  -1   2  348.83   18.88
   7  -1  -2  379.56   16.17
   7  -1  -2  373.67   16.14
  -7  -1   2  395.38   11.11
  -6  -1   2  280.48   15.25
   6  -1  -2  282.78   12.84
  -6  -1   2  277.58   11.93
   6   1  -2  277.12   12.41
   6  -1  -2  261.23   12.79
  -6  -1   2  267.47   12.03
   5  -1  -2  111.92    7.42
  -5  -1   2  113.09    8.50
   5  -1  -2  121.75    7.30
  -5  -1   2  115.81    6.64
  -5   1   2  125.27    6.87
  -5  -1   2  108.36    6.67
  -4  -1   2 1114.53   36.69
   4  -1  -2 1148.82   32.67
  -4   1   2 1164.13   32.64
   4  -1  -2 1118.29   31.77
   4   1  -2 1135.11   31.25
   4  -1  -2 1125.13   32.55
  -4  -1   2 1159.52   31.45
  -4   1   2 1192.86   32.11
  -4  -1   2 1117.27   31.24
  -3   1   2 4272.24   96.91
  -3   1   2 4191.55  104.03
   3   1  -2 4108.16   94.44
  -3   1   2 4132.86   99.62
  -3  -1   2 3893.11   97.73
   3   1  -2 4163.61  107.98
   3  -1  -2 4068.34   96.66
  -3   1   2 4041.88   92.64
   3  -1  -2 4074.86  100.20
  -3  -1   2 3998.84   94.67
   3  -1  -2 4036.21   95.52
   2   1  -2 2181.58   52.99
  -2   1   2 2191.53   54.66
   2  -1  -2 2220.75   53.18
  -2  -1   2 2161.50   53.18
  -2   1   2 2204.13   54.18
  -2  -1   2 2170.70   53.57
  -2   1   2 2175.71   57.30
  -2  -1   2 2172.50   53.34
  -2   1   2 2190.62   50.37
  -2   1   2 2188.42   55.32
   2   1  -2 2202.02   60.64
   2   1  -2 2141.82   52.69
   2  -1  -2 2144.51   54.03
   2   1  -2 2196.91   52.81
  -1  -1   2 2207.66   53.79
   1   1  -2 2161.38   53.45
  -1   1   2 2168.06   56.76
  -1  -1   2 2184.99   53.16
  -1  -1   2 2188.69   52.75
   1   1  -2 2166.40   61.11
  -1   1   2 2220.10   53.62
   1   1  -2 2211.92   53.27
  -1   1   2 2202.77   51.05
   1  -1  -2 2149.25   54.42
  -1   1   2 2145.78   54.35
   1  -1  -2 2164.14   52.38
   1   1  -2 2219.35   55.79
   1  -1  -2 2220.84   53.79
   1  -1  -2 2265.97   55.76
  -1   1   2 2213.15   53.76
   0   1   2 3448.92   87.64
   0   1   2 3751.10   87.97
   0  -1  -2 3771.64   85.51
   0   1   2 3829.08   84.54
   0  -1  -2 3709.16   88.63
   0   1   2 3784.75   84.60
   0   1   2 3775.32   86.25
   0   1  -2 3892.15   88.93
   0   1  -2 3785.76   90.14
   0   1   2 3750.66   90.04
   0  -1  -2 3656.83   90.74
   0   1  -2 3641.00   87.43
   0  -1   2 3678.89   90.24
   0  -1   2 3687.99   89.16
   0   1  -2 3498.85   98.49
  -1  -1  -2  515.56   17.51
   1  -1   2  514.15   18.48
  -1  -1  -2  531.98   14.29
  -1   1  -2  546.17   17.78
  -1   1  -2  532.41   18.04
   1   1   2  507.09   13.82
  -1  -1  -2  526.66   16.03
  -1   1  -2  529.60   16.60
   1   1   2  523.92   16.96
   1  -1   2  523.91   16.84
  -1   1  -2  528.11   16.61
   2  -1   2    0.16    0.54
   2   1   2    0.63    0.26
  -2   1  -2    0.14    0.65
  -2  -1  -2    1.44    0.77
  -2  -1  -2    0.01    0.35
  -2   1  -2    0.10    0.81
   2   1   2    0.41    0.97
   2  -1   2    0.38    0.45
   2  -1   2    0.65    0.55
  -2  -1  -2   -0.48    0.35
  -2   1  -2    1.77    0.93
  -2   1  -2    0.52    0.25
   2   1   2    0.91    0.89
   2   1   2    0.10    0.61
   3   1   2   83.75    5.50
   3   1   2   89.31    6.04
  -3   1  -2   86.68    5.49
   3  -1   2   82.13    5.48
  -3  -1  -2   78.21    5.97
  -3  -1  -2   81.04    5.62
  -3   1  -2   89.93    6.16
   3  -1   2   76.88    5.68
  -3  -1  -2   79.88    5.81
   3  -1   2   83.31    5.58
   3   1   2   74.96    5.78
   4   1   2  169.76    5.96
   4  -1   2  175.33    8.84
   4   1   2  175.68    9.57
   4  -1   2  162.08    8.71
   4   1   2  183.48    9.82
  -4  -1  -2  188.52   10.64
   4  -1   2  180.13    9.71
  -4  -1  -2  176.97    9.15
  -5  -1  -2    2.30    1.13
   5   1   2    2.10    0.86
   5  -1   2    1.82    0.82
   5   1   2    0.96    0.42
   5  -1   2    0.31    0.46
  -5  -1  -2    1.61    1.04
   6   1   2  121.00    6.21
   6  -1   2  122.63    7.99
  -6  -1  -2  109.81    7.81
  -6  -1  -2  132.51   10.07
   6  -1   2  115.74    7.65
   6  -1   2  122.18    5.20
   6  -1   2  120.15    8.34
   6   1   2  114.62    5.27
  -7  -1  -2   86.94    8.74
   7   1   2   87.65    5.41
  -7  -1  -2   84.53    6.98
   7  -1   2   91.65    7.51
   7  -1   2   82.33    4.65
   7  -1   2   84.98    6.81
   7  -1   2  101.22    7.50
   7   1   2   84.39    4.83
   8   1   2   25.63    2.68
   8  -1   2   22.90    4.46
  -8  -1  -2   26.15    4.81
   8  -1   2   35.13    5.56
   8  -1   2   26.50    2.69
   8   1   2   27.68    3.61
  -8  -1  -2   30.35    6.44
   8  -1   2   23.69    4.75
   9   1   2    0.48    0.74
   9   1   2   -0.29    0.57
   9  -1   2    1.35    1.09
   9  -1   2    2.07    0.93
  -9  -1  -2   -0.07    0.88
  -9  -1  -2    1.12    0.78
   9  -1   2    2.01    0.78
   9  -1   2    0.55    0.73
 -10  -1  -2  158.72   11.58
 -10  -1  -2  157.43   14.28
  10  -1   2  174.81   12.40
  10  -1   2  188.45    9.51
  10   1   2  175.27    9.36
  10  -1   2  147.22   10.73
  10  -1   2  178.01   11.62
  11  -1   2  724.48   29.05
 -11  -1  -2  687.03   34.65
  11   1   2  687.64   22.30
 -11   1  -2  688.84   29.61
 -11  -1  -2  630.14   28.16
  11   1   2  691.95   23.40
  11  -1   2  735.36   28.15
  11  -1   2  639.80   27.81
  11  -1   2  733.08   24.52
  12  -1   2 1102.41   34.52
  12  -1   2 1044.20   37.71
 -12  -1  -2 1049.51   40.11
  12   1   2 1055.02   32.82
 -12   1  -2 1060.24   40.66
  12  -1   2 1051.72   39.06
 -12  -1  -2 1155.79   48.76
  12   1   2 1078.78   32.12
  12  -1   2 1042.16   39.03
  13   1   2  599.95   21.73
  13  -1   2  640.84   26.76
 -13   1  -2  600.68   28.72
  13  -1   2  612.16   27.03
 -13  -1  -2  593.39   33.94
  13  -1   2  601.32   27.67
  13   1   2  635.24   22.81
 -13  -1  -2  580.62   28.40
 -13   1  -2  563.48   30.36
  14  -1   2  401.42   22.25
 -14  -1  -2  403.80   23.52
 -14   1  -2  411.97   25.46
 -14   1  -2  421.48   23.63
  14   1   2  392.99   17.03
  14  -1   2  391.34   21.17
 -14  -1  -2  412.49   28.41
 -15  -1  -2   67.93   10.74
  15  -1   2   80.13   10.73
 -15   1  -2   71.84   12.10
 -15   1  -2   71.74   11.01
  15  -1   2   67.69    9.53
 -15  -1  -2   88.20   15.05
 -16   1  -2    0.81    1.77
 -16  -1  -2   -3.03    1.82
  16  -1   2    2.20    1.92
 -16   1  -2    3.85    1.83
  16  -1   2    3.82    2.10
 -16  -1  -2    1.82    2.24
  17  -1   2   28.91    4.61
 -17   1  -2   30.49    9.57
 -17  -1  -2   61.85   14.29
 -17   1  -2   21.32    6.52
  17  -1   2   26.17    4.87
 -17  -1  -2   47.95   10.15
 -18  -1  -2   50.20   13.00
 -18  -1  -2   62.93   12.97
 -18   1  -2   70.13   14.93
 -18   1  -2   54.45   11.70
 -19  -1  -2   24.09    9.53
 -19   1  -2   13.52    6.79
 -19   1  -2   15.57    7.60
  19  -2  -2  588.35   36.00
 -19  -2   2  618.60   38.94
 -19   2   2  550.68   36.95
 -18   2   2    8.72    6.80
  18  -2  -2    3.09    4.01
 -18  -2   2   10.93    6.43
 -18   2   2    7.20    5.59
 -18  -2   2   12.78    6.58
  18  -2  -2   27.01    9.16
  17  -2  -2  354.05   23.31
  17  -2  -2  380.88   25.98
 -17  -2   2  367.57   26.03
 -17  -2   2  362.65   31.51
 -17   2   2  380.92   27.13
 -16   2   2    2.74    1.71
  16  -2  -2    0.00    2.12
 -16  -2   2    6.37    2.23
  16  -2  -2    3.08    2.05
 -16  -2   2    1.29    2.27
  15   2  -2    3.97    1.68
  15  -2  -2    2.42    1.91
  15  -2  -2    2.83    1.99
 -15  -2   2    5.82    2.42
 -15  -2   2    2.82    2.00
 -15   2   2    2.39    1.46
  14  -2  -2    8.63    2.94
  14  -2  -2    2.76    1.63
  14   2  -2    1.47    1.45
 -14  -2   2   -1.02    1.59
 -14  -2   2    1.39    1.55
 -14   2   2    0.00    1.34
 -13  -2   2  499.48   26.30
 -13  -2   2  451.93   30.29
  13   2  -2  467.35   20.80
  13  -2  -2  459.50   25.22
  13  -2  -2  461.52   25.46
  12  -2  -2   -1.52    1.12
  12  -2  -2    0.12    1.37
 -12  -2   2    1.42    1.31
  12   2  -2    0.93    1.04
 -12  -2   2    0.08    1.32
  12  -2  -2   -0.40    1.39
  11   2  -2   93.98    7.82
 -11  -2   2   79.87   10.09
  11  -2  -2   75.66   10.48
 -11  -2   2   88.96   13.95
  11  -2  -2   93.42    7.96
  11  -2  -2   71.41   10.04
  10  -2  -2   -0.51    1.05
  10  -2  -2   -0.62    1.20
  10   2  -2   -0.41    0.91
  10  -2  -2   -0.38    0.96
 -10  -2   2    0.14    1.15
 -10  -2   2    3.68    1.37
  -9  -2   2    1.82    1.07
  -9  -2   2    2.09    1.82
   9  -2  -2    4.37    1.94
   9  -2  -2    3.25    0.87
   9   2  -2    3.84    1.55
   9  -2  -2    4.80    2.08
  -8  -2   2    6.44    1.93
  -8  -2   2    7.25    2.17
   8  -2  -2    4.06    1.61
   8  -2  -2    6.10    2.39
  -8  -2   2    5.48    2.84
   8   2  -2    6.06    2.09
  -7  -2   2  334.11   16.43
  -7  -2   2  330.76   15.96
  -7  -2   2  344.93   20.74
   7  -2  -2  334.10   17.61
   7  -2  -2  353.80   17.58
   7  -2  -2  358.30   10.28
  -6  -2   2  102.13    7.37
   6  -2  -2   97.14    4.56
   6  -2  -2   95.98    8.30
  -6   2   2   97.43    4.98
   6  -2  -2   92.56    7.97
   6  -2  -2   97.39    6.68
  -6  -2   2   96.93    7.82
  -5  -2   2 4179.32  111.01
   5  -2  -2 4264.10  106.07
   5  -2  -2 4408.94   97.43
  -5  -2   2 4233.68  104.36
  -5   2   2 4168.19  111.92
   5  -2  -2 4399.62  106.44
  -5  -2   2 4313.53  107.34
   4  -2  -2    1.71    0.94
  -4  -2   2    1.59    1.10
   4   2  -2    4.04    0.79
  -4  -2   2    1.86    1.32
   4  -2  -2    0.39    0.84
  -4   2   2    2.36    1.56
   4  -2  -2   -0.20    0.92
  -4  -2   2    3.39    1.75
  -4   2   2    1.89    1.24
   4  -2  -2    1.78    0.67
  -3   2   2 1923.73   48.27
   3  -2  -2 1919.70   53.78
   3  -2  -2 1947.96   53.49
   3  -2  -2 2005.14   53.61
   3  -2  -2 1974.21   48.48
  -3  -2   2 2031.28   47.87
   3   2  -2 1982.98   50.38
  -3  -2   2 1921.46   53.10
   3   2  -2 2008.65   48.83
  -3  -2   2 1985.48   50.77
  -2   2   2   36.81    3.67
   2   2  -2   29.22    3.08
   2  -2  -2   26.99    3.53
   2  -2  -2   29.13    4.68
   2  -2  -2   27.11    4.45
   2  -2  -2   37.66    4.97
  -2  -2   2   37.85    5.40
  -2  -2   2   38.11    5.94
  -2  -2   2   32.69    3.18
   2   2  -2   36.73    3.29
  -2  -2   2   34.03    3.11
   1   2  -2  311.21   11.97
   1  -2  -2  305.62   13.21
   1  -2  -2  309.57   14.04
  -1   2   2  290.22   13.27
   1   2  -2  300.83   11.17
  -1  -2   2  296.75   13.78
  -1  -2   2  306.65   11.32
   1  -2  -2  309.59   13.39
   1  -2  -2  302.34   12.25
   1  -2  -2  303.38   13.62
   1  -2  -2  296.82   13.38
  -1  -2   2  310.11   12.09
   0   2  -2   19.41    3.28
   0   2   2   18.14    3.53
   0  -2  -2   14.14    3.04
   0  -2   2    9.69    1.86
   0  -2  -2   13.99    2.69
   0  -2   2    9.96    2.78
   0  -2  -2   18.24    3.52
   0  -2  -2   11.65    2.44
   0  -2   2   15.20    3.13
   0   2  -2   19.69    2.76
   0   2  -2   13.81    2.90
   0  -2  -2   12.85    2.70
   0  -2   2   12.18    2.47
   0  -2  -2   10.92    2.73
  -1  -2  -2 2886.76   74.69
   1  -2   2 2878.49   77.02
   1  -2   2 2935.95   73.00
  -1  -2  -2 2885.64   77.18
  -1   2  -2 2897.33   70.73
  -1  -2  -2 2925.75   70.78
  -1  -2  -2 2908.56   75.61
   1  -2   2 2997.25   72.77
   1   2   2 2906.90   71.53
  -1   2  -2 2954.84   73.36
   1   2   2 2908.59   69.85
   2  -2   2   41.50    5.54
   2   2   2   49.64    4.34
  -2  -2  -2   47.79    5.76
  -2  -2  -2   37.42    5.20
  -2   2  -2   42.67    3.78
  -2   2  -2   50.56    4.29
  -2  -2  -2   38.38    5.60
   2  -2   2   44.70    5.49
   2   2   2   49.22    3.87
   2  -2   2   51.42    4.66
   3  -2   2  716.85   23.17
   3  -2   2  741.73   25.68
  -3  -2  -2  686.75   24.72
   3   2   2  730.85   20.75
  -3  -2  -2  722.01   25.81
  -3   2  -2  728.25   20.42
   3   2   2  704.64   21.53
  -3  -2  -2  692.89   26.20
   3  -2   2  705.30   25.21
  -4   2  -2    0.20    0.54
   4   2   2    0.29    0.90
   4  -2   2   -0.65    0.84
  -4  -2  -2   -0.54    0.57
   4   2   2    1.82    1.06
   4  -2   2   -1.11    0.60
   5   2   2    1.80    1.29
   5  -2   2    4.55    2.25
  -5  -2  -2    2.29    1.40
   5  -2   2    0.76    1.25
   5  -2   2    1.00    1.35
  -5   2  -2    2.80    0.81
  -5  -2  -2    2.06    1.91
  -6  -2  -2   -1.90    0.71
  -6  -2  -2   -0.26    0.97
   6  -2   2    1.03    0.60
   6  -2   2   -2.58    0.67
   6  -2   2   -2.28    0.69
   7  -2   2  291.29   16.48
   7  -2   2  297.65   14.80
   7   2   2  287.04   10.70
  -7  -2  -2  313.49   19.42
   7   2   2  294.78   11.17
   7  -2   2  296.48   16.20
  -7  -2  -2  294.76   16.22
   8  -2   2    2.20    0.82
  -8  -2  -2    2.09    2.10
   8   2   2    4.45    1.08
   8  -2   2    3.10    1.56
  -8  -2  -2    0.55    0.93
   8   2   2    4.15    0.85
   8  -2   2    5.07    2.18
  -9  -2  -2 1212.09   42.78
   9  -2   2 1203.05   42.74
   9   2   2 1180.90   32.32
   9  -2   2 1163.79   41.32
   9   2   2 1173.31   33.74
   9  -2   2 1220.03   39.89
  -9  -2  -2 1175.82   49.37
 -10  -2  -2    4.99    2.09
  10  -2   2    3.31    1.02
  10   2   2    2.32    0.94
 -10  -2  -2    2.61    1.95
  10   2   2    3.78    0.85
  10  -2   2    2.97    1.50
  10  -2   2    3.65    1.78
  11  -2   2  587.03   28.33
 -11  -2  -2  534.25   27.05
  11   2   2  541.77   17.50
  11  -2   2  532.60   26.36
 -11  -2  -2  624.47   35.17
  11   2   2  575.46   19.91
  11  -2   2  598.38   23.57
 -12  -2  -2   15.25    4.92
  12  -2   2    4.13    1.11
  12  -2   2    9.26    2.57
 -12  -2  -2    7.34    2.89
  12  -2   2    4.81    1.96
 -13  -2  -2  105.32   13.35
 -13  -2  -2  126.59   18.57
  13  -2   2  110.14   13.55
  13  -2   2  108.77   13.03
 -14  -2  -2   13.23    3.88
 -14   2  -2   10.61    3.64
  14  -2   2    7.11    3.00
 -14  -2  -2    5.61    3.29
  14  -2   2    3.15    1.71
  15  -2   2  752.22   35.75
 -15   2  -2  793.05   37.37
 -15  -2  -2  759.82   38.05
  15  -2   2  779.22   37.16
 -15  -2  -2  762.39   46.04
  16  -2   2   14.13    3.65
 -16  -2  -2   15.07    8.03
 -16   2  -2   11.46    4.10
 -16   2  -2   17.39    6.75
  16  -2   2   17.28    4.05
 -16  -2  -2    7.66    3.13
 -17   2  -2  206.51   20.33
 -17  -2  -2  187.08   26.27
  17  -2   2  188.03   17.50
 -17  -2  -2  221.86   21.07
  17  -2   2  206.23   16.93
 -17   2  -2  221.41   19.62
 -18  -2  -2   -0.31    3.88
 -18  -2  -2    3.02    6.06
 -18   2  -2   -3.16    2.51
 -18   2  -2   10.76    5.44
  18  -2   2   -1.32    3.80
  18  -2   2   -4.51    3.55
  19  -2   2    2.67    4.28
  18  -3  -2    9.39    6.56
 -18   3   2   28.85    8.76
  18  -3  -2   24.36    7.73
 -18  -3   2   21.59    9.82
  17  -3  -2  222.72   21.15
 -17   3   2  172.35   18.24
 -17  -3   2  179.00   23.37
  17  -3  -2  217.71   24.31
  16  -3  -2  179.73   22.04
  16  -3  -2  201.82   19.55
 -16   3   2  172.94   17.79
 -16  -3   2  211.13   19.36
  15  -3  -2  471.25   28.99
  15  -3  -2  470.87   30.22
 -15  -3   2  467.83   30.02
  14  -3  -2  186.42   16.81
  14  -3  -2  217.74   19.05
 -14  -3   2  223.00   18.44
  13  -3  -2   81.94   12.70
 -13  -3   2   60.84   10.42
  13  -3  -2   56.90   10.47
  12  -3  -2    0.16    1.51
 -12  -3   2   -4.83    1.79
  12   3  -2   -0.24    1.32
  12  -3  -2    3.65    2.50
 -12  -3   2    0.15    1.63
 -11  -3   2    4.34    2.08
  11  -3  -2    2.00    1.47
  11   3  -2    3.70    1.29
 -11  -3   2    3.98    1.74
  11  -3  -2    6.47    3.01
  10  -3  -2    1.11    1.36
  10  -3  -2   -0.37    1.10
  10   3  -2    1.40    1.12
 -10  -3   2   -0.20    1.55
  10  -3  -2   -1.09    1.22
 -10  -3   2   -1.09    1.44
   9  -3  -2   19.13    5.44
  -9  -3   2   19.02    4.50
   9  -3  -2   24.73    4.03
  -9  -3   2   16.09    5.00
   9  -3  -2   22.42    5.73
  -8  -3   2  152.76   11.56
  -8  -3   2  142.02   11.84
   8  -3  -2  165.13    7.40
   8  -3  -2  145.88   12.98
   8  -3  -2  149.86   12.92
   8  -3  -2  153.81    9.90
  -8  -3   2  145.11   13.87
  -7  -3   2  518.91   27.93
   7  -3  -2  565.56   22.18
   7  -3  -2  548.45   26.36
   7  -3  -2  553.41   18.08
  -7  -3   2  565.60   25.56
  -6  -3   2  103.19   12.46
  -6  -3   2  114.65    9.88
  -6  -3   2   94.08    7.89
   6  -3  -2   91.60    7.51
   6  -3  -2  103.30   10.03
   6  -3  -2  100.42    6.29
   6  -3  -2   99.75    9.59
   5  -3  -2    9.34    1.97
   5   3  -2    5.76    1.42
   5  -3  -2    7.66    2.82
  -5  -3   2    6.29    2.76
   5  -3  -2   10.92    2.63
  -5  -3   2    7.88    2.12
   5  -3  -2    6.37    2.71
  -5  -3   2    3.72    1.43
   4  -3  -2  190.26   10.08
   4  -3  -2  184.01   12.88
   4  -3  -2  196.19   13.23
  -4  -3   2  191.74   14.46
  -4  -3   2  179.67   12.63
  -4  -3   2  211.52    9.05
   4  -3  -2  195.01   11.97
  -4  -3   2  202.57   11.33
   4   3  -2  209.21    8.99
  -3  -3   2 1581.76   53.78
   3  -3  -2 1664.18   49.90
  -3  -3   2 1650.29   43.68
  -3  -3   2 1586.36   49.63
   3   3  -2 1641.73   44.11
   3  -3  -2 1669.33   50.56
   3  -3  -2 1567.46   49.41
   3  -3  -2 1614.45   44.92
  -3  -3   2 1651.39   46.56
   2  -3  -2 1202.71   39.53
  -2  -3   2 1136.77   42.07
   2  -3  -2 1197.01   38.82
   2  -3  -2 1154.22   35.27
  -2  -3   2 1187.20   35.38
  -2  -3   2 1141.38   38.93
   2  -3  -2 1184.33   38.89
  -2  -3   2 1200.96   34.99
  -1  -3   2 2340.94   69.74
   1  -3  -2 2266.82   66.78
   1  -3  -2 2365.02   64.60
  -1  -3   2 2320.08   64.96
   1  -3  -2 2308.82   66.14
  -1  -3   2 2403.51   62.36
   1  -3  -2 2363.95   65.11
   1  -3  -2 2325.75   61.91
  -1  -3   2 2365.14   61.19
   1  -3  -2 2243.94   63.70
   0  -3   2  794.70   32.22
   0  -3   2  824.12   30.08
   0  -3  -2  802.30   31.00
   0  -3   2  881.23   29.35
   0  -3  -2  837.11   29.93
   0  -3  -2  797.47   28.12
   0  -3  -2  817.29   28.63
   0  -3  -2  834.77   30.95
   0  -3  -2  828.19   28.92
  -1  -3  -2  233.61   14.54
  -1  -3  -2  214.18   13.77
   1  -3   2  228.72   13.45
  -1  -3  -2  229.24   12.93
  -1  -3  -2  223.61   13.32
   1  -3   2  226.82   13.14
  -2  -3  -2   10.96    3.36
   2  -3   2    5.21    1.55
   2  -3   2    2.65    1.41
  -2  -3  -2   12.63    3.72
   3  -3   2  105.57    8.43
   3  -3   2  104.08    9.27
  -3  -3  -2  143.58   11.10
  -3  -3  -2  109.77    9.06
   3  -3   2  116.87    9.94
  -4  -3  -2   13.35    3.37
  -4   3  -2   17.26    3.03
   4  -3   2   18.29    4.72
   4  -3   2   15.31    3.54
  -4  -3  -2   15.00    4.40
   4  -3   2   17.31    4.42
   5  -3   2    4.55    1.42
  -5   3  -2    4.01    1.49
   5  -3   2    0.79    1.18
  -5  -3  -2    3.46    2.09
  -5  -3  -2    2.53    1.21
   5  -3   2    2.39    1.22
   6  -3   2   45.55    6.00
  -6  -3  -2   34.17    6.33
   6   3   2   35.83    4.15
  -6  -3  -2   40.86    7.87
  -6   3  -2   38.83    3.47
   6  -3   2   43.80    7.97
   6  -3   2   29.46    5.93
  -7  -3  -2  127.62   10.74
   7  -3   2  119.80    8.40
   7  -3   2   98.83   11.89
  -7  -3  -2  124.35   11.90
   7  -3   2   96.13   11.70
   8   3   2   25.18    3.46
   8  -3   2   19.31    3.67
   8  -3   2   10.93    4.03
  -8  -3  -2   14.88    4.50
   8   3   2   11.37    1.58
   8  -3   2   17.46    4.90
  -9  -3  -2    3.12    1.96
   9  -3   2    2.53    0.96
   9  -3   2   -0.11    1.37
   9  -3   2   -1.29    1.15
   9   3   2    2.41    1.22
  10  -3   2  103.79   13.24
 -10  -3  -2  106.98   13.45
 -10  -3  -2  135.35   18.22
  10  -3   2   92.03    6.97
  10  -3   2   98.80   13.00
 -11  -3  -2  511.83   35.05
  11  -3   2  565.27   29.95
 -11  -3  -2  566.91   30.32
  11  -3   2  540.85   29.90
  12  -3   2  447.95   27.03
 -12  -3  -2  451.93   27.68
  12  -3   2  464.77   28.07
 -12  -3  -2  497.86   35.43
  13  -3   2  633.40   34.53
  13  -3   2  665.04   34.61
 -13  -3  -2  652.68   35.55
 -13  -3  -2  680.62   44.27
 -14  -3  -2  121.80   16.46
 -14  -3  -2   96.96   18.01
  14  -3   2  125.40   16.49
  14  -3   2  102.36   14.82
 -15  -3  -2   56.14   16.13
  15  -3   2   58.80   12.44
 -15  -3  -2   66.03   12.30
  15  -3   2   91.29   14.30
 -16   3  -2   -0.29    4.90
 -16  -3  -2   -4.11    3.63
  16  -3   2   -1.29    4.63
 -16  -3  -2    0.86    5.06
  16  -3   2    2.92    4.49
 -17   3  -2   94.29   15.60
  17  -3   2   61.56   13.21
 -17  -3  -2  101.71   19.00
 -17  -3  -2   94.36   21.09
  17  -3   2  112.71   17.36
  18  -3   2   -0.09    4.72
  16  -4  -2   82.73   16.15
 -16  -4   2   60.79   15.31
 -15  -4   2    0.57    4.86
  15  -4  -2   -3.06    3.61
  15  -4  -2    0.57    4.25
  14  -4  -2  153.71   20.34
 -14  -4   2  200.90   27.32
  14  -4  -2  160.34   21.55
  13  -4  -2    2.58    3.87
 -13  -4   2   12.44    7.48
  13  -4  -2   -0.59    4.10
 -12  -4   2  110.36   18.15
 -12  -4   2  126.91   12.56
  12  -4  -2  154.55   18.46
  12  -4  -2  168.08   19.51
 -11  -4   2    2.96    2.19
 -11  -4   2   -1.86    2.12
  11  -4  -2   -2.45    1.94
  11  -4  -2    1.04    2.24
  10  -4  -2   -0.32    2.12
  10  -4  -2   -2.99    1.62
 -10  -4   2    0.33    1.90
 -10  -4   2    0.23    1.96
   9  -4  -2    0.03    1.65
   9  -4  -2    0.40    1.82
  -9  -4   2    0.70    1.96
  -9  -4   2    0.26    1.72
  -8  -4   2    1.43    1.33
  -8  -4   2    4.11    2.19
   8  -4  -2    0.27    1.64
   8  -4  -2    3.65    1.40
   8  -4  -2    2.24    1.65
  -8  -4   2   -0.91    1.54
  -7  -4   2    3.36    1.58
  -7  -4   2   -0.22    1.54
   7  -4  -2    1.99    2.09
   7  -4  -2    3.96    1.79
   7  -4  -2    1.25    1.35
  -7  -4   2    1.86    1.62
   7  -4  -2    3.46    1.19
  -6  -4   2  863.28   40.89
   6  -4  -2  904.32   29.78
   6  -4  -2  888.19   33.18
   6  -4  -2  822.79   37.12
   6  -4  -2  876.93   38.02
  -6  -4   2  849.97   32.87
  -6  -4   2  810.85   36.10
  -5  -4   2  143.69   12.88
  -5  -4   2  151.32   10.91
  -5  -4   2  135.94   16.26
   5  -4  -2  124.97   12.05
   5  -4  -2  127.29   10.32
   5  -4  -2  134.27   12.50
   5  -4  -2  142.82    9.76
   4  -4  -2 1499.93   49.59
  -4  -4   2 1522.72   47.14
  -4  -4   2 1458.51   55.95
   4  -4  -2 1519.42   52.43
   4  -4  -2 1525.02   45.67
   4  -4  -2 1400.43   50.94
  -4  -4   2 1444.25   50.98
   3  -4  -2   82.59   10.82
  -3  -4   2   48.63    8.20
   3  -4  -2   52.57    8.60
  -3  -4   2   59.30   10.17
   3  -4  -2   43.42    7.40
  -3  -4   2   58.29    5.51
   3  -4  -2   60.59    7.56
  -3  -4   2   58.81    5.78
  -2  -4   2  145.66   13.90
   2  -4  -2  165.00   11.56
   2  -4  -2  169.29   13.13
  -2  -4   2  171.97   13.55
   2  -4  -2  150.91   12.27
   2  -4  -2  172.18   13.03
  -2  -4   2  173.03   11.12
  -2  -4   2  189.51   11.39
  -1  -4   2   14.04    3.16
   1  -4  -2   18.32    4.25
   1  -4  -2   16.57    4.14
   1  -4  -2   17.60    4.07
   1  -4  -2   16.98    4.44
  -1  -4   2   11.09    3.76
   1  -4  -2   23.10    4.85
   1  -4  -2   14.04    3.62
  -1  -4   2   12.01    2.88
  -1  -4   2   14.95    4.04
   0  -4   2  782.14   30.88
   0  -4  -2  797.23   31.97
   0  -4  -2  813.94   34.09
   0  -4  -2  782.98   31.01
   0  -4   2  786.10   32.61
   0  -4   2  783.56   35.45
   1  -4   2   55.28    8.21
  -1  -4  -2   67.26    9.44
  -1  -4  -2   63.63   10.01
   1  -4   2   61.68    9.09
   2  -4   2  902.48   35.21
  -2  -4  -2  954.39   36.18
   2  -4   2  948.05   36.68
  -2  -4  -2  900.36   38.37
  -3  -4  -2   26.69    6.50
  -3  -4  -2   24.74    5.91
   3  -4   2   18.44    4.37
   3  -4   2   18.72    4.36
   4  -4   2   22.30    4.21
   4  -4   2   18.65    5.07
  -4  -4  -2   22.00    4.93
  -4  -4  -2   21.64    5.59
  -5  -4  -2    6.26    2.13
   5  -4   2    5.93    2.55
  -5  -4  -2    9.32    2.91
   5  -4   2    7.61    2.91
   5  -4   2    7.00    1.89
   6  -4   2    0.97    1.24
   6  -4   2    0.44    1.92
   6  -4   2    0.30    1.27
  -6  -4  -2    3.68    1.60
  -6  -4  -2    8.58    3.60
   7  -4   2    1.15    2.06
  -7  -4  -2   -2.34    1.69
  -7  -4  -2   -1.97    1.60
   7  -4   2    1.31    1.81
   7  -4   2   -1.68    1.30
  -8  -4  -2  361.08   22.31
   8  -4   2  369.69   24.05
  -8  -4  -2  313.62   23.42
   8  -4   2  351.63   23.51
   8  -4   2  361.78   17.94
  -9  -4  -2   28.50    6.74
   9  -4   2   32.00    7.85
   9  -4   2   38.63    8.69
  -9  -4  -2   16.50    3.79
  10  -4   2  703.84   36.92
  10  -4   2  678.42   35.87
 -10  -4  -2  651.16   34.08
 -10  -4  -2  709.27   40.10
 -11  -4  -2   10.30    3.25
  11  -4   2    6.62    2.54
 -11  -4  -2    6.88    3.25
  11  -4   2    3.35    2.34
  12  -4   2    1.11    2.37
 -12  -4  -2   -3.00    2.41
 -12  -4  -2   -2.96    2.86
  12  -4   2    3.26    3.02
 -13  -4  -2   -0.62    3.50
  13  -4   2    3.73    4.23
  13  -4   2    3.22    4.82
 -13  -4  -2    6.87    3.00
 -14  -4  -2  263.34   31.89
  14  -4   2  242.09   22.90
 -14  -4  -2  252.18   23.17
  14  -4   2  215.07   24.54
  15  -4   2   36.22   10.51
  15  -4   2   28.40    9.53
 -15  -4  -2   40.27   11.96
 -15  -4  -2   36.37   12.38
 -16  -4  -2  253.19   28.80
  16  -4   2  282.47   25.73
  13  -5  -2   -1.23    5.95
 -12  -5   2    5.99    5.51
  12  -5  -2    1.44    4.72
  12  -5  -2    7.86    7.24
  11  -5  -2   -1.66    4.08
  11  -5  -2    1.26    3.33
 -11  -5   2    3.08    5.33
  10  -5  -2    1.60    4.44
  10  -5  -2   -3.55    3.39
 -10  -5   2    4.82    5.71
  -9  -5   2    7.93    5.92
   9  -5  -2   14.03    6.30
   9  -5  -2    8.06    4.47
   8  -5  -2  117.75   16.79
  -8  -5   2  119.05   18.27
   8  -5  -2  128.24   17.28
  -7  -5   2   32.07    8.64
   7  -5  -2   37.87    7.92
   7  -5  -2   23.88    6.43
   6  -5  -2  160.52   15.12
  -6  -5   2  182.51   13.43
  -6  -5   2  176.41   21.04
   6  -5  -2  164.67   18.40
  -6  -5   2  171.61   15.90
   5  -5  -2   -0.97    1.92
  -5  -5   2   -0.61    1.81
  -5  -5   2   -0.14    1.76
  -5  -5   2    2.38    2.13
   5  -5  -2    2.33    1.89
   4  -5  -2  139.28   16.15
   4  -5  -2  148.85   13.82
  -4  -5   2  174.60   12.17
  -4  -5   2  167.32   15.29
  -4  -5   2  156.25   19.42
  -3  -5   2  166.32   15.35
   3  -5  -2  179.55   15.09
  -3  -5   2  162.71   11.96
  -3  -5   2  198.61   18.32
  -2  -5   2  941.98   41.09
  -2  -5   2  884.22   43.93
   2  -5  -2  992.92   41.34
  -2  -5   2  960.92   35.88
  -1  -5   2  288.23   20.09
  -1  -5   2  276.40   21.68
  -1  -5   2  304.53   17.89
   0  -5   2  594.90   30.44
   0  -5   2  617.24   28.94
   0  -5  -2  641.01   32.87
  -1  -5  -2   14.89    4.21
   1  -5   2   24.14    6.03
  -1  -5  -2   18.40    4.33
   1  -5   2   19.15    4.40
  -2  -5  -2   10.87    3.20
  -2  -5  -2    8.77    3.02
   2  -5   2    6.71    2.35
   2  -5   2    5.06    2.16
  -3  -5  -2    3.66    1.85
   3  -5   2    2.18    1.60
  -3  -5  -2    2.00    1.93
   3  -5   2   -2.78    1.75
   4  -5   2   65.39   10.46
   4  -5   2   66.37    9.79
  -4  -5  -2   66.64   11.91
  -4  -5  -2   71.23   10.39
  -5  -5  -2    4.17    2.01
  -5  -5  -2    1.07    2.14
   5  -5   2    2.14    1.69
   5  -5   2   -2.31    1.99
   6  -5   2   31.91    6.54
   6  -5   2   21.11    4.04
  -6  -5  -2   21.81    5.93
  -6  -5  -2   22.53    5.46
   7  -5   2    9.86    2.41
   7  -5   2    2.16    2.01
  -7  -5  -2    5.45    2.40
  -7  -5  -2   10.43    2.92
   8  -5   2   44.09    9.67
   8  -5   2   36.61    8.50
  -8  -5  -2   76.90   11.64
  -8  -5  -2   40.15    8.29
  -9  -5  -2    5.53    2.99
   9  -5   2   -0.06    3.94
  -9  -5  -2    2.18    2.74
   9  -5   2   -1.02    3.24
  10  -5   2   99.78   16.85
  10  -5   2  104.25   17.58
 -10  -5  -2   68.29   10.40
 -10  -5  -2   52.43   12.97
 -11  -5  -2   97.20   19.49
  11  -5   2  140.94   20.24
 -11  -5  -2  147.42   18.49
  11  -5   2  111.66   18.81
  12  -5   2  486.98   34.84
 -12  -5  -2  474.80   38.11
 -12  -5  -2  490.88   34.63
  12  -5   2  462.06   33.91
 -13  -5  -2   55.82   13.99
 -14  -5  -2   72.94   19.15
   9  -6  -2   -1.62    6.06
   8  -6  -2    0.53    5.56
  -8  -6   2    5.79    4.65
   8  -6  -2   -1.76    3.94
  -7  -6   2   19.01    6.97
   7  -6  -2   39.49    9.67
   6  -6  -2   34.01   10.57
  -6  -6   2   23.10    8.56
  -5  -6   2  483.80   35.49
  -4  -6   2   67.67   14.97
  -4  -6   2   58.00   12.56
  -3  -6   2  280.49   23.85
  -3  -6   2  311.27   27.43
  -2  -6   2    8.65    6.33
  -2  -6   2   10.08    4.83
  -1  -6   2   51.51    9.91
   0  -6   2   25.79    5.78
   1  -6   2  270.69   20.15
   1  -6   2  260.50   18.71
   2  -6   2  106.52   13.04
   2  -6   2   63.54    9.41
  -2  -6  -2   72.06   11.75
   3  -6   2   80.42   11.64
  -3  -6  -2   82.64   14.65
   3  -6   2   79.37   10.62
  -3  -6  -2   81.87   11.41
  -4  -6  -2    7.25    5.68
   4  -6   2    7.49    2.49
  -4  -6  -2    5.83    2.96
   4  -6   2   18.38    6.75
   5  -6   2    3.05    4.44
  -5  -6  -2    4.81    4.78
   6  -6   2    2.13    4.41
  -6  -6  -2   -3.29    4.53
   7  -6   2   13.43    5.80
  -7  -6  -2    7.80    4.69
  -8  -6  -2    2.99    4.53
   8  -6   2    0.90    3.77
  -9  -6  -2  141.88   22.64
 -20   0   3    0.96    5.31
  19   0  -3    8.17    3.27
 -19   0   3   10.31    5.48
 -19   0   3    8.63    6.16
  18   0  -3   -3.07    2.18
 -18   0   3    0.13    3.22
 -18   0   3   -1.16    3.15
  17   0  -3   99.32   11.96
 -17   0   3  125.21   17.11
  17   0  -3  126.98   10.97
 -17   0   3  110.58   14.40
 -16   0   3   -0.19    1.54
  16   0  -3    0.83    1.60
 -16   0   3   -0.25    1.56
  16   0  -3    1.35    1.56
 -15   0   3  144.35   14.41
  15   0  -3  158.78   12.11
  15   0  -3  159.33   10.82
 -15   0   3  134.67   12.99
  14   0  -3    0.92    1.38
  14   0  -3   -0.68    1.25
 -14   0   3   -0.13    1.08
 -14   0   3    0.88    1.29
  14   0  -3    1.22    1.63
 -13   0   3  678.40   32.74
  13   0  -3  664.10   29.59
 -13   0   3  684.30   31.21
  13   0  -3  650.91   25.17
 -12   0   3    1.18    1.09
  12   0  -3    0.32    0.99
  12   0  -3    1.61    1.35
  11   0  -3 2953.20   74.69
 -11   0   3 2772.53   87.59
  11   0  -3 2906.16   83.72
  10   0  -3   -0.58    0.76
 -10   0   3    4.50    2.35
  10   0  -3    0.56    1.26
  10   0  -3   -0.03    0.89
   9   0  -3 2170.72   57.35
   9   0  -3 2106.81   63.56
   9   0  -3 2310.30   53.80
  -9   0   3 2215.41   68.31
   8   0  -3    0.64    0.78
   8   0  -3   -0.53    0.63
   8   0  -3    3.60    1.55
  -8   0   3    1.90    1.32
   7   0  -3  233.36   10.56
  -7   0   3  252.00   11.05
   7   0  -3  250.44   12.27
   7   0  -3  243.68    9.12
  -7   0   3  259.44   13.88
  -6   0   3    0.12    0.33
   6   0  -3    1.19    0.72
  -6   0   3    0.27    0.95
  -6   0   3    0.20    0.72
   6   0  -3    0.97    0.66
   6   0  -3    0.05    0.47
   5   0  -3  493.32   17.85
  -5   0   3  473.65   15.54
   5   0  -3  468.47   15.44
  -5   0   3  469.14   13.61
  -5   0   3  499.62   18.51
   4   0  -3    0.21    1.33
   4   0  -3   -1.97    1.53
   4   0  -3    0.03    1.58
  -4   0   3    1.45    1.83
  -4   0   3   -1.51    0.88
  -4   0   3    3.60    1.89
  -4   0   3   -3.05    1.26
   3   0  -3  120.18    6.31
   3   0  -3  114.71    6.58
  -3   0   3  118.66    6.13
  -3   0   3  115.25    5.71
  -3   0   3  126.71    7.09
   3   0  -3  116.07    5.40
   3   0  -3  118.92    6.55
   2   0  -3    0.79    0.50
   2   0  -3    0.28    0.43
  -2   0   3   -0.04    0.34
   2   0  -3    1.41    0.58
   2   0  -3    0.62    0.47
  -2   0   3    1.27    0.56
   1   0  -3  493.66   14.05
  -1   0   3  515.93   15.77
  -1   0   3  492.44   14.02
  -1   0   3  483.82   13.68
   1   0  -3  517.51   14.88
  -1   0   3  487.80   15.68
   0   0   3   -0.34    0.22
   0   0   3    0.27    0.37
   0   0  -3   -0.11    0.17
   0   0  -3    1.44    0.44
   0   0  -3    0.70    0.34
   0   0   3    0.60    0.48
  -1   0  -3 3092.97   75.67
   1   0   3 3061.01   75.02
   1   0   3 3204.19   75.94
   2   0   3    0.83    0.93
  -2   0  -3    1.03    0.89
   2   0   3    3.36    1.29
   2   0   3   -1.46    0.50
  -2   0  -3    0.30    0.60
  -2   0  -3    1.26    0.88
   3   0   3 9939.34  227.92
  -3   0  -3 9644.83  217.54
   3   0   3 9862.24  227.14
  -3   0  -3 9781.89  228.83
   3   0   3 9995.33  233.85
  -3   0  -3 9555.75  228.02
   3   0   3 9519.00  221.10
  -4   0  -3   -0.36    0.72
   4   0   3   -0.24    0.90
   4   0   3    0.65    1.15
  -4   0  -3   -1.21    0.61
  -4   0  -3   -0.02    1.14
   4   0   3    0.66    0.80
  -5   0  -3 1476.53   39.89
   5   0   3 1444.73   37.16
  -5   0  -3 1447.58   41.01
   5   0   3 1475.06   39.23
   5   0   3 1480.02   40.99
  -5   0  -3 1544.12   40.87
   6   0   3    1.65    1.41
   6   0   3    0.47    0.81
  -6   0  -3   -0.96    0.65
  -6   0  -3    9.26    2.51
   6   0   3   -0.71    0.83
   7   0   3  218.93   10.58
   7   0   3  224.06   11.56
  -7   0  -3  226.36   11.78
  -7   0  -3  236.84   10.03
   7   0   3  212.27    9.57
  -8   0  -3    2.18    1.30
   8   0   3   -0.71    0.51
   8   0   3    0.36    0.63
  -8   0  -3   -0.70    0.57
  -9   0  -3  713.76   27.04
  -9   0  -3  720.73   30.85
   9   0   3  719.45   23.46
   9   0   3  689.82   26.00
 -10   0  -3    0.96    1.23
  10   0   3   -0.11    0.73
  10   0   3   -1.37    0.68
 -10   0  -3    0.79    0.88
  11   0   3   30.48    4.71
 -11   0  -3   40.40    6.86
  11   0   3   37.88    5.90
 -11   0  -3   52.00    9.21
  12   0   3   -0.76    1.06
  12   0   3    0.32    0.98
 -12   0  -3    0.23    1.05
 -12   0  -3    0.50    1.42
 -13   0  -3    1.42    1.92
  13   0   3    2.80    1.35
 -13   0  -3    2.78    1.81
  13   0   3    1.63    1.21
  14   0   3   -0.58    1.35
  14   0   3    2.24    1.29
 -14   0  -3    1.09    1.89
 -14   0  -3   -1.01    1.33
 -15   0  -3  201.86   18.92
  15   0   3  203.30   12.77
  15   0   3  204.90   13.81
 -15   0  -3  189.88   15.70
 -16   0  -3    2.68    1.88
 -16   0  -3    1.79    2.04
  16   0   3   -0.69    1.69
 -17   0  -3  727.22   36.36
 -17   0  -3  642.20   40.06
 -18   0  -3    2.10    4.17
 -18   0  -3   -2.15    3.78
 -19   0  -3  109.30   17.25
 -19   0  -3  113.79   19.87
  20  -1  -3   12.93    6.78
  19  -1  -3   -2.03    4.05
 -19   1   3    1.53    5.60
 -19  -1   3    0.56    3.35
  19   1  -3    0.25    3.64
 -19   1   3   -0.48    3.46
 -19  -1   3   -2.51    4.37
 -18  -1   3    3.67    3.82
 -18  -1   3    1.78    4.12
  18  -1  -3    0.61    2.33
 -18   1   3   -1.31    4.65
 -18   1   3    3.09    3.65
 -17   1   3    0.51    1.86
 -17  -1   3    1.52    1.97
  17  -1  -3    3.41    2.06
 -17  -1   3   -1.86    1.97
  17  -1  -3   -2.79    2.08
  17   1  -3    1.07    2.15
 -17   1   3   -1.96    2.24
 -16   1   3   18.02    5.51
 -16   1   3   17.33    5.76
 -16  -1   3   15.82    4.50
  16   1  -3   19.99    4.16
  16  -1  -3   25.14    6.02
 -16  -1   3   19.54    4.79
  16  -1  -3   22.50    4.56
  15  -1  -3  553.38   26.83
  15  -1  -3  514.32   26.70
  15   1  -3  537.24   25.95
 -15  -1   3  496.49   27.53
 -15  -1   3  534.36   32.78
 -15   1   3  506.71   29.45
  15  -1  -3  504.64   25.25
  14  -1  -3  658.55   30.20
 -14   1   3  651.02   32.64
  14  -1  -3  667.22   29.18
 -14  -1   3  688.99   36.64
  14   1  -3  577.27   27.67
 -14  -1   3  672.61   31.27
  14  -1  -3  733.85   30.96
  13  -1  -3  639.17   27.47
 -13  -1   3  705.80   35.40
  13  -1  -3  630.21   28.16
 -13   1   3  579.03   29.48
  13   1  -3  607.28   26.49
  13  -1  -3  591.56   27.73
 -13  -1   3  638.91   29.08
  12  -1  -3  316.90   17.79
 -12   1   3  302.63   18.54
 -12  -1   3  302.41   17.70
  12  -1  -3  280.68   17.02
  12   1  -3  282.92   15.79
 -12  -1   3  288.07   20.60
  12  -1  -3  293.87   16.84
 -11   1   3   32.40    6.14
  11   1  -3   34.72    5.57
 -11  -1   3   29.29    7.12
  11  -1  -3   33.09    5.78
  11  -1  -3   36.38    6.27
  11  -1  -3   40.60    6.67
 -11  -1   3   30.00    5.66
 -10  -1   3  198.13    8.35
  10   1  -3  197.18   11.66
 -10  -1   3  188.05   14.89
  10  -1  -3  195.85   12.47
 -10  -1   3  200.28   12.66
 -10   1   3  164.90   12.11
  10  -1  -3  201.51   12.95
  -9  -1   3 1076.84   28.07
   9  -1  -3 1096.21   36.56
  -9   1   3 1009.05   36.64
   9  -1  -3 1010.78   34.41
   9  -1  -3  968.31   37.04
  -9  -1   3 1110.71   41.80
   9   1  -3 1075.80   35.39
  -9  -1   3  990.12   34.63
  -8  -1   3 1441.94   35.14
   8  -1  -3 1398.14   43.50
   8  -1  -3 1326.29   41.31
  -8  -1   3 1372.34   48.29
  -8  -1   3 1354.56   41.79
  -8  -1   3 1454.74   39.43
   8   1  -3 1343.58   42.28
   8  -1  -3 1325.45   44.81
   7  -1  -3 1629.40   50.86
  -7  -1   3 1627.98   47.04
   7  -1  -3 1696.68   47.44
  -7  -1   3 1625.43   44.30
  -7  -1   3 1756.39   41.23
   7   1  -3 1616.49   48.72
  -7  -1   3 1687.72   54.16
   7  -1  -3 1638.74   48.98
   6  -1  -3  312.63   14.34
  -6  -1   3  332.21   13.65
   6  -1  -3  336.16   15.08
  -6  -1   3  334.50   16.85
   6   1  -3  324.92   14.49
  -6  -1   3  319.56   13.26
   6  -1  -3  323.99   15.42
   5  -1  -3    4.23    1.45
  -5  -1   3    2.25    0.96
   5  -1  -3    1.42    0.68
  -5  -1   3    4.42    1.36
  -5  -1   3    2.07    0.42
  -5   1   3    2.02    1.16
   5  -1  -3    3.00    1.33
  -5  -1   3    3.58    1.65
   4  -1  -3    6.56    1.80
  -4  -1   3    6.62    2.16
  -4  -1   3    3.74    1.34
   4  -1  -3   12.70    2.71
  -4  -1   3    4.01    1.15
   4  -1  -3    4.96    1.67
  -4  -1   3    6.27    0.86
  -4   1   3    5.03    1.76
   3   1  -3   12.96    2.48
   3  -1  -3   17.30    3.11
   3  -1  -3   15.08    2.73
   3   1  -3   20.74    3.85
  -3  -1   3   17.23    3.19
  -3   1   3   15.96    2.85
  -3  -1   3   15.78    1.36
  -3  -1   3   12.41    2.45
  -3  -1   3   16.74    1.69
   3  -1  -3   18.73    3.18
  -3   1   3   15.60    3.08
  -3   1   3   17.57    1.38
   2   1  -3  111.45    7.25
   2  -1  -3  103.89    6.09
  -2   1   3  115.58    6.77
  -2  -1   3  108.96    4.21
  -2   1   3  111.38    6.75
  -2  -1   3  104.14    4.71
   2  -1  -3  110.03    6.47
  -2   1   3  105.17    5.80
  -2  -1   3  103.98    6.20
  -2  -1   3  114.22    6.92
   2   1  -3  116.55    6.90
  -2   1   3  114.41    6.46
   1   1  -3 1517.27   43.88
  -1   1   3 1494.60   39.33
  -1   1   3 1477.04   39.40
   1  -1  -3 1407.68   39.94
   1  -1  -3 1496.59   39.97
  -1   1   3 1479.72   38.59
  -1  -1   3 1472.18   37.85
  -1   1   3 1500.72   36.98
  -1  -1   3 1446.89   40.25
   1   1  -3 1507.77   37.56
   1  -1  -3 1456.31   39.19
   0  -1  -3 1994.35   52.57
   0   1  -3 1942.13   52.48
   0  -1  -3 1951.18   51.25
   0  -1  -3 2057.95   49.67
   0  -1   3 2006.55   50.99
   0   1   3 2007.99   51.17
   0   1  -3 2084.55   52.54
   0  -1   3 1975.11   57.55
   0  -1  -3 2045.80   47.92
   0  -1   3 2005.69   52.27
   0   1   3 2040.49   52.06
   0   1   3 1979.41   51.48
   0   1  -3 2064.00   50.76
   0   1   3 2031.02   53.29
  -1  -1  -3 2186.68   58.48
   1   1   3 2252.85   57.82
  -1  -1  -3 2277.39   52.82
  -1   1  -3 2312.20   57.09
  -1   1  -3 2305.12   62.49
   1  -1   3 2302.17   57.57
  -1   1  -3 2223.53   55.56
   1  -1   3 2202.81   63.26
  -1   1  -3 2240.79   57.95
   1   1   3 2233.12   56.88
   1   1   3 2301.71   59.61
  -1  -1  -3 2190.43   60.18
  -2   1  -3  621.56   16.66
  -2   1  -3  629.72   20.16
   2   1   3  650.09   20.25
  -2   1  -3  635.47   21.05
   2  -1   3  625.27   21.83
   2   1   3  583.82   16.79
   2  -1   3  611.59   20.43
  -2  -1  -3  613.07   15.92
   2   1   3  631.17   20.45
  -2  -1  -3  625.62   20.66
   2   1   3  613.05   20.66
  -3   1  -3   11.61    2.56
   3  -1   3   10.81    2.39
  -3  -1  -3   14.60    2.84
   3  -1   3   10.42    2.44
   3   1   3   11.63    2.72
   3  -1   3   14.17    2.61
  -3  -1  -3   12.42    2.62
  -3  -1  -3   14.53    3.00
   3   1   3    9.55    2.28
  -4  -1  -3  606.83   21.43
  -4  -1  -3  579.72   21.31
  -4  -1  -3  615.32   23.23
   4  -1   3  604.30   20.29
   4   1   3  614.94   21.61
   4  -1   3  625.34   22.37
  -5  -1  -3 2305.20   68.41
   5   1   3 2293.18   58.54
   5  -1   3 2330.05   63.20
   5  -1   3 2327.83   59.60
   5  -1   3 2324.68   66.82
   6  -1   3 1792.36   51.91
  -6  -1  -3 1761.40   50.98
   6  -1   3 1721.65   54.08
   6   1   3 1850.34   47.42
   6  -1   3 1750.53   48.44
  -6  -1  -3 1806.36   57.12
   7  -1   3 1385.73   33.77
   7  -1   3 1340.98   34.67
   7  -1   3 1311.26   39.25
   7   1   3 1357.19   37.39
   7   1   3 1349.94   32.93
   7  -1   3 1255.27   43.69
   7  -1   3 1295.95   42.07
  -7  -1  -3 1325.54   47.20
  -7  -1  -3 1343.94   41.61
  -8  -1  -3  622.41   28.69
   8  -1   3  576.57   22.26
   8   1   3  574.65   20.11
  -8  -1  -3  571.37   23.57
  -8   1  -3  566.60   23.26
   8  -1   3  584.83   17.03
   8  -1   3  579.18   17.63
   8   1   3  577.90   16.94
   9  -1   3   38.98    5.86
   9  -1   3   23.90    4.97
  -9  -1  -3   21.63    4.47
   9  -1   3   31.22    2.96
   9   1   3   27.59    4.12
  -9  -1  -3   37.05    7.63
   9   1   3   23.32    2.89
  -9   1  -3   32.49    5.83
   9  -1   3   33.32    6.01
   9  -1   3   28.78    2.65
  10   1   3   15.14    3.03
  10   1   3   21.58    2.81
 -10   1  -3   16.20    4.11
 -10  -1  -3   24.85    5.24
  10  -1   3   29.63    5.69
  10  -1   3    9.57    2.81
 -10  -1  -3   33.10    7.66
  10  -1   3   28.80    3.47
  10  -1   3   22.75    3.11
  10  -1   3   16.44    3.96
 -11  -1  -3   -0.71    0.98
  11   1   3    2.11    1.19
  11   1   3    0.57    0.70
 -11  -1  -3    3.29    1.58
  11  -1   3    3.19    1.08
 -11   1  -3    3.87    1.69
  11  -1   3    2.44    1.25
  11  -1   3    0.66    1.14
  11  -1   3    0.74    1.14
  12  -1   3   20.74    4.41
  12  -1   3   15.00    3.95
  12  -1   3   18.50    4.25
  12   1   3   18.73    3.30
 -12  -1  -3   21.36    6.75
 -12  -1  -3   13.69    4.25
 -12   1  -3   13.47    3.46
  12   1   3   16.29    2.76
  12  -1   3   23.17    3.57
  13  -1   3   36.34    6.11
  13   1   3   25.70    3.63
  13   1   3   28.64    4.33
 -13   1  -3   33.94    7.04
  13  -1   3   23.21    4.90
 -13   1  -3   29.27    7.26
  13  -1   3   40.04    6.62
 -13  -1  -3   32.25    8.60
 -13  -1  -3   35.66    7.19
 -14   1  -3  144.03   12.79
  14  -1   3  126.19   10.80
 -14  -1  -3  118.58   12.04
 -14  -1  -3  148.62   16.02
  14  -1   3  129.95   10.60
 -14   1  -3  101.15   13.98
  14  -1   3  117.88   11.16
  15  -1   3  174.62   14.03
 -15  -1  -3  175.09   17.97
 -15   1  -3  163.69   14.26
  15  -1   3  166.23   12.79
 -15  -1  -3  135.82   13.36
 -15   1  -3  154.37   15.33
 -16   1  -3   19.29    5.92
  16  -1   3   33.24    6.52
 -16  -1  -3   40.17   10.25
 -16   1  -3   34.01    7.39
 -16  -1  -3   40.14    8.32
  16  -1   3   22.09    5.24
 -17   1  -3   -0.52    2.69
 -17  -1  -3    0.19    4.00
  17  -1   3    4.87    2.32
 -17  -1  -3    2.07    4.80
  17  -1   3    8.42    2.27
 -17   1  -3    2.23    3.76
 -18   1  -3  105.29   16.31
 -18   1  -3  101.84   17.62
 -18  -1  -3   91.44   18.22
 -18  -1  -3  102.46   16.67
 -19   1  -3  227.21   21.01
 -19  -1  -3  199.51   23.10
 -19   2   3    1.04    4.12
  19  -2  -3    8.12    5.09
 -19  -2   3    5.51    6.34
  18  -2  -3   -0.44    3.76
 -18   2   3   -0.10    3.35
 -18  -2   3    8.25    5.96
  18  -2  -3   -0.62    4.52
 -18  -2   3    0.16    6.11
 -17  -2   3   14.27    3.83
 -17  -2   3   15.94    7.85
 -17   2   3   21.20    7.58
  17  -2  -3   20.44    3.58
  17  -2  -3   28.13    7.41
  16  -2  -3  218.73   18.59
 -16  -2   3  206.98   21.70
 -16  -2   3  227.65   18.46
 -16   2   3  210.27   17.49
  16  -2  -3  182.63   15.37
  15  -2  -3    4.31    2.14
 -15  -2   3    0.41    1.93
 -15   2   3    1.66    1.55
  15  -2  -3    0.90    1.78
 -15  -2   3    1.52    1.91
  15   2  -3    0.55    1.74
 -14  -2   3    2.08    1.65
 -14   2   3    6.71    2.22
  14   2  -3    5.32    1.66
 -14  -2   3    8.20    3.47
  14  -2  -3    4.37    1.78
  14  -2  -3    5.58    2.63
  13  -2  -3    7.91    2.14
 -13   2   3    8.89    3.24
  13  -2  -3    5.63    2.32
  13  -2  -3    3.74    1.75
 -13  -2   3    0.06    1.46
 -13  -2   3    8.12    2.83
  13   2  -3    5.98    2.06
  12   2  -3 1463.50   46.76
  12  -2  -3 1372.66   49.64
  12  -2  -3 1349.46   48.30
 -12  -2   3 1431.81   59.44
 -12  -2   3 1474.95   50.91
  12  -2  -3 1355.80   49.72
  11  -2  -3   30.49    6.60
 -11  -2   3   28.43    7.99
  11  -2  -3   25.65    5.85
 -11  -2   3   14.17    3.74
  11  -2  -3   29.07    5.67
  11   2  -3   27.93    5.11
  10  -2  -3 2365.81   71.18
  10  -2  -3 2545.02   71.69
  10  -2  -3 2373.41   71.49
  10   2  -3 2447.07   70.80
 -10  -2   3 2433.26   83.44
 -10  -2   3 2458.49   71.98
   9   2  -3   20.77    4.16
   9  -2  -3   19.75    4.86
  -9  -2   3   18.69    4.25
  -9  -2   3   20.99    4.32
   9  -2  -3   23.44    4.57
  -9  -2   3   14.78    4.76
   9  -2  -3   20.43    4.68
   8  -2  -3  201.41   13.25
  -8  -2   3  212.44   12.42
  -8  -2   3  208.20   16.19
   8  -2  -3  208.75   13.71
   8   2  -3  204.53   12.14
  -8  -2   3  203.94   12.55
   8  -2  -3  201.35   12.13
   7  -2  -3    9.75    2.98
   7  -2  -3   15.51    4.02
  -7  -2   3    9.20    2.31
  -7  -2   3   10.99    3.03
   7  -2  -3   24.02    4.39
   6  -2  -3  501.41   21.96
  -6  -2   3  517.38   19.63
  -6  -2   3  559.00   21.77
   6  -2  -3  525.12   21.71
  -6  -2   3  501.19   23.26
  -6   2   3  510.08   15.77
   5  -2  -3    7.65    2.35
   5  -2  -3    6.04    2.41
  -5  -2   3    7.86    1.98
  -5  -2   3    6.84    2.18
  -5   2   3   11.50    2.20
   5  -2  -3    7.40    2.07
  -5  -2   3    8.28    2.90
   4  -2  -3   38.53    5.77
  -4  -2   3   29.70    2.24
  -4  -2   3   30.02    5.73
   4  -2  -3   38.82    5.64
   4  -2  -3   57.38    5.20
  -4   2   3   32.86    3.26
  -4  -2   3   33.88    5.68
  -3  -2   3   61.17    7.65
   3  -2  -3   58.11    6.70
  -3  -2   3   52.68    6.55
   3   2  -3   58.53    3.97
   3   2  -3   61.42    3.86
   3  -2  -3   47.17    4.90
  -3  -2   3   51.70    3.56
  -3  -2   3   53.39    4.00
  -3   2   3   55.79    4.27
   3  -2  -3   48.88    5.93
  -3   2   3   55.84    5.32
  -2  -2   3  337.42   15.20
   2  -2  -3  325.21   14.72
   2   2  -3  317.68   10.75
   2  -2  -3  316.34   13.88
  -2  -2   3  322.76   16.17
  -2  -2   3  322.76   11.39
  -2   2   3  323.67   12.52
  -2   2   3  319.06   13.71
   2   2  -3  331.04   11.82
   2  -2  -3  305.37   14.43
   2  -2  -3  316.55   14.69
  -2  -2   3  339.19   12.13
  -1  -2   3    1.05    1.06
  -1  -2   3   -0.81    0.65
  -1  -2   3   -0.19    0.42
   1  -2  -3   -0.32    0.55
   1   2  -3    0.11    0.94
   1  -2  -3   -0.20    0.69
   1   2  -3   -0.57    0.65
   1  -2  -3   -0.47    0.52
   1  -2  -3   -1.15    0.48
  -1  -2   3    0.17    0.54
  -1   2   3   -0.26    1.00
   0  -2  -3  160.29    8.37
   0  -2   3  170.52    8.90
   0   2  -3  156.48    6.78
   0  -2  -3  159.65    8.92
   0   2   3  156.98    8.66
   0   2   3  165.81    7.88
   0  -2   3  162.89   10.40
   0   2  -3  159.47    8.53
   0  -2  -3  160.01   10.06
  -1  -2  -3   34.58    4.74
  -1   2  -3   45.05    3.57
  -1  -2  -3   41.97    5.91
   1   2   3   39.50    3.38
  -1   2  -3   42.69    4.03
  -1  -2  -3   44.21    5.70
   1  -2   3   34.62    4.66
  -1  -2  -3   34.21    3.35
   1  -2   3   41.86    5.96
   1   2   3   35.56    4.87
   1  -2   3   35.79    5.06
  -2  -2  -3 3266.62   85.91
  -2  -2  -3 3224.62   82.92
   2  -2   3 3274.74   81.37
  -2   2  -3 3208.21   78.88
   2   2   3 3151.20   75.08
  -2  -2  -3 3237.80   82.77
  -2   2  -3 3146.70   77.31
   2  -2   3 3261.27   79.50
   3   2   3   23.31    3.63
  -3  -2  -3   25.28    4.95
  -3  -2  -3   33.89    5.46
  -3   2  -3   29.24    2.72
   3  -2   3   25.03    4.67
   3  -2   3   28.12    5.01
   3   2   3   26.64    2.66
   3  -2   3   22.08    4.77
  -3  -2  -3   25.70    4.54
  -4  -2  -3 4309.11  111.17
  -4  -2  -3 4165.91  117.80
   4  -2   3 4259.04  118.35
   4   2   3 4331.70   97.53
  -4   2  -3 4228.11  102.42
   4  -2   3 4343.45  106.35
   4  -2   3 4245.28  106.31
  -4  -2  -3 4257.17  106.95
   5   2   3   34.66    2.72
   5  -2   3   36.77    5.72
   5  -2   3   30.40    5.31
   5  -2   3   32.05    5.51
  -5  -2  -3   28.85    5.35
  -5  -2  -3   32.05    6.07
  -6  -2  -3  198.42   14.41
   6   2   3  208.79    7.75
   6  -2   3  215.38   12.69
   6  -2   3  219.42   13.25
  -6  -2  -3  195.38   12.83
   6   2   3  211.48    7.86
   6  -2   3  215.68   13.49
   7  -2   3   51.71    5.60
  -7  -2  -3   41.75    7.09
   7  -2   3   25.14    5.42
   7   2   3   41.52    2.69
   7   2   3   33.02    3.22
   7  -2   3   34.87    6.10
  -7  -2  -3   39.91    7.92
   8  -2   3 1017.74   36.62
  -8  -2  -3 1063.63   43.93
   8  -2   3 1006.28   37.52
   8  -2   3 1026.04   36.61
  -8  -2  -3 1000.39   37.58
   8   2   3 1005.65   28.02
   8   2   3 1038.67   29.70
  -9  -2  -3   -0.64    1.38
   9  -2   3    0.07    1.03
  -9  -2  -3    1.65    1.37
   9   2   3    2.13    0.75
   9   2   3    1.60    0.55
   9  -2   3    4.87    1.75
   9  -2   3    0.41    1.25
  10  -2   3  141.46   10.23
  10  -2   3  123.51   11.43
 -10  -2  -3  127.02   11.35
 -10  -2  -3  130.27   14.17
  10   2   3  118.65    6.08
  10   2   3  123.83    6.93
  10  -2   3  118.75   10.73
  11   2   3    3.94    0.97
  11  -2   3    5.20    2.05
 -11  -2  -3    4.83    2.59
 -11  -2  -3    4.43    2.06
  11  -2   3    9.85    2.31
  11  -2   3    3.17    1.68
  12  -2   3   -0.10    1.36
 -12  -2  -3    4.83    2.56
  12  -2   3    6.10    2.33
 -12  -2  -3    0.54    1.31
  12  -2   3    1.53    1.24
 -13   2  -3    0.82    1.77
  13  -2   3    0.90    1.55
 -13  -2  -3   -1.06    1.46
  13  -2   3   -0.33    1.56
 -13  -2  -3    2.10    1.94
  14  -2   3    8.36    2.86
 -14   2  -3   10.32    3.74
 -14  -2  -3   13.07    4.74
  14  -2   3   13.32    3.92
 -14  -2  -3   35.62    9.34
 -15   2  -3    1.70    1.97
 -15  -2  -3   -0.52    2.24
  15  -2   3   -1.51    1.86
 -15  -2  -3    3.42    2.15
  15  -2   3    1.99    2.00
  16  -2   3  474.41   27.35
  16  -2   3  463.51   28.39
 -16   2  -3  508.64   32.56
 -16  -2  -3  483.08   37.98
 -16  -2  -3  493.75   30.81
 -16   2  -3  508.32   28.79
 -17  -2  -3    7.96    5.78
 -17   2  -3    6.92    5.66
 -17   2  -3    6.07    4.91
 -17  -2  -3    6.71    4.54
  17  -2   3   -2.56    3.19
  17  -2   3    2.48    2.79
  18  -2   3  378.12   27.49
 -18   2  -3  439.97   28.63
  18  -2   3  402.84   27.16
 -18  -2  -3  385.97   30.31
 -18   2  -3  374.55   29.38
 -18  -2  -3  376.24   34.77
  19  -2   3    0.64    4.80
 -18   3   3    2.45    4.03
  18  -3  -3    4.88    5.39
 -18  -3   3    1.86    6.74
  18  -3  -3    1.90    5.27
 -17  -3   3    8.43    6.30
  17  -3  -3    2.63    5.07
  17  -3  -3   -0.12    4.20
 -17   3   3    0.95    3.25
 -16  -3   3   45.78    8.59
  16  -3  -3   23.69    8.83
 -16   3   3   46.95   10.49
  16  -3  -3   36.69    9.65
  15  -3  -3  124.95   16.33
  15  -3  -3  120.74   17.19
 -15  -3   3  160.04   18.95
  14  -3  -3  579.69   33.19
 -14  -3   3  585.50   36.77
 -14  -3   3  545.35   31.64
  14  -3  -3  546.15   31.18
  13  -3  -3  215.38   17.68
 -13  -3   3  206.25   19.81
  13  -3  -3  212.28   18.27
  13   3  -3  224.29   13.93
 -13  -3   3  184.33   16.03
  12  -3  -3  318.77   22.44
 -12  -3   3  343.06   22.09
  12  -3  -3  286.23   20.66
 -12  -3   3  351.54   25.33
  12   3  -3  312.58   17.10
  11   3  -3   31.39    5.20
  11  -3  -3   10.93    3.23
  11  -3  -3   27.16    6.69
  11  -3  -3   21.67    4.07
 -11  -3   3   30.25    6.28
 -11  -3   3   17.87    5.66
  10   3  -3  152.89   11.28
 -10  -3   3  168.89   13.36
 -10  -3   3  158.87   15.43
  10  -3  -3  166.78   14.66
  10  -3  -3  151.37   13.59
  10  -3  -3  163.78   10.79
   9  -3  -3  345.82   16.72
   9  -3  -3  331.34   20.50
  -9  -3   3  300.54   21.69
  -9  -3   3  311.65   18.30
   9  -3  -3  298.80   19.83
  -9  -3   3  335.17   19.36
  -8  -3   3 1088.51   44.88
   8  -3  -3 1053.22   41.01
  -8  -3   3 1063.34   38.42
  -8  -3   3 1070.11   39.44
   8  -3  -3 1030.01   40.78
   8  -3  -3 1085.01   36.25
  -7  -3   3  561.51   28.72
   7  -3  -3  529.12   25.83
  -7  -3   3  537.79   23.24
   7  -3  -3  571.43   23.10
  -7  -3   3  518.20   24.69
   7  -3  -3  522.46   25.93
  -6  -3   3  294.81   19.49
  -6  -3   3  294.81   17.30
   6  -3  -3  323.52   16.27
   6  -3  -3  307.89   18.28
   6  -3  -3  279.12   17.26
  -6  -3   3  287.05   14.53
   5   3  -3   35.23    2.83
  -5  -3   3   26.55    6.10
  -5  -3   3   35.29    5.06
   5  -3  -3   39.70    6.04
   5  -3  -3   37.20    6.53
  -5  -3   3   36.67    6.40
   5  -3  -3   29.43    5.73
  -4  -3   3    3.29    0.76
   4  -3  -3    9.46    2.57
  -4  -3   3    4.97    1.97
   4  -3  -3    8.17    2.79
   4  -3  -3    6.14    2.69
   4   3  -3    4.77    1.48
  -4  -3   3    4.42    1.93
  -4  -3   3    9.06    2.39
   3  -3  -3   -0.12    0.71
  -3  -3   3   -0.09    0.82
   3  -3  -3    0.93    0.89
  -3  -3   3    1.13    0.75
  -3  -3   3    2.01    0.75
  -3  -3   3    1.36    1.13
   3  -3  -3    0.44    1.04
   2  -3  -3   99.66    8.48
  -2  -3   3   95.95    6.35
  -2  -3   3  100.90    9.09
   2  -3  -3   93.22    8.53
   2  -3  -3   96.99    8.47
  -2  -3   3   86.79    6.70
  -2  -3   3  107.25   10.25
   2  -3  -3   91.26    8.15
  -1  -3   3  244.07   14.53
   1  -3  -3  244.63   14.18
  -1  -3   3  228.78   10.57
   1  -3  -3  255.47   13.77
   1  -3  -3  223.74   14.17
  -1  -3   3  237.46   15.76
   1  -3  -3  231.62   13.36
  -1  -3   3  241.44   12.56
   1  -3  -3  230.73   13.58
   0  -3  -3 1256.21   43.18
   0  -3   3 1255.88   41.26
   0  -3  -3 1251.85   41.22
   0  -3   3 1337.44   45.17
   0  -3  -3 1240.52   38.82
   0  -3   3 1296.11   39.55
   0  -3  -3 1290.17   41.76
  -1  -3  -3  669.06   26.57
   1  -3   3  642.36   25.67
   1  -3   3  631.12   24.97
  -1  -3  -3  636.91   26.21
  -1  -3  -3  639.73   23.26
  -1  -3  -3  647.43   27.62
  -2  -3  -3  337.99   18.77
  -2  -3  -3  338.13   17.86
  -2  -3  -3  303.30   16.82
   2  -3   3  322.62   16.59
   2  -3   3  324.50   16.84
  -3  -3  -3    1.38    1.06
   3  -3   3    1.67    0.92
  -3  -3  -3    0.29    0.94
  -3   3  -3    0.25    1.27
   3  -3   3   -1.26    0.74
  -3  -3  -3    1.78    1.13
   4  -3   3  226.60   14.74
  -4  -3  -3  237.60   15.13
   4  -3   3  228.87   14.97
  -4   3  -3  218.48    9.61
  -4  -3  -3  225.56   14.45
   4  -3   3  213.85   12.78
   5  -3   3  687.92   29.39
   5  -3   3  706.62   26.02
  -5  -3  -3  670.04   28.42
  -5  -3  -3  644.23   29.14
  -5   3  -3  672.60   19.99
   5  -3   3  672.46   29.03
   6  -3   3 2150.87   65.04
   6  -3   3 2050.80   64.53
   6  -3   3 2044.83   58.00
  -6   3  -3 2118.32   51.71
  -6  -3  -3 2066.39   66.45
  -6  -3  -3 2156.99   64.52
  -7  -3  -3  575.72   26.97
   7  -3   3  587.09   27.81
  -7  -3  -3  575.54   28.62
   7  -3   3  583.75   22.98
   7  -3   3  573.10   27.84
   8  -3   3  298.45   19.04
  -8  -3  -3  267.53   17.56
   8   3   3  283.66   11.30
  -8  -3  -3  253.89   19.00
   8  -3   3  284.48   14.62
   8   3   3  291.19   11.31
   8  -3   3  300.35   19.48
  -9  -3  -3   15.07    4.22
   9  -3   3   16.96    4.80
   9  -3   3   16.53    5.19
   9  -3   3   23.81    4.23
  10  -3   3    9.27    2.91
  10  -3   3    9.03    2.28
  10  -3   3    8.63    3.29
 -10  -3  -3    5.98    3.09
 -10  -3  -3    6.87    2.50
 -11  -3  -3    3.87    2.69
  11  -3   3    3.98    2.16
  11  -3   3    3.27    1.55
 -11  -3  -3    0.94    1.75
 -12  -3  -3    4.97    2.28
  12  -3   3    1.40    1.88
 -12  -3  -3    2.69    2.45
  12  -3   3    1.99    1.77
 -13  -3  -3   27.25    7.12
  13  -3   3   22.32    5.62
  13  -3   3   13.92    3.37
 -13  -3  -3   18.68    5.67
 -14  -3  -3  108.66   20.48
  14  -3   3  113.89   15.38
  14  -3   3  129.73   16.65
 -14  -3  -3  123.82   17.23
 -15  -3  -3   92.40   20.57
  15  -3   3   90.11   14.16
  15  -3   3   73.50   14.21
 -15  -3  -3   84.48   14.49
 -15   3  -3   84.16   12.76
  16  -3   3   45.83   11.13
  16  -3   3   38.62   10.30
 -16   3  -3   33.07    8.79
 -16  -3  -3   23.11   10.48
 -16  -3  -3   47.72   11.85
 -17  -3  -3   -2.56    5.10
 -17   3  -3    0.07    4.15
 -17  -3  -3    0.81    6.40
  17  -3   3    3.28    5.43
  17  -3   3    1.18    4.14
  18  -3   3   77.78   14.08
 -15  -4   3   30.10   10.63
  15  -4  -3   18.90    8.25
  15  -4  -3   25.36    9.54
  14  -4  -3   -1.58    4.04
 -14  -4   3    0.12    3.79
  14  -4  -3    2.87    5.44
  13  -4  -3  157.54   20.64
  13  -4  -3  134.57   18.70
 -13  -4   3  149.41   23.03
  12  -4  -3   41.11    9.38
 -12  -4   3   33.93    8.94
 -12  -4   3   36.90    5.84
  12  -4  -3   21.93    6.34
  11  -4  -3 1088.62   49.10
 -11  -4   3 1091.76   44.73
  11  -4  -3 1054.32   48.08
 -11  -4   3 1114.16   53.66
  11   4  -3 1092.13   40.83
 -10  -4   3   57.13    8.63
 -10  -4   3   47.99   10.54
  10  -4  -3   49.67   10.13
  10  -4  -3   64.22   11.40
  -9  -4   3  701.49   30.74
  -9  -4   3  718.86   38.94
   9  -4  -3  633.23   33.79
   9  -4  -3  645.31   34.20
  -9  -4   3  682.64   33.42
   8  -4  -3    2.65    2.02
   8  -4  -3    5.78    1.59
   8  -4  -3    0.64    1.61
  -8  -4   3    2.92    1.96
  -8  -4   3    1.71    1.70
  -8  -4   3   -2.05    1.61
   7  -4  -3   27.02    6.60
  -7  -4   3   17.95    5.60
   7  -4  -3   26.48    5.92
  -7  -4   3   21.19    5.66
   7  -4  -3   23.63    4.24
  -7  -4   3   37.13    6.12
  -6  -4   3   10.22    3.45
  -6  -4   3    4.78    2.38
  -6  -4   3    9.10    2.55
   6  -4  -3   14.72    3.41
   6  -4  -3   18.32    5.15
   6  -4  -3    8.75    2.98
   5  -4  -3  163.00   14.08
  -5  -4   3  165.33   15.64
   5  -4  -3  163.87   14.09
  -5  -4   3  169.52   14.32
  -5  -4   3  178.47   11.55
   5  -4  -3  183.93   13.20
  -4  -4   3    4.79    2.87
  -4  -4   3    3.14    2.22
   4  -4  -3    1.36    1.36
  -4  -4   3    3.98    1.27
   4  -4  -3    0.28    1.24
   4  -4  -3    3.23    1.51
  -3  -4   3    0.95    1.04
  -3  -4   3    2.00    0.98
   3  -4  -3    3.18    1.40
   3  -4  -3    2.57    1.32
   3  -4  -3    3.69    1.79
  -3  -4   3   -0.18    1.34
  -3  -4   3    0.49    1.45
  -2  -4   3   24.76    5.84
   2  -4  -3   26.20    5.99
  -2  -4   3   11.53    2.76
   2  -4  -3   15.34    4.27
  -2  -4   3   13.11    2.95
   2  -4  -3   18.61    4.52
  -2  -4   3   22.79    5.27
   1  -4  -3  127.37   11.52
  -1  -4   3  123.81   11.68
  -1  -4   3  138.17   13.22
   1  -4  -3  143.91   11.76
   1  -4  -3  156.83   12.04
  -1  -4   3  137.33   10.26
   1  -4  -3  147.97   12.04
   0  -4  -3   -0.40    1.17
   0  -4  -3    3.98    2.17
   0  -4   3    5.69    2.64
   0  -4   3    0.52    1.07
   0  -4  -3    0.22    1.14
   0  -4   3   -0.24    1.12
  -1  -4  -3  595.08   27.37
   1  -4   3  586.69   26.55
  -1  -4  -3  581.99   27.85
   1  -4   3  585.01   27.21
  -2  -4  -3   53.67    8.99
   2  -4   3   60.40    9.03
  -2  -4  -3   53.55    8.80
   2  -4   3   53.59    8.43
  -3  -4  -3 2092.00   66.49
  -3  -4  -3 2117.36   68.92
   3  -4   3 2203.13   64.55
   3  -4   3 2074.08   66.16
   4  -4   3  100.77   12.06
  -4  -4  -3  102.79   12.26
   4  -4   3   81.67   10.16
  -4  -4  -3   93.17   12.53
  -5  -4  -3  599.51   31.52
   5  -4   3  671.59   28.51
   5  -4   3  699.20   32.45
  -5  -4  -3  695.44   31.74
  -6  -4  -3    2.58    1.89
  -6  -4  -3    4.86    1.93
   6  -4   3    4.14    1.61
   6  -4   3    1.79    1.55
   6  -4   3    3.78    2.04
   7  -4   3   88.32   13.03
   7  -4   3  104.35    8.91
  -7  -4  -3   96.35   13.71
   7  -4   3  104.31   13.75
  -7  -4  -3  115.15   11.34
  -8  -4  -3   61.83   10.03
   8  -4   3   44.69    8.39
   8  -4   3   53.48   10.12
   8  -4   3   60.07    7.79
  -8  -4  -3   46.32    8.76
  -9  -4  -3  312.80   23.59
  -9  -4  -3  274.66   20.24
   9  -4   3  255.94   20.29
   9  -4   3  305.93   22.05
   9  -4   3  286.30   15.88
 -10  -4  -3    2.53    2.40
 -10  -4  -3    2.34    2.28
  10  -4   3    5.26    2.26
  10  -4   3    8.11    3.48
 -11  -4  -3   24.25    5.53
  11  -4   3   26.34    5.96
  11  -4   3   27.81    7.50
 -11  -4  -3   32.66    7.84
  12  -4   3    0.41    2.40
 -12  -4  -3    7.17    3.18
  12  -4   3   -1.85    3.16
 -12  -4  -3   -0.56    3.05
 -13  -4  -3   27.95   10.47
 -13  -4  -3   23.85    6.70
  13  -4   3   19.69    8.04
  13  -4   3   16.90    7.84
 -14  -4  -3    1.51    5.02
  14  -4   3    1.00    5.01
 -14  -4  -3   -2.95    4.32
  14  -4   3   -0.55    4.56
 -15  -4  -3  111.56   22.54
 -15  -4  -3  108.62   18.98
  15  -4   3  118.83   18.48
  15  -4   3  103.39   17.83
 -16  -4  -3    7.41    8.49
 -16   4  -3    7.60    6.28
  13  -5  -3  259.50   29.07
  12  -5  -3   54.58   14.20
 -12  -5   3   62.41   15.18
  12  -5  -3   52.40   13.30
 -11  -5   3   16.96    7.18
  11  -5  -3   19.18    7.68
  11  -5  -3   28.52    9.29
  10  -5  -3   63.34   13.20
 -10  -5   3   54.89   14.35
  10  -5  -3   58.58   12.98
  -9  -5   3  350.02   29.97
   9  -5  -3  301.45   25.28
   9  -5  -3  316.24   24.67
   8  -5  -3  138.23   17.95
  -8  -5   3  155.87   21.62
  -8  -5   3  120.14   16.19
   8  -5  -3  134.27   17.75
  -7  -5   3  447.15   28.05
  -7  -5   3  357.08   27.93
   7  -5  -3  412.11   27.22
   7  -5  -3  420.41   27.26
  -6  -5   3   49.65   10.84
   6  -5  -3   36.27    8.14
  -6  -5   3   37.82    8.54
   6  -5  -3   62.09   10.75
   6  -5  -3   40.08    6.60
   5  -5  -3    9.89    2.89
  -5  -5   3   19.56    5.69
  -5  -5   3   10.00    3.50
   5  -5  -3   11.35    3.97
   5  -5  -3   17.39    3.19
   4  -5  -3    6.45    3.45
  -4  -5   3    2.52    2.57
   4  -5  -3    4.10    1.85
  -4  -5   3    4.35    1.93
   3  -5  -3   -0.23    1.64
  -3  -5   3    5.29    2.40
  -3  -5   3    5.96    2.25
  -2  -5   3    1.20    2.04
  -2  -5   3    3.28    1.90
  -2  -5   3    2.14    1.79
  -1  -5   3  148.79   14.23
  -1  -5   3  169.28   12.54
  -1  -5   3  162.34   16.26
   0  -5  -3  196.80   16.25
   0  -5   3  229.07   15.67
   0  -5   3  204.27   16.61
   0  -5  -3  226.96   16.67
  -1  -5  -3  640.38   33.00
   1  -5   3  648.80   32.09
   1  -5   3  693.49   31.84
  -1  -5  -3  688.30   32.54
  -2  -5  -3   12.97    3.81
  -2  -5  -3   15.29    4.10
   2  -5   3   17.54    3.73
   2  -5   3   25.48    5.48
   3  -5   3    2.85    1.65
  -3  -5  -3    2.58    1.90
   3  -5   3    4.71    1.96
  -3  -5  -3   -0.54    2.01
   4  -5   3   71.94   10.33
  -4  -5  -3   48.15    9.28
   4  -5   3   54.84    9.83
  -4  -5  -3   52.61    9.07
  -5  -5  -3  562.26   32.53
   5  -5   3  554.40   31.03
  -5  -5  -3  580.66   30.68
   5  -5   3  566.60   28.05
   6  -5   3  167.52   13.19
  -6  -5  -3  147.76   14.09
  -6  -5  -3  149.53   15.07
   6  -5   3  176.98   16.09
   7  -5   3  476.27   29.75
  -7  -5  -3  491.32   28.89
  -7  -5  -3  446.25   29.99
   7  -5   3  507.25   25.14
  -8  -5  -3   47.50    9.22
   8  -5   3   52.08   10.91
  -8  -5  -3   60.54   10.18
  -9  -5  -3    9.22    3.41
  -9  -5  -3   16.73    3.63
   9  -5   3   -0.18    3.90
 -10  -5  -3    1.05    4.59
  10  -5   3    3.81    4.29
 -10  -5  -3   -0.42    3.16
 -11  -5  -3    7.14    5.82
  11  -5   3    8.68    5.54
  11  -5   3    7.81    5.56
 -11  -5  -3   13.03    5.98
 -12  -5  -3    8.72    8.03
  12  -5   3   -1.25    4.52
 -12  -5  -3    1.70    5.53
  12  -5   3    3.51    5.11
 -13  -5  -3   14.65    9.08
 -14  -5  -3   30.97   13.20
   9  -6  -3   61.00   15.65
   8  -6  -3    2.30    6.99
   7  -6  -3    3.08    5.24
  -7  -6   3   11.54    5.93
  -6  -6   3   29.51    9.77
  -5  -6   3    5.36    4.90
  -5  -6   3   10.83    6.62
  -4  -6   3   10.04    7.00
  -4  -6   3    9.12    6.33
  -3  -6   3    3.07    4.40
  -3  -6   3   -0.49    4.38
  -2  -6   3   31.56    9.98
  -2  -6   3   27.48    7.78
  -1  -6   3    9.86    3.35
   0  -6   3    9.20    2.75
   1  -6   3    0.56    2.72
   1  -6   3    7.17    3.33
   2  -6   3  579.51   31.09
  -2  -6  -3  548.75   32.88
   2  -6   3  536.50   30.40
  -2  -6  -3  509.62   29.40
  -3  -6  -3   82.28   11.75
   3  -6   3   89.99   12.04
   3  -6   3   92.52   12.79
  -3  -6  -3   97.32   14.42
  -4  -6  -3  430.87   30.95
  -4  -6  -3  422.42   26.32
   4  -6   3  438.90   29.75
   4  -6   3  426.88   25.84
  -5  -6  -3   16.69    6.96
   5  -6   3   16.58    3.40
  -5  -6  -3    5.12    3.27
   5  -6   3   18.23    7.66
  -6  -6  -3   15.51    8.00
   6  -6   3   15.61    5.69
  -6  -6  -3   10.73    3.98
  -7  -6  -3    1.58    4.51
   7  -6   3   17.32    6.76
  -7  -6  -3   10.71    5.94
   8  -6   3  126.51   19.65
  -8  -6  -3   99.58   17.91
  -9  -6  -3   25.88    8.38
 -19   0   4    2.93    4.80
 -19   0   4   -3.04    3.69
  19   0  -4    6.14    3.60
 -18   0   4  522.84   35.07
 -18   0   4  572.44   33.23
  18   0  -4  606.50   30.19
  17   0  -4    2.62    1.99
 -17   0   4   -0.35    1.72
  17   0  -4   -0.13    1.97
 -17   0   4    5.12    2.44
 -16   0   4  611.51   34.49
  16   0  -4  646.87   30.33
 -16   0   4  632.56   32.48
 -15   0   4    2.42    1.39
  15   0  -4    4.77    1.69
 -15   0   4    2.67    2.10
  15   0  -4    1.42    1.70
 -14   0   4   67.37   10.82
  14   0  -4   51.22    6.57
  14   0  -4   49.78    8.77
 -14   0   4   51.84    9.06
  14   0  -4   57.84    8.65
 -13   0   4   -0.11    1.08
  13   0  -4    0.31    1.27
  13   0  -4    1.96    1.07
  13   0  -4   -0.18    1.13
  12   0  -4    1.19    1.38
  12   0  -4   -0.53    0.87
  12   0  -4    3.17    1.44
  11   0  -4   -0.06    0.83
  11   0  -4   -0.09    0.92
  11   0  -4    1.98    1.16
 -11   0   4    1.03    1.42
  10   0  -4  482.76   18.78
 -10   0   4  463.59   22.91
  10   0  -4  491.51   15.84
  10   0  -4  467.15   21.47
   9   0  -4   -1.40    0.61
  -9   0   4    0.04    0.62
   9   0  -4    0.05    0.67
  -8   0   4 1875.78   58.86
   8   0  -4 1944.65   51.10
   8   0  -4 1994.39   57.27
   7   0  -4    0.41    0.87
  -7   0   4   -0.12    0.57
  -7   0   4    0.69    1.30
  -7   0   4   -0.36    0.45
   7   0  -4    0.63    1.03
  -6   0   4  161.90    6.75
   6   0  -4  173.36    9.93
   6   0  -4  166.49    9.78
   6   0  -4  174.23    8.03
  -6   0   4  147.13    9.28
  -6   0   4  173.43    8.78
  -5   0   4    0.65    1.04
  -5   0   4   -0.20    0.37
   5   0  -4    0.18    1.31
  -5   0   4   -0.22    0.40
   5   0  -4   -0.40    0.48
   5   0  -4   -0.40    0.35
   5   0  -4    0.42    0.74
  -4   0   4 6582.64  145.81
   4   0  -4 6716.24  166.51
   4   0  -4 6289.06  163.90
  -4   0   4 6389.42  166.56
   4   0  -4 6726.93  168.23
  -4   0   4 6609.77  148.64
   4   0  -4 6442.60  158.44
   3   0  -4   -3.31    0.81
  -3   0   4   -0.32    1.18
   3   0  -4    0.36    1.41
  -3   0   4    3.57    1.67
   3   0  -4   -0.50    1.39
   3   0  -4    1.41    1.39
   2   0  -4 5084.45  123.63
   2   0  -4 5404.58  131.97
  -2   0   4 5309.04  123.46
  -2   0   4 4948.61  117.11
   2   0  -4 4887.81  128.63
  -2   0   4 4967.79  131.88
   2   0  -4 4898.74  127.63
   1   0  -4    0.30    0.28
   1   0  -4    0.68    0.51
  -1   0   4    1.16    0.78
  -1   0   4    0.18    0.34
   1   0  -4    0.32    0.36
  -1   0   4    0.85    0.88
  -1   0   4    0.92    0.52
   0   0   4  392.66   12.09
   0   0   4  388.23   13.32
   0   0  -4  389.97   11.37
   0   0  -4  366.60   13.03
   0   0  -4  381.60   11.99
   0   0   4  380.21   14.31
   1   0   4    0.68    1.18
   1   0   4    1.40    1.38
  -1   0  -4   -0.97    0.88
   2   0   4  145.64    7.39
   2   0   4  139.79    6.52
  -2   0  -4  144.27    6.82
  -2   0  -4  147.91    6.69
   2   0   4  150.83    6.67
  -3   0  -4   -0.68    0.73
  -3   0  -4    0.41    0.90
  -3   0  -4   -0.90    0.74
   3   0   4   -0.70    0.81
   3   0   4   -0.16    1.07
   3   0   4    0.15    0.97
   4   0   4   76.51    4.34
   4   0   4   79.85    5.07
  -4   0  -4   79.63    4.42
  -4   0  -4   80.97    5.59
   4   0   4   75.52    5.75
  -4   0  -4   83.40    5.11
   5   0   4    0.37    0.39
   5   0   4    1.45    1.06
  -5   0  -4    2.55    1.07
  -5   0  -4    2.21    0.92
   5   0   4    1.90    1.25
   6   0   4 1377.14   40.35
   6   0   4 1393.90   38.08
  -6   0  -4 1398.43   38.19
   6   0   4 1318.14   35.53
   7   0   4    1.29    1.35
   7   0   4    1.25    0.81
   7   0   4    0.22    0.47
  -7   0  -4    0.10    0.63
  -7   0  -4    0.46    0.91
   8   0   4  262.55   11.37
   8   0   4  260.38   13.67
  -8   0  -4  260.57   13.85
  -8   0  -4  274.11   16.49
   9   0   4    1.17    0.87
  -9   0  -4    0.56    0.93
   9   0   4    0.26    0.61
  -9   0  -4    0.55    1.01
  10   0   4 2193.28   64.49
 -10   0  -4 2278.44   66.29
 -10   0  -4 2313.17   73.78
  10   0   4 2219.83   58.85
 -11   0  -4   -0.02    0.99
  11   0   4   -0.48    0.80
 -11   0  -4   -0.55    1.12
  11   0   4   -0.29    0.90
 -12   0  -4 1543.69   52.60
 -12   0  -4 1693.98   60.82
  12   0   4 1588.26   49.38
  12   0   4 1512.31   45.55
  13   0   4    0.27    1.10
  13   0   4   -0.03    1.28
 -13   0  -4   -0.22    1.25
 -13   0  -4    2.81    1.58
  14   0   4    5.93    1.67
  14   0   4    4.48    1.76
 -14   0  -4   13.44    3.81
 -14   0  -4    4.09    2.39
  15   0   4    2.39    1.62
 -15   0  -4    0.14    1.72
 -15   0  -4    1.72    1.86
  16   0   4  127.32   10.75
 -16   0  -4  125.87   18.03
 -16   0  -4  124.47   15.02
 -17   0  -4    0.42    3.74
 -17   0  -4   -1.32    2.94
 -18   0  -4    7.19    5.58
 -18   0  -4    1.74    3.76
 -19   0  -4   -0.16    4.56
 -20  -1   4  312.16   25.93
  20  -1  -4  282.35   23.10
 -19   1   4  282.05   23.76
 -19   1   4  242.56   22.93
 -19  -1   4  251.07   25.03
 -19  -1   4  223.60   21.10
  19   1  -4  263.29   20.59
  19  -1  -4  271.11   22.25
 -18  -1   4  188.64   18.54
  18   1  -4  215.98   16.31
 -18  -1   4  230.08   23.13
 -18   1   4  181.80   20.92
  18  -1  -4  197.98   17.09
 -18   1   4  201.61   19.77
  18   1  -4  200.59   16.38
 -17  -1   4    5.10    2.66
  17  -1  -4    4.35    2.62
 -17   1   4    0.35    1.72
 -17  -1   4    4.10    3.51
 -17   1   4    4.19    3.48
  17   1  -4    1.71    2.26
  16  -1  -4   13.66    3.41
 -16  -1   4   24.59    5.71
 -16   1   4   29.55    7.41
  16  -1  -4   23.01    5.51
  16   1  -4   29.58    5.34
  16  -1  -4   22.51    4.11
 -16  -1   4   24.58    6.55
 -15  -1   4   64.25   10.07
  15   1  -4   71.84    9.84
  15  -1  -4   60.97   10.03
  15  -1  -4   74.56   10.12
  15  -1  -4   71.26    9.58
 -15   1   4   80.28   12.65
 -15  -1   4   72.33   12.90
 -14  -1   4  154.62   13.06
  14  -1  -4  165.38   13.72
 -14  -1   4  153.62   15.40
 -14   1   4  158.71   14.16
  14  -1  -4  168.13   13.21
  14   1  -4  149.05   11.93
  14  -1  -4  141.10   11.72
  13   1  -4   19.97    4.46
  13  -1  -4   22.99    4.93
 -13  -1   4   16.21    4.96
 -13   1   4   35.40    7.35
  13  -1  -4   24.69    5.68
 -13  -1   4   39.01    6.89
  13  -1  -4   23.50    4.72
  12  -1  -4    1.62    1.56
 -12  -1   4    5.13    2.23
  12   1  -4    3.58    1.47
 -11   1   4    9.49    3.28
  11  -1  -4    4.73    2.04
 -11  -1   4    8.11    2.64
 -11  -1   4   10.13    4.02
  11   1  -4    6.34    2.39
  11  -1  -4    6.38    2.65
  11  -1  -4    6.27    1.69
  10  -1  -4   17.30    3.81
  10  -1  -4   28.17    5.62
 -10  -1   4   16.46    4.70
 -10   1   4   15.71    4.02
 -10  -1   4   12.64    3.31
 -10  -1   4   14.05    2.43
  10  -1  -4   16.82    4.52
  10   1  -4   14.71    3.57
  -9  -1   4   69.65    6.58
   9  -1  -4   72.08    6.99
   9  -1  -4   72.91    8.96
  -9   1   4   68.60    6.73
   9  -1  -4   57.64    7.69
  -9  -1   4   62.43    5.51
   9   1  -4   79.48    7.14
  -9  -1   4   66.79    9.42
  -9  -1   4   74.36    4.51
  -8   1   4  646.51   24.76
   8  -1  -4  628.40   24.17
  -8  -1   4  641.92   22.01
  -8  -1   4  682.12   18.73
   8   1  -4  637.79   24.54
   8  -1  -4  616.99   25.39
   8  -1  -4  613.08   25.99
  -8  -1   4  616.14   23.84
  -8  -1   4  639.98   28.05
  -7  -1   4 1485.49   42.85
  -7  -1   4 1537.36   35.63
   7   1  -4 1365.72   44.13
   7  -1  -4 1404.21   45.92
   7  -1  -4 1478.45   45.35
  -7  -1   4 1442.14   39.92
   7  -1  -4 1418.99   42.44
  -7  -1   4 1404.87   48.08
  -6  -1   4 3046.50   89.32
  -6  -1   4 3121.85   80.50
   6   1  -4 3144.83   85.30
  -6  -1   4 3110.65   76.53
   6  -1  -4 3103.73   86.33
  -6  -1   4 3260.82   72.77
   6  -1  -4 3201.89   79.84
   6  -1  -4 3146.26   84.09
   5  -1  -4 1751.60   47.67
  -5  -1   4 1789.24   41.57
   5  -1  -4 1721.02   50.00
  -5  -1   4 1713.67   53.56
  -5  -1   4 1715.46   46.53
   5  -1  -4 1718.23   51.20
  -5  -1   4 1744.12   45.83
  -4  -1   4 1228.89   34.13
  -4  -1   4 1202.69   33.00
   4  -1  -4 1233.49   36.88
   4  -1  -4 1263.44   37.72
   4  -1  -4 1194.48   35.28
  -4  -1   4 1185.70   36.21
  -3  -1   4  200.06    7.62
  -3   1   4  192.63    9.79
  -3  -1   4  197.77    7.35
   3  -1  -4  197.89   10.30
   3  -1  -4  204.81   10.05
  -3  -1   4  186.88    9.99
  -3  -1   4  192.64    9.43
   3   1  -4  199.92   10.82
  -2  -1   4  964.38   24.97
   2   1  -4 1025.38   32.08
  -2  -1   4  977.78   28.19
  -2  -1   4  966.81   26.72
  -2   1   4  970.37   28.73
  -2   1   4  955.62   29.23
  -2  -1   4  969.28   29.43
   2  -1  -4  988.83   30.03
   2  -1  -4  995.81   29.57
  -2   1   4  971.80   28.38
   2   1  -4 1014.72   29.27
   2  -1  -4  947.06   28.78
  -2   1   4  990.31   25.40
  -1   1   4 1535.13   40.96
  -1  -1   4 1440.56   45.73
  -1  -1   4 1496.17   39.57
   1   1  -4 1533.63   41.40
   1  -1  -4 1550.95   41.56
  -1   1   4 1522.40   37.29
   1  -1  -4 1491.86   41.75
   1  -1  -4 1493.20   40.78
  -1  -1   4 1494.07   41.51
   1   1  -4 1537.41   45.08
  -1   1   4 1550.54   41.92
  -1   1   4 1483.82   40.36
   0   1  -4 1103.87   33.84
   0  -1   4 1096.50   34.76
   0  -1   4 1059.52   31.33
   0  -1  -4 1023.13   30.85
   0  -1  -4 1057.16   31.80
   0   1   4 1107.33   31.07
   0   1  -4 1048.03   29.72
   0   1   4 1095.62   29.34
   0  -1  -4 1102.03   27.85
   0  -1  -4 1068.60   29.79
   0   1  -4 1083.48   31.54
   0  -1   4 1076.43   30.28
   0   1   4 1111.57   29.63
   0   1   4 1060.30   31.52
  -1   1  -4  560.42   18.56
   1  -1   4  560.12   18.80
  -1  -1  -4  535.61   19.43
   1   1   4  550.71   19.08
  -1  -1  -4  558.87   17.80
  -1  -1  -4  556.72   19.18
   1   1   4  558.27   15.91
  -1   1  -4  569.55   19.53
   1   1   4  600.51   17.59
  -1   1  -4  538.76   14.92
   1  -1   4  535.56   20.68
  -1   1  -4  570.91   16.54
   2  -1   4  221.29   11.28
   2   1   4  208.89    8.96
  -2  -1  -4  213.82   10.36
  -2  -1  -4  220.57    6.37
  -2  -1  -4  214.28    9.74
  -2   1  -4  207.62    7.29
   2  -1   4  193.29    9.96
  -2  -1  -4  207.84   10.63
  -2   1  -4  224.90   10.48
   2   1   4  216.71   10.45
  -2   1  -4  211.98    7.70
  -3  -1  -4   13.33    2.74
   3  -1   4   10.00    2.52
  -3   1  -4   10.37    1.88
   3   1   4   13.39    2.65
   3  -1   4   12.83    2.90
  -3  -1  -4    8.99    2.23
  -3  -1  -4   11.71    2.70
   4  -1   4   14.56    3.42
  -4  -1  -4   16.02    3.25
  -4   1  -4   16.60    2.72
   4  -1   4   17.71    3.16
  -4  -1  -4   13.79    3.27
  -4  -1  -4   16.32    3.34
   4  -1   4   12.22    3.00
   5  -1   4   23.51    4.46
   5  -1   4   20.06    3.56
   5   1   4   24.13    3.50
  -5   1  -4   28.69    4.00
  -5  -1  -4   26.39    4.32
  -5  -1  -4   24.29    4.38
  -5  -1  -4   30.81    5.44
   5  -1   4   27.00    4.79
   6  -1   4  465.57   20.98
   6  -1   4  452.60   18.01
   6  -1   4  492.57   20.53
  -6  -1  -4  475.61   22.58
  -6   1  -4  467.99   18.26
   6   1   4  471.05   17.31
  -6  -1  -4  471.75   19.71
  -7   1  -4 1113.62   35.46
   7   1   4 1132.14   27.73
   7  -1   4 1159.03   35.06
  -7  -1  -4 1181.12   43.06
   7  -1   4  951.25   38.63
  -7  -1  -4 1141.22   37.38
   7  -1   4 1165.15   38.18
   7   1   4 1139.75   33.71
   8  -1   4 1610.94   46.04
   8  -1   4 1691.98   39.63
   8   1   4 1612.07   38.77
  -8   1  -4 1560.88   47.43
  -8  -1  -4 1538.50   48.95
   8   1   4 1632.89   45.30
   8  -1   4 1326.83   51.48
   8  -1   4 1599.60   49.98
  -8  -1  -4 1609.82   56.58
   9  -1   4  641.55   27.36
  -9  -1  -4  648.60   31.77
   9   1   4  653.80   18.65
  -9   1  -4  626.96   25.24
   9  -1   4  702.22   18.86
   9  -1   4  673.57   24.81
  -9  -1  -4  607.32   26.22
   9  -1   4  511.04   26.44
   9   1   4  651.34   23.27
  10  -1   4  277.33   16.20
  10   1   4  258.28   13.11
 -10  -1  -4  274.50   16.35
  10  -1   4  264.93   14.38
 -10   1  -4  248.18   14.76
  10   1   4  243.11    9.83
 -10  -1  -4  257.59   19.12
  10  -1   4  201.45   14.72
 -11   1  -4    0.60    1.03
  11   1   4   -0.17    0.85
  11   1   4    1.10    0.76
 -11  -1  -4    1.05    1.23
  11  -1   4    1.81    0.80
  11  -1   4   -0.46    1.21
  11  -1   4   -0.21    0.99
 -11  -1  -4    2.44    1.68
  11  -1   4    0.05    0.96
  12   1   4  274.20   11.90
  12  -1   4  310.39   16.81
 -12  -1  -4  307.41   19.04
  12  -1   4  311.82   18.90
  12   1   4  275.20   14.58
  12  -1   4  296.73   18.25
 -12   1  -4  305.15   18.09
 -12  -1  -4  283.54   22.00
  13  -1   4  327.13   19.76
 -13  -1  -4  299.60   19.84
  13   1   4  330.61   15.98
 -13   1  -4  321.67   19.44
  13  -1   4  321.59   19.58
 -13   1  -4  305.19   21.58
  13  -1   4  336.18   18.14
 -13  -1  -4  347.96   25.37
 -14  -1  -4  417.39   29.10
 -14  -1  -4  404.42   24.23
  14  -1   4  401.65   22.86
  14  -1   4  441.48   23.14
 -14   1  -4  405.10   26.18
  14   1   4  419.13   19.04
  14  -1   4  420.02   21.28
 -14   1  -4  401.77   23.19
  15  -1   4  214.23   16.18
 -15   1  -4  210.48   16.67
 -15   1  -4  196.53   17.89
  15  -1   4  223.49   14.97
 -15  -1  -4  211.50   17.45
 -15  -1  -4  216.99   20.63
 -16  -1  -4   18.25    4.56
  16  -1   4   24.53    4.67
  16  -1   4   18.58    4.34
 -16  -1  -4   29.43    8.13
 -16   1  -4   36.95    8.90
 -16   1  -4   26.05    6.74
 -17   1  -4   -0.04    4.11
 -17  -1  -4    3.47    4.60
 -17  -1  -4   -2.19    3.37
  17  -1   4    2.55    2.26
 -17   1  -4   -2.32    2.77
 -18  -1  -4    0.69    4.74
 -18   1  -4    1.41    4.63
 -18  -1  -4    1.31    3.64
 -18   1  -4   -0.73    3.30
 -19   1  -4    3.58    4.97
 -19  -2   4  113.42   18.42
  19  -2  -4  130.21   19.47
 -19   2   4  154.85   20.55
 -18  -2   4    5.38    5.42
 -18   2   4    7.88    5.14
  18  -2  -4    1.78    5.03
 -18  -2   4    2.15    4.10
  18  -2  -4    4.69    4.63
 -17  -2   4  642.84   35.26
  17  -2  -4  637.09   32.79
 -17  -2   4  535.05   39.23
 -17   2   4  610.25   35.22
  17  -2  -4  636.02   35.61
  16   2  -4   16.40    3.55
 -16  -2   4   10.21    2.97
 -16  -2   4   23.56    7.60
  16  -2  -4    5.61    2.16
 -16   2   4   10.98    3.05
  16  -2  -4   10.46    3.79
 -15  -2   4  206.58   16.88
  15  -2  -4  224.65   17.10
 -15   2   4  197.21   16.33
  15   2  -4  215.69   14.31
  15  -2  -4  190.74   16.70
 -15  -2   4  219.48   20.95
  14  -2  -4    0.48    1.83
  14   2  -4    1.54    1.46
 -14   2   4   -0.34    1.28
 -14  -2   4    2.58    1.64
 -14  -2   4    3.71    2.30
  14  -2  -4   -0.88    2.01
  14  -2  -4    2.50    1.65
  13  -2  -4    5.93    2.13
  13   2  -4    0.72    1.40
  13  -2  -4   -1.27    1.38
 -13  -2   4    0.93    1.54
  13  -2  -4    2.58    1.94
 -13  -2   4    2.76    1.73
 -13   2   4    2.31    1.65
  12  -2  -4    5.17    2.52
  12   2  -4    3.54    1.77
  12  -2  -4    3.77    2.14
 -12  -2   4    6.89    2.50
 -12  -2   4    4.11    2.10
  12  -2  -4    3.75    2.62
  11   2  -4  147.24   10.81
 -11  -2   4  136.59   14.47
 -11  -2   4  150.20   11.83
  11  -2  -4  136.35   12.09
  11  -2  -4  159.52   12.97
  11  -2  -4  128.80   11.24
 -10  -2   4   17.93    3.98
  10  -2  -4   16.79    4.46
  10   2  -4   20.40    4.12
 -10  -2   4   12.81    3.39
  10  -2  -4   21.81    4.56
  10  -2  -4   14.84    4.40
 -10  -2   4   14.96    5.08
   9  -2  -4  910.68   34.60
  -9  -2   4  885.41   40.05
   9   2  -4  878.17   32.82
   9  -2  -4  896.78   34.21
   9  -2  -4  914.75   34.22
  -9  -2   4  909.99   32.67
  -9  -2   4  852.43   31.52
   8  -2  -4    5.56    2.12
   8  -2  -4    8.87    2.94
  -8  -2   4   11.74    3.13
   8  -2  -4   12.49    3.46
  -8  -2   4    2.45    1.35
   8   2  -4    7.92    2.47
   7  -2  -4  194.00   12.43
  -7  -2   4  174.90   12.95
   7  -2  -4  187.73   11.87
   7  -2  -4  149.98   11.34
  -7  -2   4  183.78   10.55
  -7  -2   4  161.74   10.97
   6  -2  -4   28.46    5.48
   6  -2  -4   40.87    6.05
  -6  -2   4   35.05    4.62
  -6   2   4   37.65    2.51
  -6  -2   4   44.94    7.65
   6  -2  -4   27.85    5.15
  -6  -2   4   42.24    6.34
   5  -2  -4  689.92   26.60
  -5  -2   4  682.50   22.63
  -5  -2   4  704.18   25.95
   5  -2  -4  699.32   25.57
  -5  -2   4  740.29   18.21
  -5  -2   4  681.87   28.16
  -5   2   4  677.35   18.90
   5  -2  -4  728.41   26.03
  -4   2   4  242.91    9.41
   4  -2  -4  238.15   13.28
  -4  -2   4  248.37   10.31
   4  -2  -4  225.13   12.19
   4  -2  -4  235.11   12.47
  -4  -2   4  242.21    8.59
  -4  -2   4  229.53   13.01
  -4  -2   4  233.34   14.17
   3  -2  -4 6025.97  146.57
  -3   2   4 6310.84  147.04
   3   2  -4 6241.01  144.29
  -3  -2   4 6104.02  152.63
   3  -2  -4 6140.39  144.55
  -3   2   4 6151.12  138.63
  -3  -2   4 6102.68  142.15
   3   2  -4 6257.23  144.94
  -3  -2   4 5994.38  144.73
   3  -2  -4 6113.88  151.27
  -2  -2   4   19.78    1.85
  -2  -2   4   14.90    3.40
   2   2  -4   17.51    2.86
   2  -2  -4   23.25    4.28
  -2   2   4   22.92    3.66
   2  -2  -4   20.45    3.66
  -2  -2   4   19.23    2.94
  -2  -2   4   18.26    4.17
   2  -2  -4   20.79    4.11
   2   2  -4   17.71    1.88
  -1  -2   4 1219.09   37.38
   1   2  -4 1211.45   31.18
  -1   2   4 1278.04   35.06
   1  -2  -4 1253.35   35.21
  -1  -2   4 1239.76   39.96
   1  -2  -4 1244.24   35.04
   1   2  -4 1276.34   35.07
   1  -2  -4 1260.07   38.26
  -1  -2   4 1211.26   35.58
   1  -2  -4 1228.37   39.17
   0  -2  -4   10.05    2.95
   0  -2  -4    5.73    1.89
   0  -2   4    6.77    2.06
   0  -2   4    8.43    2.43
   0   2   4    3.05    1.47
   0  -2  -4    6.95    1.76
   0  -2  -4    6.35    1.72
   0  -2   4    5.24    1.62
   0   2  -4    6.39    1.33
  -1  -2  -4   15.79    3.75
  -1  -2  -4   14.35    2.52
   1  -2   4   20.31    3.80
  -1   2  -4   18.84    2.37
   1  -2   4   13.41    3.64
   1   2   4   13.93    3.12
  -1  -2  -4   19.39    4.10
   1  -2   4   16.02    3.37
  -1  -2  -4   21.01    3.54
   1   2   4   14.06    2.47
  -2  -2  -4    0.95    0.75
  -2  -2  -4    3.35    1.42
   2  -2   4    6.32    2.18
   2  -2   4    2.78    1.53
  -2   2  -4    1.49    1.16
  -2  -2  -4    1.31    0.69
  -2   2  -4    1.56    1.15
  -2  -2  -4    0.30    0.96
   3  -2   4    4.54    1.91
  -3  -2  -4    2.12    1.00
  -3  -2  -4    0.62    0.93
   4  -2   4    1.89    1.39
  -4  -2  -4    0.54    1.46
   4   2   4    1.03    0.77
  -4  -2  -4   -0.38    1.00
   4  -2   4   -0.81    1.05
  -4  -2  -4    1.46    1.25
  -5  -2  -4  508.32   22.61
   5  -2   4  485.59   21.06
   5  -2   4  499.36   22.44
  -5  -2  -4  496.00   23.32
   5   2   4  474.44   12.62
   6  -2   4   20.31    4.36
   6  -2   4   13.89    3.62
   6  -2   4   15.00    4.15
  -6  -2  -4   12.37    3.79
  -6  -2  -4   25.66    5.49
   7  -2   4  146.96   10.96
   7  -2   4  136.34   10.58
  -7  -2  -4  139.74   11.17
   7  -2   4  125.73   10.72
   7   2   4  138.87    7.91
  -7  -2  -4  158.77   13.32
   8  -2   4    1.10    1.10
   8   2   4    2.23    0.72
   8  -2   4    1.15    1.19
  -8  -2  -4   -0.02    0.99
   8  -2   4    0.97    0.96
  -8  -2  -4   -0.08    1.16
   9  -2   4  972.48   36.88
   9   2   4  928.20   28.99
   9  -2   4  905.59   36.60
  -9  -2  -4  958.14   43.81
   9  -2   4  951.76   35.55
  -9  -2  -4  919.49   37.14
 -10  -2  -4   59.38    9.42
  10  -2   4   38.38    7.18
  10   2   4   59.10    4.80
 -10  -2  -4   39.79    9.24
  10  -2   4   39.78    7.57
  10  -2   4   56.36    7.98
 -11  -2  -4 1838.73   63.17
 -11  -2  -4 1866.17   74.40
  11   2   4 1863.78   51.68
  11  -2   4 1848.87   59.69
  11  -2   4 2054.55   63.51
 -11   2  -4 1840.72   60.10
  11  -2   4 1789.23   61.44
 -12  -2  -4   12.69    5.42
 -12  -2  -4    5.99    2.99
 -12   2  -4   12.91    3.91
  12  -2   4   12.59    3.15
  12  -2   4   18.46    4.80
  13  -2   4  306.17   20.81
 -13   2  -4  302.31   19.14
 -13  -2  -4  316.83   26.36
 -13  -2  -4  272.54   20.09
  13  -2   4  271.20   18.50
 -14  -2  -4    4.41    2.09
  14  -2   4    5.86    2.78
  14  -2   4    3.04    2.07
 -14   2  -4    0.38    1.61
 -14  -2  -4    1.92    2.27
 -15  -2  -4   18.31    6.23
 -15   2  -4   16.79    4.70
 -15  -2  -4   18.65    5.16
  15  -2   4   21.91    4.57
  15  -2   4   27.81    6.20
 -16  -2  -4    4.61    5.12
  16  -2   4    0.79    2.18
 -16   2  -4    1.05    2.89
 -16   2  -4   -0.88    2.14
 -16  -2  -4    2.63    3.33
  16  -2   4    3.22    2.38
  17  -2   4   74.86   11.03
 -17   2  -4   68.03   12.85
  17  -2   4   37.99    9.62
 -17  -2  -4   51.81   11.89
 -17  -2  -4   74.66   16.75
 -17   2  -4   66.83   13.98
  18  -2   4    1.55    4.32
 -18  -2  -4    5.40    6.58
 -18   2  -4    1.69    4.60
  19  -2   4    8.35    5.70
  18  -3  -4   34.88    9.59
 -18   3   4   29.16    8.08
 -18  -3   4   51.19   14.09
 -17  -3   4    4.34    5.51
  17  -3  -4   -0.88    4.31
  17  -3  -4    3.58    5.04
 -17  -3   4    7.70    6.40
 -17   3   4    4.85    4.15
 -16  -3   4    6.43    5.93
 -16   3   4    2.64    3.26
  16  -3  -4    3.99    5.47
  16  -3  -4    4.85    4.59
 -16  -3   4   13.28    4.04
  15  -3  -4   64.26   12.67
 -15  -3   4   93.43   17.89
  15  -3  -4   58.12   10.80
 -15   3   4   92.40   12.63
 -15  -3   4   73.31   12.05
 -14  -3   4   19.66    6.35
  14   3  -4   33.29    5.64
  14  -3  -4   35.50    7.70
  14  -3  -4   28.31    7.04
 -14  -3   4   26.63    5.17
  13  -3  -4   31.25    7.58
 -13  -3   4   22.45    6.89
  13   3  -4   12.35    2.63
  13  -3  -4   23.83    5.40
 -13  -3   4   25.90    4.77
  12  -3  -4    7.67    3.05
 -12  -3   4    5.00    2.06
 -12  -3   4    0.55    1.81
  12   3  -4    1.96    1.40
  12  -3  -4    1.70    1.53
 -11  -3   4   34.11    8.64
  11  -3  -4   50.71    8.96
 -11  -3   4   59.77    9.57
  11  -3  -4   59.78    7.82
  11  -3  -4   60.81   10.45
  11   3  -4   40.41    6.56
  10  -3  -4    0.87    1.61
  10  -3  -4    3.09    1.31
 -10  -3   4   -1.77    1.43
 -10  -3   4   -1.93    1.22
  10   3  -4   -1.68    1.28
 -10  -3   4    3.56    1.70
  10  -3  -4   -1.53    1.22
   9  -3  -4  125.38   12.13
  -9  -3   4  135.18   10.92
   9  -3  -4  119.49    9.67
   9  -3  -4  116.02   13.32
  -9  -3   4  113.41   15.00
  -9  -3   4  140.79   11.98
  -8  -3   4  297.77   16.46
   8  -3  -4  304.73   19.34
   8  -3  -4  312.25   16.77
  -8  -3   4  276.77   20.08
   8  -3  -4  321.60   19.69
  -8  -3   4  310.34   18.45
   7  -3  -4  825.56   34.11
   7  -3  -4  824.91   31.44
   7  -3  -4  856.04   34.97
  -7  -3   4  831.58   33.40
  -7  -3   4  883.24   38.02
  -7  -3   4  811.73   30.28
  -6  -3   4  729.87   25.20
  -6  -3   4  672.16   28.98
   6  -3  -4  676.67   29.32
   6  -3  -4  663.17   29.62
  -6  -3   4  655.34   31.73
   6  -3  -4  705.49   27.75
  -5  -3   4 1831.04   57.01
  -5  -3   4 1794.63   60.92
   5  -3  -4 1863.76   57.03
   5  -3  -4 1819.11   56.54
  -5  -3   4 1859.30   51.11
   5  -3  -4 1804.49   57.47
  -5  -3   4 1949.30   45.90
   4  -3  -4  301.29   16.76
   4  -3  -4  318.88   17.77
  -4  -3   4  293.51   13.06
  -4  -3   4  338.32   12.69
  -4  -3   4  312.01   17.83
  -4  -3   4  326.42   19.89
   4   3  -4  292.41   11.58
   4  -3  -4  300.11   16.84
  -3  -3   4   17.00    2.85
   3  -3  -4    9.82    2.87
  -3  -3   4   12.78    3.90
   3  -3  -4   10.92    3.08
   3  -3  -4   11.57    3.39
  -3  -3   4   10.45    3.65
  -3  -3   4   17.76    2.95
  -2  -3   4   89.76   11.14
  -2  -3   4  110.35    7.42
   2  -3  -4   95.38    8.22
  -2  -3   4  101.95    9.25
   2  -3  -4  103.94    9.16
   2  -3  -4  104.36    9.19
  -2  -3   4  103.62    6.07
   2   3  -4   91.35    5.48
   1  -3  -4  902.90   31.08
  -1  -3   4  909.21   29.78
   1   3  -4  845.96   25.48
  -1  -3   4  912.49   35.67
   1  -3  -4  916.26   34.23
   1  -3  -4  863.61   32.62
  -1  -3   4  848.76   32.45
   1  -3  -4  889.56   30.66
   0  -3   4  309.78   15.54
   0  -3  -4  334.20   15.59
   0   3  -4  324.19   12.15
   0  -3   4  318.41   18.64
   0  -3  -4  337.27   17.69
   0  -3   4  327.72   17.47
   0  -3  -4  322.30   16.23
   0  -3  -4  335.31   18.57
  -1   3  -4  375.78   14.12
  -1  -3  -4  366.99   18.08
  -1  -3  -4  367.70   15.96
   1  -3   4  370.83   20.44
   1  -3   4  355.09   17.43
  -1  -3  -4  349.55   18.66
   1  -3   4  364.34   18.44
  -1  -3  -4  384.42   20.28
   2  -3   4   69.90    8.45
  -2  -3  -4   78.20   10.15
  -2  -3  -4   74.40    7.30
  -2  -3  -4   76.98    9.36
   2  -3   4   73.66    8.53
   3  -3   4   -0.45    0.79
  -3  -3  -4    0.17    1.05
  -3  -3  -4    0.69    0.81
  -3   3  -4    0.52    1.38
  -3  -3  -4    0.99    1.41
   3  -3   4    1.48    1.01
  -4  -3  -4    4.54    1.64
  -4  -3  -4    1.92    1.09
  -4   3  -4    4.13    1.61
  -4  -3  -4    5.80    2.09
   4  -3   4    2.40    1.17
   4  -3   4    4.37    1.52
  -5  -3  -4   14.94    4.28
   5  -3   4   14.09    4.16
   5  -3   4   13.11    3.85
  -5   3  -4   14.77    2.01
  -5  -3  -4   18.38    4.56
   5   3   4   14.28    2.55
   5  -3   4   18.05    3.77
   6  -3   4  144.09   12.30
  -6  -3  -4  159.82   13.04
   6  -3   4  140.61   12.22
   6  -3   4  155.91   10.76
  -6  -3  -4  141.39   11.88
   7  -3   4  870.96   30.65
  -7  -3  -4  795.23   34.18
   7  -3   4  833.28   35.37
   7  -3   4  821.30   34.73
  -7  -3  -4  847.31   36.18
   8   3   4  370.47   14.83
  -8  -3  -4  403.41   22.36
   8  -3   4  389.18   22.97
   8  -3   4  382.14   22.24
   9  -3   4  673.81   32.69
  -9  -3  -4  667.24   37.44
   9  -3   4  700.90   32.22
   9   3   4  639.56   21.69
 -10  -3  -4  167.80   14.87
  10  -3   4  147.93   13.59
  10  -3   4  162.90   14.72
 -10  -3  -4  149.39   19.61
 -11  -3  -4    2.70    2.05
  11  -3   4    1.35    1.81
  11  -3   4    7.63    3.54
 -11  -3  -4    2.32    2.47
 -12  -3  -4   75.21   12.58
  12  -3   4   69.63   10.98
  12  -3   4   64.82   10.69
 -12  -3  -4   63.84   14.08
 -13   3  -4  328.19   21.19
 -13  -3  -4  347.89   30.85
 -13  -3  -4  348.54   24.93
  13  -3   4  365.90   24.04
  13  -3   4  386.62   26.02
  14  -3   4  155.34   18.90
  14  -3   4  169.73   15.83
 -14  -3  -4  176.28   25.92
 -14  -3  -4  167.87   20.24
 -14   3  -4  188.74   15.53
  15  -3   4  152.90   20.09
 -15   3  -4  142.91   13.76
 -15  -3  -4  154.51   20.84
  15  -3   4  168.48   15.96
 -15  -3  -4  161.80   27.07
  16  -3   4   15.62    6.95
 -16  -3  -4   14.94    7.51
  16  -3   4   17.48    7.39
 -16  -3  -4    8.35    7.09
 -16   3  -4   11.47    5.99
  17  -3   4    9.39    6.03
 -17  -3  -4   11.22    8.25
  17  -3   4    6.28    5.01
 -17   3  -4    2.79    4.83
  18  -3   4    2.73    5.02
 -15  -4   4   -4.22    3.65
  15  -4  -4   -1.35    5.18
  15  -4  -4   -4.79    3.63
  14  -4  -4   38.60   10.77
 -14  -4   4   43.90   13.68
  14  -4  -4   45.81   12.18
  13  -4  -4   -0.15    4.16
 -13  -4   4    2.25    4.24
  13  -4  -4   -3.52    3.00
 -12  -4   4    8.54    2.71
  12  -4  -4    3.44    2.52
 -12  -4   4    2.57    3.74
  12   4  -4    3.23    2.11
  12  -4  -4    0.11    2.43
 -11  -4   4   12.17    2.39
  11   4  -4    1.49    2.01
  11  -4  -4   -0.47    1.95
 -11  -4   4    7.31    2.90
  11  -4  -4    2.59    2.83
 -10  -4   4  249.62   21.80
 -10  -4   4  233.94   18.11
  10  -4  -4  233.26   19.55
 -10  -4   4  223.97   15.77
  10  -4  -4  185.84   17.09
  -9  -4   4   34.62    7.87
  -9  -4   4   44.19    9.92
   9  -4  -4   25.20    6.66
   9  -4  -4   31.33    5.33
  -9  -4   4   30.58    5.06
   9  -4  -4   20.63    5.89
  -8  -4   4  405.60   27.41
  -8  -4   4  399.88   24.17
  -8  -4   4  402.00   20.30
   8  -4  -4  407.08   21.24
   8  -4  -4  400.18   25.12
   8  -4  -4  379.36   24.65
   7  -4  -4    4.70    2.04
  -7  -4   4   16.23    5.09
   7  -4  -4   16.27    3.60
  -7  -4   4    8.97    3.66
   7  -4  -4    9.66    3.54
  -7  -4   4   13.76    3.01
   6  -4  -4   19.94    5.37
   6  -4  -4   24.30    5.04
  -6  -4   4   25.39    6.51
   6  -4  -4   23.79    5.15
  -6  -4   4   27.08    4.43
  -6  -4   4   44.10    9.56
  -5  -4   4   13.14    4.17
   5  -4  -4   13.78    4.17
   5  -4  -4    9.21    3.51
   5  -4  -4   13.27    3.72
  -5  -4   4   16.80    3.30
  -5  -4   4   15.16    4.96
  -4  -4   4 1636.45   46.41
  -4  -4   4 1515.96   54.27
   4  -4  -4 1498.65   53.34
   4  -4  -4 1538.37   53.51
   4  -4  -4 1605.12   55.14
  -4  -4   4 1495.30   58.64
  -4  -4   4 1656.36   45.11
  -3  -4   4  156.21    9.31
   3  -4  -4  134.14   11.94
  -3  -4   4  153.11    9.79
  -3  -4   4  142.95   14.09
   3  -4  -4  129.08   11.55
  -3  -4   4  120.38   13.76
  -2  -4   4 1178.65   38.06
   2  -4  -4 1112.96   43.23
  -2  -4   4 1140.45   46.72
   2  -4  -4 1094.71   40.82
  -2  -4   4 1128.37   43.30
   1  -4  -4    9.74    2.72
   1  -4  -4    7.96    3.12
  -1  -4   4   13.83    3.30
  -1  -4   4   13.50    4.10
  -1  -4   4    5.55    2.60
   1  -4  -4    6.03    2.63
   0  -4  -4  149.01   11.15
   0  -4   4  139.49   11.02
   0  -4   4  136.17   12.14
   0  -4  -4  148.88   12.99
   0  -4  -4  157.68   12.88
   0  -4   4  123.04   14.82
   0  -4  -4  163.46   12.43
  -1  -4  -4    6.65    2.21
   1  -4   4    4.26    1.96
   1  -4   4    0.29    1.14
  -1  -4  -4    3.27    1.92
  -1  -4  -4    4.70    1.92
   2  -4   4   61.13    9.18
   2  -4   4   45.38    7.51
  -2  -4  -4   49.86    8.37
  -2  -4  -4   45.13    8.05
  -2  -4  -4   62.59    9.96
   3  -4   4    7.64    3.01
   3  -4   4    7.92    2.78
  -3  -4  -4    4.20    1.82
  -3  -4  -4    4.83    1.71
   4  -4   4   44.06    7.91
  -4  -4  -4   40.68    7.50
   4  -4   4   55.10    8.23
  -4  -4  -4   45.59    8.28
   5  -4   4   34.17    6.48
  -5  -4  -4   30.82    6.33
  -5  -4  -4   17.69    4.64
   5  -4   4   13.82    4.35
  -6  -4  -4  249.84   18.48
   6  -4   4  212.46   14.58
   6  -4   4  216.64   17.28
  -6  -4  -4  245.19   17.73
  -7  -4  -4    4.79    2.35
   7  -4   4    6.42    2.02
   7  -4   4   14.11    3.97
  -7  -4  -4   12.63    3.18
   8  -4   4   33.69    7.18
   8  -4   4   54.61    7.67
  -8  -4  -4   63.95   10.77
   8  -4   4   29.39    7.20
  -8  -4  -4   46.19    9.10
   9  -4   4   29.70    5.25
  -9  -4  -4   17.92    5.36
   9  -4   4   25.36    6.44
   9  -4   4   42.20    8.62
  -9  -4  -4   24.08    6.47
  10  -4   4  705.46   36.51
 -10  -4  -4  662.23   38.55
 -10  -4  -4  648.29   34.86
  10  -4   4  627.34   35.32
 -11  -4  -4   32.16    6.77
  11  -4   4   35.14    8.41
 -11  -4  -4   30.68    5.54
  11  -4   4   21.97    5.65
  12  -4   4  807.75   41.00
 -12  -4  -4  796.15   41.21
  12  -4   4  757.77   42.04
 -12  -4  -4  634.44   42.01
  13  -4   4   13.38    7.20
  13  -4   4   -0.65    4.46
 -13  -4  -4   19.97    9.19
 -13  -4  -4    1.41    3.87
 -14  -4  -4    0.97    5.11
  14  -4   4   -0.78    4.29
  14  -4   4    3.16    6.43
 -14  -4  -4    3.20    5.23
 -15   4  -4    0.93    4.68
  15  -4   4    1.56    4.88
 -15  -4  -4   -4.20    5.13
 -15  -4  -4    3.66    7.56
 -16   4  -4   28.25    7.81
  13  -5  -4    9.41    9.28
  12  -5  -4   -4.32    4.39
 -12  -5   4    0.50    4.46
  12  -5  -4    2.93    4.36
 -11  -5   4    0.50    4.87
  11  -5  -4   -1.17    4.47
  11  -5  -4    2.85    4.58
  10  -5  -4   18.98    7.66
  10  -5  -4    8.24    5.39
 -10  -5   4    9.89    7.37
   9  -5  -4   17.20    7.06
  -9  -5   4   20.25    8.62
  -9  -5   4   13.34    6.21
   9  -5  -4    9.92    4.59
  -8  -5   4  211.32   18.82
   8  -5  -4  200.74   19.12
  -8  -5   4  194.55   23.91
   8  -5  -4  225.88   19.80
  -7  -5   4  175.82   22.15
   7  -5  -4  181.79   16.79
   7  -5  -4  174.07   16.62
  -7  -5   4  153.81   18.38
   6  -5  -4  823.69   40.21
   6  -5  -4  839.03   36.61
  -6  -5   4  846.95   44.99
  -6  -5   4  772.11   39.27
  -5  -5   4  206.43   19.51
  -5  -5   4  159.84   18.10
   5  -5  -4  201.42   15.19
   5  -5  -4  170.39   15.63
   4  -5  -4  182.96   15.99
  -4  -5   4  183.89   16.58
  -4  -5   4  191.78   18.74
   4  -5  -4  188.45   15.14
  -3  -5   4    0.95    1.84
  -3  -5   4   -0.99    1.81
   3  -5  -4    5.27    2.11
   3  -5  -4    0.63    1.73
  -2  -5   4  111.10   15.74
  -2  -5   4  100.86   13.68
  -2  -5   4  114.45    9.50
   2  -5  -4  113.15   13.50
   2  -5  -4   99.87   13.07
  -1  -5   4   54.22   10.04
  -1  -5   4   44.59    9.40
  -1  -5   4   64.91    8.45
   0  -5   4  278.75   20.04
   0  -5  -4  271.74   19.12
   0  -5   4  299.52   18.32
   1  -5   4   86.78   12.41
  -1  -5  -4  102.43   13.15
  -1  -5  -4   84.36   12.25
   1  -5   4  102.89   12.22
  -2  -5  -4   67.50   10.37
   2  -5   4   68.54   10.49
  -2  -5  -4   66.83   10.98
   2  -5   4   49.00    8.08
   3  -5   4    0.30    1.84
  -3  -5  -4    5.28    2.34
  -3  -5  -4    0.84    2.11
   3  -5   4    2.70    1.84
  -4  -5  -4   12.29    2.70
   4  -5   4    7.55    2.61
  -4  -5  -4   16.61    4.46
   4  -5   4   17.94    3.87
  -5  -5  -4   10.80    2.88
   5  -5   4    7.92    2.88
  -5  -5  -4    9.12    2.66
   5  -5   4   14.06    3.27
  -6  -5  -4  119.82   15.98
   6  -5   4  149.93   17.32
   6  -5   4  126.50   11.40
  -6  -5  -4  117.74   15.35
   7  -5   4  129.70   17.03
  -7  -5  -4  133.12   17.16
   7  -5   4  115.33   10.67
  -7  -5  -4  111.24   14.65
   8  -5   4  427.42   29.51
  -8  -5  -4  407.33   28.30
  -8  -5  -4  415.39   27.25
  -9  -5  -4   63.29   11.72
   9  -5   4   77.83   14.78
  -9  -5  -4   82.45   14.38
 -10  -5  -4  109.97   16.83
 -10  -5  -4   84.25   16.76
  10  -5   4  112.72   17.80
 -11  -5  -4   -3.10    4.11
  11  -5   4   -0.82    3.87
 -11  -5  -4    3.77    5.70
 -12  -5  -4   93.45   17.67
 -12  -5  -4   63.17   14.23
 -13  -5  -4   79.17   18.92
   8  -6  -4   22.25    9.33
  -7  -6   4   33.81   11.19
   7  -6  -4   36.62   10.58
  -7  -6   4   28.64   11.64
  -6  -6   4    1.39    3.36
  -6  -6   4    4.49    5.59
   6  -6  -4   -0.58    3.85
  -5  -6   4  134.38   21.75
  -5  -6   4  193.67   23.00
  -4  -6   4   32.91    9.91
  -4  -6   4   32.74    9.90
  -3  -6   4  645.40   41.91
  -3  -6   4  683.24   39.03
  -2  -6   4   48.43   12.99
  -2  -6   4   40.46   10.36
  -1  -6   4  128.05   17.96
   0  -6   4   -1.11    2.88
   1  -6   4    8.75    3.25
   1  -6   4    7.68    3.81
   2  -6   4    1.41    2.53
  -2  -6  -4    3.18    3.02
  -2  -6  -4    0.00    3.01
   2  -6   4    0.68    2.79
  -3  -6  -4   -3.42    2.98
   3  -6   4    6.31    3.17
  -3  -6  -4    3.31    3.10
   3  -6   4    2.64    2.64
  -4  -6  -4    0.76    3.92
   4  -6   4    3.71    2.66
  -4  -6  -4    2.86    3.36
   4  -6   4    0.67    4.29
  -5  -6  -4  121.38   16.13
   5  -6   4   96.03   16.61
   5  -6   4  104.28   13.54
  -5  -6  -4   90.11   15.93
  -6  -6  -4   27.85    8.73
  -6  -6  -4   11.23    7.42
   6  -6   4    3.39    4.24
  -7  -6  -4   -1.31    4.72
   7  -6   4    6.18    5.72
  -7  -6  -4    4.21    6.04
  -8  -6  -4   -5.48    5.54
  -8  -6  -4    1.89    4.55
  -9  -6  -4   80.69   15.53
  -9  -6  -4  111.27   19.35
  20   0  -5    1.55    4.76
 -19   0   5    0.88    4.52
  19   0  -5    5.99    4.94
 -19   0   5    2.81    4.71
  18   0  -5    4.43    2.67
 -18   0   5    0.92    4.39
 -18   0   5    3.89    3.69
  18   0  -5   -0.06    2.45
 -17   0   5  339.73   25.30
  17   0  -5  370.42   22.21
 -17   0   5  358.80   23.99
 -16   0   5    0.16    1.79
  16   0  -5    2.11    1.93
  16   0  -5    4.36    2.22
 -16   0   5    0.08    1.65
 -15   0   5 1379.51   53.51
  15   0  -5 1365.91   52.79
 -15   0   5 1401.23   56.61
  15   0  -5 1450.94   51.46
  14   0  -5   -0.48    1.58
  14   0  -5   -0.45    1.28
 -14   0   5   -1.83    1.25
 -13   0   5  201.35   15.97
  13   0  -5  226.64   15.92
  13   0  -5  218.20   14.91
 -12   0   5    0.23    0.87
  12   0  -5    3.15    1.40
  12   0  -5    2.80    1.46
  11   0  -5  638.36   27.09
 -11   0   5  630.33   28.91
  11   0  -5  661.55   27.97
  10   0  -5   -0.74    0.76
  10   0  -5    3.29    1.36
 -10   0   5    0.17    2.49
  10   0  -5   -0.53    0.83
   9   0  -5 1127.35   33.24
  -9   0   5 1043.61   38.09
   9   0  -5 1071.45   36.71
   9   0  -5 1038.39   36.79
   8   0  -5    0.89    0.97
  -8   0   5    0.40    0.47
   8   0  -5    1.33    0.87
   8   0  -5    0.94    0.71
  -8   0   5   -0.52    0.58
   7   0  -5  429.23   18.70
   7   0  -5  441.40   18.99
  -7   0   5  460.16   14.10
   7   0  -5  448.02   15.79
  -7   0   5  415.23   18.61
   6   0  -5    0.20    1.10
  -6   0   5   -0.86    0.67
  -6   0   5   -1.66    0.41
  -6   0   5    0.95    1.46
   6   0  -5   -0.15    0.95
   6   0  -5   -0.51    1.05
   5   0  -5    0.47    1.76
   5   0  -5   -1.06    0.91
  -5   0   5    0.40    1.17
  -5   0   5   -1.22    0.71
  -5   0   5    0.62    1.71
   5   0  -5    0.06    1.07
   5   0  -5    5.24    2.12
   4   0  -5   -0.93    0.71
   4   0  -5   -0.16    0.67
  -4   0   5   -0.03    0.51
  -4   0   5    1.36    0.77
   4   0  -5   -0.13    0.51
   4   0  -5    0.69    0.91
   3   0  -5 1863.57   53.13
  -3   0   5 1862.06   51.74
  -3   0   5 1865.30   53.05
   3   0  -5 1840.20   51.75
   3   0  -5 1921.63   51.31
   3   0  -5 2039.60   53.20
   2   0  -5    0.77    0.65
   2   0  -5    0.81    0.73
  -2   0   5   -0.18    0.33
   2   0  -5    3.04    1.12
  -2   0   5    0.63    0.63
  -2   0   5    2.81    1.72
   2   0  -5    0.40    0.49
  -2   0   5    0.11    0.26
   1   0  -5 4551.93  111.87
  -1   0   5 4595.86  111.61
  -1   0   5 4598.21  105.90
  -1   0   5 4451.20  119.60
   1   0  -5 4650.46  106.92
   1   0  -5 4411.09  105.97
  -1   0   5 4515.02  107.40
   0   0  -5    0.79    0.50
   0   0   5    1.85    0.97
   0   0   5    1.12    0.93
   0   0   5    0.34    0.44
   0   0  -5    0.15    0.33
   0   0  -5    0.45    0.41
   1   0   5  657.41   20.44
  -1   0  -5  641.48   19.30
   1   0   5  672.90   19.85
  -1   0  -5  639.93   20.41
  -2   0  -5    1.44    1.48
   2   0   5    0.73    1.59
   2   0   5   -1.14    1.29
   2   0   5    3.71    1.88
   3   0   5 1975.12   51.46
  -3   0  -5 1969.33   51.49
   3   0   5 1934.82   52.93
   3   0   5 2056.00   52.07
  -3   0  -5 1971.46   48.01
  -3   0  -5 2061.72   52.58
  -4   0  -5   -0.53    0.62
  -4   0  -5    0.12    0.51
  -4   0  -5   -0.74    0.43
   4   0   5   -0.12    0.55
   4   0   5    0.98    1.02
  -5   0  -5 3945.43  101.27
   5   0   5 3939.85  101.45
  -5   0  -5 3964.11   99.04
   5   0   5 4189.58   98.89
  -5   0  -5 4190.10   93.51
  -6   0  -5    1.63    1.00
   6   0   5    0.06    0.48
   6   0   5    0.93    0.62
   6   0   5    0.47    1.66
  -7   0  -5  363.27   16.33
  -7   0  -5  368.68   13.82
   7   0   5  365.19   13.32
   7   0   5  350.98   14.38
   7   0   5  335.04   16.18
  -8   0  -5    0.72    0.85
   8   0   5    0.10    0.59
   8   0   5    1.06    1.06
   9   0   5    9.74    2.25
  -9   0  -5    2.98    1.40
   9   0   5    8.76    2.85
  -9   0  -5    7.93    2.41
  10   0   5    0.39    0.75
 -10   0  -5   -0.24    0.76
 -10   0  -5    1.08    1.01
  10   0   5   -0.19    0.94
 -11   0  -5  219.61   14.48
  11   0   5  242.94   14.84
  11   0   5  212.33   11.20
 -11   0  -5  219.02   16.86
  12   0   5    0.32    1.08
 -12   0  -5   -1.47    1.06
 -12   0  -5    0.10    1.15
  12   0   5   -0.29    0.90
  13   0   5  492.86   23.49
 -13   0  -5  506.10   25.73
 -13   0  -5  487.79   29.20
  13   0   5  498.27   20.26
  14   0   5    0.08    1.36
 -14   0  -5   -0.27    1.45
 -14   0  -5   -1.38    1.42
 -15   0  -5   25.43    6.98
 -15   0  -5   18.79    4.72
  15   0   5   19.81    3.83
 -16   0  -5   -0.05    2.01
  16   0   5    4.80    2.02
 -16   0  -5    1.12    2.22
 -17   0  -5  268.49   25.10
 -17   0  -5  230.32   20.40
 -18   0  -5    6.39    5.36
 -18   0  -5   -0.88    2.85
 -20  -1   5   12.18    6.84
  20  -1  -5   14.93    6.71
 -19  -1   5   66.89   14.87
 -19  -1   5   54.35   11.88
 -19   1   5   59.11   13.22
  19   1  -5   71.50   12.76
  19  -1  -5   63.46   12.78
 -19   1   5   55.21   13.12
 -18  -1   5   60.69   14.14
 -18   1   5  105.37   16.58
 -18  -1   5  117.81   16.85
  18   1  -5  107.69   11.15
  18  -1  -5   99.14   14.93
 -18   1   5  108.36   16.96
  18   1  -5   89.59   13.09
 -17  -1   5   88.86   15.59
  17  -1  -5   68.43   10.42
 -17  -1   5  105.60   14.31
  17   1  -5   83.74   11.45
 -17   1   5   77.71   12.61
  17   1  -5  107.84   10.87
 -16   1   5   -0.68    1.60
  16   1  -5    1.48    1.89
  16  -1  -5    4.40    1.98
  16  -1  -5    3.71    2.32
 -16  -1   5    3.81    2.25
 -16  -1   5    3.44    2.21
  16  -1  -5    2.83    1.91
 -15   1   5   37.22    7.74
  15  -1  -5   35.30    6.09
 -15  -1   5   37.90    7.52
  15  -1  -5   28.25    6.23
 -15  -1   5   39.01    9.11
  15   1  -5   40.40    7.11
  15  -1  -5   44.06    7.76
  14  -1  -5  342.72   19.51
 -14  -1   5  328.20   23.64
  14  -1  -5  342.72   20.97
 -14   1   5  370.51   23.16
  14  -1  -5  350.96   21.19
  14   1  -5  358.95   20.27
 -14  -1   5  371.76   21.75
 -13  -1   5 1121.95   42.74
 -13   1   5 1125.51   45.12
  13  -1  -5 1178.95   44.28
  13  -1  -5 1132.75   40.67
  13   1  -5 1078.05   41.00
 -13  -1   5 1184.69   49.30
  12  -1  -5 1066.39   38.15
  12   1  -5 1015.73   38.23
  12  -1  -5 1075.47   42.92
 -12  -1   5 1065.39   39.64
  12  -1  -5 1128.87   41.76
 -12  -1   5 1027.11   44.52
 -12   1   5 1037.50   41.07
 -11  -1   5  712.02   29.71
 -11   1   5  731.83   30.79
  11  -1  -5  750.07   32.76
 -11  -1   5  743.18   34.48
  11   1  -5  734.26   29.43
  11  -1  -5  766.07   31.88
  11  -1  -5  747.09   29.29
  10   1  -5  204.98   13.09
 -10  -1   5  206.20    9.04
 -10  -1   5  182.73   14.51
  10  -1  -5  192.26   12.55
 -10  -1   5  206.83   13.15
  10  -1  -5  191.96   13.63
 -10   1   5  194.71   12.78
 -10  -1   5  198.80   10.96
  10  -1  -5  184.69   13.69
   9   1  -5   32.83    5.53
   9  -1  -5   28.27    4.95
  -9   1   5   25.20    4.93
  -9  -1   5   29.65    4.56
  -9  -1   5   25.63    4.81
   9  -1  -5   29.41    5.43
   9  -1  -5   31.89    6.23
  -9  -1   5   27.22    6.03
  -8  -1   5    7.82    2.21
  -8   1   5    9.00    2.59
   8   1  -5    9.91    2.43
   8  -1  -5   11.28    3.24
   8  -1  -5    9.18    2.64
  -8  -1   5    6.37    2.44
  -8  -1   5   11.58    2.02
   8  -1  -5    6.37    2.16
   7  -1  -5   71.92    6.70
   7   1  -5   62.43    6.19
   7  -1  -5   68.41    6.93
  -7  -1   5   66.36    4.23
   7  -1  -5   61.49    7.69
  -7   1   5   69.77    5.80
  -7  -1   5   61.10    5.43
  -7  -1   5   71.44    7.48
   6   1  -5   28.22    4.89
  -6  -1   5   22.24    4.63
  -6  -1   5   19.62    2.41
  -6   1   5   17.37    3.16
   6  -1  -5   17.24    3.94
  -6  -1   5   22.04    3.75
   6  -1  -5   15.63    3.81
  -5   1   5   46.96    2.55
   5  -1  -5   56.18    5.74
  -5  -1   5   52.54    4.77
   5  -1  -5   52.23    5.36
   4  -1  -5  351.91   15.19
  -4   1   5  323.33   11.11
  -4  -1   5  326.97   14.70
   4  -1  -5  319.36   15.10
  -4  -1   5  323.48   13.65
   3  -1  -5  199.72   11.09
  -3  -1   5  194.65   10.36
   3  -1  -5  209.67   10.50
   3   1  -5  198.25   11.25
  -3  -1   5  214.28    8.88
  -3  -1   5  214.46   10.31
   2  -1  -5    2.18    1.14
   2   1  -5    1.32    1.37
  -2  -1   5    1.56    0.94
  -2   1   5    1.90    0.93
   2  -1  -5    4.53    1.54
   2  -1  -5    5.17    1.64
  -2   1   5    4.14    0.72
  -2  -1   5    2.44    0.91
  -2  -1   5    1.37    0.74
  -1  -1   5  224.58   12.13
   1  -1  -5  222.94   10.70
  -1  -1   5  223.23   10.81
   1  -1  -5  233.61    9.86
  -1  -1   5  220.41    9.85
   1   1  -5  229.64   10.92
  -1   1   5  228.09    7.20
  -1   1   5  222.48    9.36
   0   1  -5 2405.41   61.78
   0  -1   5 2458.22   70.35
   0   1   5 2464.08   63.38
   0  -1  -5 2346.05   63.94
   0  -1   5 2431.35   63.09
   0  -1  -5 2492.48   59.43
   0   1   5 2499.07   62.86
   0  -1  -5 2375.46   62.55
   0  -1  -5 2502.72   63.34
   0   1  -5 2447.86   63.22
   0  -1   5 2375.72   62.54
  -1  -1  -5 3744.38   91.00
  -1  -1  -5 3500.70   91.25
   1   1   5 3647.38   90.44
  -1   1  -5 3572.42   86.66
  -1  -1  -5 3607.17   89.23
   1  -1   5 3587.35   99.83
  -1   1  -5 3550.48   89.74
   1   1   5 3771.41   92.56
  -1  -1  -5 3514.14   93.42
  -1   1  -5 3610.24   88.42
  -2  -1  -5 1931.42   51.68
  -2  -1  -5 1870.74   53.00
  -2  -1  -5 1894.48   49.34
   2  -1   5 1952.96   57.67
  -2   1  -5 1939.69   47.78
  -2  -1  -5 1910.79   53.24
  -2   1  -5 1941.16   48.52
   2  -1   5 1893.16   52.20
  -3   1  -5 2407.86   60.34
   3  -1   5 2473.40   64.95
   3  -1   5 2422.53   70.73
  -3  -1  -5 2399.98   67.47
  -3   1  -5 2400.11   59.45
  -3  -1  -5 2389.51   64.90
  -4   1  -5  447.22   12.55
  -4  -1  -5  431.35   18.23
  -4  -1  -5  441.95   18.61
  -4   1  -5  457.81   15.58
  -4  -1  -5  436.25   19.11
   4  -1   5  447.53   19.90
   5  -1   5    0.87    1.05
  -5   1  -5    1.79    0.81
   5  -1   5    3.36    1.45
   5  -1   5    1.93    1.07
  -5  -1  -5    1.97    1.13
   5   1   5    1.36    0.74
  -5  -1  -5    1.91    1.12
  -5  -1  -5    2.75    1.03
  -6  -1  -5   93.99    7.57
  -6  -1  -5   77.64    8.14
  -6   1  -5   89.62    6.56
   6  -1   5   92.88    7.13
   6   1   5   93.21    6.77
   6  -1   5   99.28    8.31
  -6  -1  -5   94.18    7.95
   6  -1   5   86.62    8.23
   7   1   5  367.35   15.63
   7  -1   5  333.42   18.80
  -7   1  -5  335.17   15.41
  -7  -1  -5  352.82   17.49
   7  -1   5  349.69   15.67
   7  -1   5  354.88   17.95
  -7  -1  -5  353.09   20.54
   8  -1   5  144.71    5.31
   8  -1   5  156.01    9.95
   8  -1   5  134.05   10.84
   8  -1   5  140.95   11.73
  -8   1  -5  129.54    9.26
   8   1   5  139.81    5.30
   8   1   5  151.68    9.38
  -8  -1  -5  142.75   12.89
  -8  -1  -5  135.04   10.49
   9  -1   5   18.53    4.46
   9   1   5   14.61    3.36
   9  -1   5   12.60    3.22
   9   1   5   16.09    1.91
  -9  -1  -5   17.07    4.44
  -9  -1  -5   18.52    5.48
   9  -1   5   15.16    4.18
  -9   1  -5   13.71    3.52
 -10   1  -5    6.25    2.40
 -10  -1  -5   10.27    3.51
  10  -1   5    6.81    2.72
 -10  -1  -5   19.16    5.75
  10   1   5   12.67    3.13
  10   1   5   11.44    1.71
  10  -1   5    9.14    2.50
  10  -1   5    9.32    2.54
 -11   1  -5   31.28    5.95
 -11  -1  -5   37.47    8.88
  11  -1   5   37.32    5.92
  11   1   5   32.06    2.73
  11   1   5   33.97    5.36
 -11  -1  -5   36.30    6.97
  11  -1   5   37.35    6.87
  11  -1   5   23.46    5.16
  12   1   5   -0.11    1.08
  12  -1   5   -0.01    1.44
  12  -1   5    1.26    1.10
  12  -1   5   -0.68    1.23
 -12  -1  -5   -0.82    1.36
 -12  -1  -5    0.76    1.72
 -12   1  -5    0.55    1.05
  13  -1   5   80.20    7.75
 -13   1  -5   88.89   12.96
 -13  -1  -5   69.99   10.64
  13   1   5   77.72    7.19
  13  -1   5  104.39   10.26
 -13  -1  -5   97.64   15.49
  13  -1   5   89.17   11.52
 -13   1  -5   81.74   10.81
 -14  -1  -5  237.45   21.34
  14  -1   5  238.55   17.08
 -14   1  -5  240.55   19.41
  14  -1   5  246.08   15.25
 -14   1  -5  229.69   17.02
 -14  -1  -5  229.49   17.77
  14  -1   5  248.57   17.17
  14   1   5  216.95   13.21
 -15   1  -5  376.88   26.30
  15  -1   5  405.46   23.81
  15  -1   5  420.08   21.52
 -15  -1  -5  457.37   31.66
 -15  -1  -5  409.87   25.65
 -15   1  -5  367.25   23.31
 -16   1  -5  285.52   23.81
 -16   1  -5  257.90   19.29
  16  -1   5  260.84   18.86
 -16  -1  -5  244.22   20.27
 -16  -1  -5  266.92   25.16
 -17   1  -5  230.98   19.87
 -17   1  -5  217.48   21.75
  17  -1   5  224.68   17.30
 -17  -1  -5  230.28   21.42
 -17  -1  -5  217.20   23.83
 -18  -1  -5   25.38    9.41
 -18   1  -5   42.83   11.77
 -18  -1  -5   36.36   10.83
 -18   1  -5   52.41   11.41
  19  -2  -5    0.29    4.58
 -19   2   5    1.17    3.53
 -19  -2   5    2.59    5.95
  18  -2  -5  142.19   19.27
 -18  -2   5  103.68   19.88
 -18   2   5  105.86   17.03
 -18  -2   5  142.66   19.37
  17  -2  -5   -0.10    4.32
  17  -2  -5   -3.14    2.44
 -17   2   5   -0.02    2.74
 -17  -2   5   -2.46    3.66
 -17  -2   5   -0.97    2.44
  16  -2  -5  578.47   32.94
  16  -2  -5  599.63   31.03
 -16  -2   5  631.21   33.30
 -16   2   5  572.50   32.08
  16   2  -5  610.85   28.79
 -16  -2   5  610.99   39.80
  15  -2  -5   23.96    4.88
  15  -2  -5   25.29    6.68
 -15  -2   5   16.54    5.54
  15   2  -5   20.64    4.43
 -15  -2   5   23.26    5.19
 -15   2   5   11.26    2.72
  14  -2  -5  808.68   38.33
 -14  -2   5  911.55   39.30
  14   2  -5  859.11   34.85
 -14   2   5  893.78   38.80
 -14  -2   5  842.60   45.39
  14  -2  -5  930.43   38.97
 -13  -2   5    8.70    3.16
  13  -2  -5    7.87    2.58
  13  -2  -5    2.66    1.47
 -13  -2   5    7.59    2.55
  13   2  -5    6.50    1.94
 -13   2   5    7.20    2.52
  13  -2  -5    2.45    1.92
 -12  -2   5   31.96    6.27
 -12   2   5   12.00    3.97
 -12  -2   5   18.65    5.85
  12   2  -5   22.41    4.76
  12  -2  -5   27.32    6.46
  12  -2  -5   12.52    3.15
  12  -2  -5   26.25    5.61
 -11  -2   5    2.25    1.24
  11  -2  -5    1.61    1.34
  11   2  -5    3.63    1.64
 -11  -2   5    1.38    1.65
  11  -2  -5    1.82    1.52
  11  -2  -5    3.13    1.34
 -11  -2   5    7.17    2.37
 -10  -2   5 1156.02   40.61
 -10  -2   5 1193.21   39.56
  10  -2  -5 1121.11   43.35
  10  -2  -5 1207.95   42.96
  10  -2  -5 1211.81   43.33
 -10  -2   5 1155.74   49.18
  10   2  -5 1148.32   41.29
  -9  -2   5   13.64    3.03
   9  -2  -5    3.52    2.17
   9  -2  -5   14.41    3.82
  -9  -2   5    4.76    2.05
   9   2  -5   14.59    3.73
   9  -2  -5    7.62    2.63
  -8  -2   5  508.46   25.24
   8  -2  -5  530.68   24.21
  -8  -2   5  511.18   21.09
   8  -2  -5  545.39   24.58
   8  -2  -5  499.34   23.44
  -8  -2   5  499.40   21.93
  -7  -2   5   10.57    2.58
  -7  -2   5    6.13    2.26
   7  -2  -5    7.66    2.55
   7  -2  -5    8.19    2.82
   7  -2  -5    5.99    2.51
   6  -2  -5   -1.19    0.69
  -6  -2   5   -0.38    0.83
  -6  -2   5    1.39    1.22
   6  -2  -5   -0.54    0.80
   6  -2  -5    0.89    0.85
  -6  -2   5    2.90    0.94
  -5   2   5    1.58    1.15
  -5  -2   5    1.27    1.57
   5  -2  -5    2.29    1.61
   5  -2  -5    2.18    1.82
  -5  -2   5    4.82    1.48
  -5  -2   5    4.68    2.56
  -5  -2   5    2.92    0.78
  -4  -2   5  267.91   10.53
  -4  -2   5  292.18   16.19
   4  -2  -5  268.32   14.35
  -4   2   5  288.38   12.55
   4  -2  -5  271.14   13.75
  -4   2   5  286.58   10.73
  -4  -2   5  282.26   14.80
  -4  -2   5  277.99   10.50
  -3  -2   5    1.07    0.46
  -3   2   5    0.14    1.03
  -3  -2   5    3.80    1.60
  -3  -2   5    1.55    1.09
   3  -2  -5    0.88    0.73
  -3  -2   5    1.12    0.77
  -3   2   5    2.98    1.38
   3  -2  -5    0.38    0.55
  -2   2   5 2638.29   65.20
   2  -2  -5 2585.63   71.16
  -2  -2   5 2624.42   61.73
  -2  -2   5 2514.01   66.18
   2  -2  -5 2595.42   65.89
  -2  -2   5 2605.06   68.58
  -2  -2   5 2508.58   71.81
   2  -2  -5 2622.85   69.99
   2   2  -5 2608.32   65.36
  -1  -2   5   43.95    6.13
   1  -2  -5   33.05    3.21
  -1   2   5   36.05    3.62
   1  -2  -5   36.74    5.78
  -1  -2   5   41.17    6.45
   1  -2  -5   31.28    5.22
   1  -2  -5   37.02    4.54
  -1  -2   5   33.18    4.41
   0  -2  -5 1904.05   55.47
   0  -2   5 1936.57   53.87
   0  -2   5 1942.49   56.72
   0  -2   5 1896.48   53.74
   0  -2  -5 1954.51   57.38
   0  -2  -5 2013.37   51.77
   0  -2  -5 1995.45   50.34
   0   2   5 2011.71   54.83
   1  -2   5   69.55    7.56
  -1  -2  -5   73.14    4.93
  -1  -2  -5   78.39    7.18
  -1  -2  -5   70.51    7.06
  -1   2  -5   73.91    3.93
   1   2   5   76.89    5.83
  -1  -2  -5   81.43    5.85
   1   2   5   76.72    4.76
   1  -2   5   73.61    6.46
   2  -2   5  392.90   19.87
  -2  -2  -5  381.03   17.83
   2   2   5  382.27   15.64
  -2  -2  -5  365.73   15.48
   2   2   5  378.37   12.51
  -2  -2  -5  382.12   12.70
   2  -2   5  357.90   16.99
  -2  -2  -5  371.64   18.51
   3   2   5   81.33    4.02
  -3  -2  -5   95.71    8.24
   3  -2   5   89.06    8.45
   3  -2   5  101.04    8.31
  -3  -2  -5   87.21    6.79
  -3  -2  -5   90.47    8.39
  -3   2  -5   88.64    4.86
  -4  -2  -5 2203.72   66.84
  -4  -2  -5 2127.01   62.44
  -4  -2  -5 2244.97   65.32
   4  -2   5 2241.51   69.30
  -5  -2  -5   32.69    5.83
   5  -2   5   40.51    7.02
   5  -2   5   19.27    4.25
   5  -2   5   23.48    5.09
  -5  -2  -5   27.69    5.64
  -5  -2  -5   26.79    5.27
   6  -2   5 1083.29   39.23
   6  -2   5 1108.40   40.82
  -6  -2  -5 1004.43   38.10
  -6  -2  -5 1087.68   41.52
   6  -2   5 1081.19   36.77
  -7  -2  -5    5.89    2.68
  -7  -2  -5    8.73    3.27
   7   2   5   11.86    2.58
   7  -2   5   11.45    3.37
   7  -2   5   10.22    3.63
   8  -2   5   56.81    8.62
  -8  -2  -5   48.09    9.65
  -8  -2  -5   53.06    8.51
   8   2   5   49.86    4.79
   8  -2   5   47.89    7.40
   8  -2   5   45.11    7.56
  -9  -2  -5   18.05    4.82
   9   2   5   20.34    3.46
   9  -2   5   20.65    5.05
   9  -2   5   26.90    5.82
  -9   2  -5   34.51    5.97
  -9  -2  -5    9.00    3.68
   9  -2   5   16.22    4.56
 -10  -2  -5    1.09    1.44
 -10  -2  -5    0.58    1.49
  10  -2   5    3.15    1.40
  10  -2   5    1.68    1.22
 -10   2  -5    3.38    1.22
  10   2   5    0.75    0.90
  10  -2   5    0.96    1.37
 -11  -2  -5    2.59    2.15
 -11  -2  -5    0.72    1.46
 -11   2  -5   -0.23    1.19
  11   2   5    2.66    1.16
  11  -2   5    1.67    1.34
  11  -2   5    4.67    1.70
  11  -2   5    2.80    1.43
  12  -2   5  435.01   23.41
  12  -2   5  410.34   24.76
  12  -2   5  497.82   25.09
 -12   2  -5  408.89   22.16
 -12  -2  -5  391.78   29.88
 -12  -2  -5  429.23   25.59
 -13   2  -5    3.11    2.00
  13  -2   5    5.41    2.50
 -13  -2  -5    9.70    2.71
  13  -2   5    4.18    2.12
  13  -2   5    7.37    2.35
 -13  -2  -5    5.40    2.12
 -14   2  -5  206.47   15.67
  14  -2   5  175.41   14.29
 -14  -2  -5  184.19   16.80
  14  -2   5  172.83   15.71
 -14  -2  -5  209.02   21.63
 -15  -2  -5    0.88    2.74
 -15   2  -5   -2.37    1.83
  15  -2   5    4.03    2.27
 -15  -2  -5    2.28    2.32
  15  -2   5   -2.03    2.03
 -16   2  -5   41.62   11.34
 -16  -2  -5   36.88   10.21
  16  -2   5   35.40    6.41
  16  -2   5   40.33    9.63
 -16   2  -5   49.88    9.71
 -16  -2  -5   37.32   11.68
 -17   2  -5    7.98    5.52
 -17  -2  -5    4.81    5.70
 -17   2  -5    1.39    3.71
 -17  -2  -5    6.25    7.03
  17  -2   5    0.07    4.27
 -18  -2  -5  390.83   31.05
  18  -2   5  344.58   26.82
 -18   2  -5  411.96   28.02
 -18   3   5   79.77   14.24
  18  -3  -5   83.39   14.69
 -17  -3   5   36.44   11.40
 -17   3   5   37.58    9.92
  17  -3  -5   36.14   10.51
 -17  -3   5   47.29   12.64
  17  -3  -5   28.51    9.48
 -16  -3   5   18.15    8.37
 -16   3   5   16.34    4.45
  16  -3  -5   23.99    8.64
  16  -3  -5   17.61    6.58
 -16  -3   5   23.64    5.64
 -15   3   5   34.25    6.92
  15  -3  -5   41.87   10.64
 -15  -3   5   45.28    8.69
 -15  -3   5   55.36   13.46
  15  -3  -5   30.70    7.68
 -14  -3   5  288.62   21.55
 -14  -3   5  388.02   28.04
 -14   3   5  299.52   20.46
  14  -3  -5  336.81   23.25
  14   3  -5  353.91   19.91
  14  -3  -5  338.74   24.74
  13  -3  -5  427.06   26.12
 -13  -3   5  432.91   26.05
  13   3  -5  391.20   21.14
 -13  -3   5  395.56   28.21
  13  -3  -5  348.78   24.86
 -12  -3   5 1009.91   47.64
  12   3  -5 1007.87   38.98
  12  -3  -5 1015.32   39.38
  12  -3  -5  974.31   44.20
 -12  -3   5  964.28   41.76
  12  -3  -5  994.53   43.29
  11   3  -5  307.69   18.09
 -11  -3   5  292.84   18.82
  11  -3  -5  268.55   19.53
 -11  -3   5  307.51   19.18
 -11  -3   5  293.34   22.65
  11  -3  -5  325.62   18.91
  10  -3  -5  167.82   12.54
  10  -3  -5  157.79   13.96
 -10  -3   5  155.91   12.26
  10  -3  -5  156.35   14.26
 -10  -3   5  159.87   13.16
  10   3  -5  146.47   11.95
 -10  -3   5  155.08   15.51
  -9  -3   5   -1.03    1.41
  -9  -3   5    0.19    1.30
   9  -3  -5    2.99    1.48
   9  -3  -5    1.77    1.50
   9  -3  -5    3.12    2.02
  -9  -3   5    0.84    1.27
  -8  -3   5   27.23    5.02
  -8  -3   5   35.65    8.20
   8  -3  -5   28.23    6.26
  -8  -3   5   35.99    7.05
   8  -3  -5   44.14    7.32
   8  -3  -5   35.96    7.24
  -7  -3   5   15.15    3.04
   7  -3  -5    8.16    2.95
   7  -3  -5   15.30    3.93
  -7  -3   5    8.69    3.64
   7  -3  -5   10.23    3.60
  -7  -3   5   11.93    3.73
   6  -3  -5    4.10    2.05
  -6  -3   5   -0.44    1.07
  -6  -3   5    2.10    1.43
   6  -3  -5    1.94    1.28
   6  -3  -5    8.87    2.76
  -6  -3   5    4.82    1.38
  -5  -3   5   67.94    9.53
   5  -3  -5  105.33    9.24
  -5  -3   5   82.00    5.88
   5  -3  -5   72.77    9.43
  -5  -3   5   86.30   11.91
  -5  -3   5   80.59    4.81
   5  -3  -5   64.50    9.13
  -4  -3   5  262.37   11.33
   4  -3  -5  243.45   14.93
   4   3  -5  254.44   10.58
  -4  -3   5  254.08   16.15
   4   3  -5  244.73   10.18
  -4  -3   5  248.79   11.02
  -4  -3   5  246.28   17.32
   4  -3  -5  270.81   16.21
   3  -3  -5    7.63    2.18
  -3  -3   5    7.81    2.65
  -3  -3   5   13.60    4.02
  -3  -3   5   11.96    2.21
  -3  -3   5   12.15    1.83
   3   3  -5   12.81    2.02
   3  -3  -5   17.34    4.21
   2  -3  -5    7.10    2.32
  -2  -3   5    1.37    1.20
   2  -3  -5    2.01    1.54
  -2  -3   5    3.05    0.86
  -2  -3   5    5.71    1.15
   2  -3  -5    2.50    1.27
  -2  -3   5    2.84    1.09
   2   3  -5    5.12    1.46
   1  -3  -5  143.54   11.19
   1  -3  -5  146.06   11.65
   1  -3  -5  135.51    9.60
  -1  -3   5  148.08   12.22
   1   3  -5  139.57    6.32
  -1  -3   5  134.79   11.11
   1  -3  -5  147.05    9.63
  -1  -3   5  146.94    9.57
   0  -3  -5 1259.32   39.69
   0  -3   5 1213.10   41.73
   0  -3  -5 1283.78   38.83
   0  -3  -5 1222.47   42.44
   0  -3   5 1254.01   39.45
   0  -3   5 1284.47   45.08
   0  -3  -5 1259.18   44.49
  -1  -3  -5 1013.04   36.96
  -1  -3  -5 1036.66   34.67
   1  -3   5  955.51   35.18
  -1  -3  -5 1037.84   38.88
  -1  -3  -5 1010.22   31.36
   1  -3   5  910.46   33.34
  -1   3  -5  959.20   27.53
  -2   3  -5 2023.67   52.63
  -2  -3  -5 2074.12   60.49
   2  -3   5 2016.30   59.76
  -2  -3  -5 2064.13   62.63
  -2  -3  -5 2058.46   65.05
   2  -3   5 2090.79   60.17
   3  -3   5  570.82   24.75
  -3   3  -5  596.99   20.14
  -3  -3  -5  562.14   26.20
   3  -3   5  574.61   25.47
  -3  -3  -5  594.74   25.22
  -3  -3  -5  633.87   28.73
  -4  -3  -5  144.64   11.22
  -4  -3  -5  127.48   11.94
  -4  -3  -5  160.89   12.47
  -4   3  -5  149.52    7.28
   4  -3   5  147.77   10.99
   4  -3   5  175.16   12.80
  -5  -3  -5    4.59    2.19
  -5  -3  -5    2.19    1.39
   5  -3   5    3.79    1.68
   5  -3   5    3.06    1.29
  -6  -3  -5   39.76    7.41
   6  -3   5   24.42    5.51
  -6  -3  -5   40.67    7.27
   7  -3   5   19.05    5.12
   7  -3   5   27.30    6.33
  -7  -3  -5   23.94    5.49
  -7  -3  -5   20.32    4.83
   7  -3   5   28.43    6.05
   8  -3   5  234.08   16.71
   8  -3   5  253.57   17.63
   8   3   5  254.17   12.18
   8  -3   5  277.99   18.90
  -8  -3  -5  224.94   16.74
   9   3   5    3.72    1.06
  -9  -3  -5    8.92    2.55
   9  -3   5    1.13    1.60
  -9  -3  -5    1.65    1.69
   9  -3   5    1.00    1.73
   9  -3   5    4.08    2.49
  10  -3   5   32.69    7.43
 -10  -3  -5   26.32    6.88
  10  -3   5   26.96    6.33
  10  -3   5   17.92    4.46
  11  -3   5    0.34    1.50
 -11  -3  -5   -0.21    1.74
 -11  -3  -5   -3.24    2.10
  11  -3   5   -0.64    1.70
  11  -3   5   -0.82    1.61
 -12  -3  -5    0.16    2.08
  12  -3   5   -1.88    1.66
  12  -3   5    0.79    1.76
 -12  -3  -5   -1.68    2.58
 -12   3  -5    3.01    1.77
  13  -3   5   37.26    8.65
 -13  -3  -5   30.53    6.86
 -13  -3  -5   25.50    7.75
  13  -3   5   38.91    7.67
 -13   3  -5   21.08    5.05
 -14  -3  -5  154.38   19.62
 -14  -3  -5  122.89   21.98
  14  -3   5  186.85   16.39
  14  -3   5  182.31   20.74
 -14   3  -5  201.98   15.43
 -15   3  -5  152.92   13.76
 -15  -3  -5  158.37   21.30
 -15  -3  -5  172.41   28.25
  15  -3   5  155.09   20.42
  15  -3   5  176.35   16.67
 -16  -3  -5  276.69   35.81
  16  -3   5  304.47   24.04
  16  -3   5  315.03   26.44
 -16  -3  -5  299.43   27.44
 -16   3  -5  313.99   22.70
  17  -3   5   66.11   13.28
 -17   3  -5   79.88   13.04
  15  -4  -5  708.40   43.35
  15  -4  -5  677.98   40.61
 -15  -4   5  680.36   45.86
 -14  -4   5   28.82   10.84
  14  -4  -5   47.41   11.56
  14  -4  -5   38.74   11.08
 -13  -4   5   36.66   11.64
  13  -4  -5   61.76   13.93
  13  -4  -5   28.66    8.30
 -12  -4   5    6.17    4.95
  12  -4  -5    3.88    2.55
  12   4  -5    3.46    2.53
  12  -4  -5    0.10    2.68
  11  -4  -5  194.58   18.56
 -11  -4   5  218.51   20.79
  11   4  -5  241.40   16.48
  11  -4  -5  251.77   20.49
  10  -4  -5   27.79    7.59
  10  -4  -5   20.88    4.94
 -10  -4   5   19.06    5.84
 -10  -4   5   19.80    4.93
   9  -4  -5  421.10   27.00
   9  -4  -5  461.32   24.09
  -9  -4   5  490.78   22.73
   9  -4  -5  433.08   26.87
  -9  -4   5  439.65   26.07
  -9  -4   5  400.65   28.35
  -8  -4   5    6.59    1.79
  -8  -4   5    5.09    2.42
  -8  -4   5    6.82    3.51
   8  -4  -5    7.97    2.82
   8  -4  -5    1.05    2.26
   8  -4  -5    7.18    1.76
  -7  -4   5   41.51    9.60
   7  -4  -5   43.80    8.76
   7  -4  -5   31.25    5.94
   7  -4  -5   35.49    6.82
  -7  -4   5   40.68    5.93
  -7  -4   5   40.49    8.42
  -6  -4   5    3.34    1.81
   6  -4  -5    4.12    2.08
   6  -4  -5    0.45    1.64
   6  -4  -5    0.23    1.36
  -6  -4   5    1.65    1.24
  -6  -4   5    3.69    2.23
  -5  -4   5    1.39    1.58
   5  -4  -5    0.43    1.27
  -5  -4   5    1.18    1.16
  -5  -4   5   -0.99    1.49
   5  -4  -5   -1.45    1.40
  -4  -4   5    0.21    1.06
  -4  -4   5    2.26    2.05
   4  -4  -5    1.93    1.25
   4  -4  -5    4.00    2.17
  -4  -4   5   -1.16    1.32
  -4  -4   5    0.99    1.08
   3  -4  -5  720.42   32.67
   3  -4  -5  636.38   29.97
  -3  -4   5  740.68   26.69
  -3  -4   5  743.39   23.66
  -3  -4   5  724.04   33.36
  -3  -4   5  664.75   34.78
   2  -4  -5   98.14    9.53
  -2  -4   5   91.31    7.99
  -2  -4   5  106.34   12.91
  -2  -4   5   98.78   13.62
   2  -4  -5   92.98   12.04
   1  -4  -5  897.70   38.57
  -1  -4   5  911.45   40.47
   1  -4  -5  951.52   37.99
   1  -4  -5  896.37   34.45
  -1  -4   5  906.03   37.73
  -1  -4   5  896.06   33.48
   0  -4   5   48.94    9.42
   0  -4   5   46.57    8.55
   0  -4  -5   36.06    6.34
   0  -4  -5   39.98    7.54
   0  -4   5   36.21    6.04
   0  -4  -5   33.57    5.94
   0  -4  -5   38.58    7.97
   1  -4   5  172.91   14.09
   1  -4   5  197.66   13.96
  -1  -4  -5  200.10   15.22
  -1  -4  -5  181.73   15.29
  -1  -4  -5  202.32   14.13
   2  -4   5   13.93    3.68
   2  -4   5   12.85    3.76
  -2  -4  -5   13.10    3.19
  -2  -4  -5   14.05    4.04
  -2  -4  -5   14.05    3.91
   3  -4   5  731.53   32.65
  -3  -4  -5  732.26   33.69
  -3  -4  -5  721.62   35.37
  -3  -4  -5  814.26   34.15
   3  -4   5  754.02   32.43
   4  -4   5   40.02    7.48
   4  -4   5   30.66    6.53
  -4  -4  -5   31.89    6.10
  -4  -4  -5   34.26    7.15
  -5  -4  -5  817.41   37.26
  -5  -4  -5  834.71   37.11
   5  -4   5  840.66   37.26
   5  -4   5  860.57   34.74
   6  -4   5   34.29    6.97
  -6  -4  -5   50.37    8.58
   6  -4   5   34.79    6.42
  -6  -4  -5   51.96    9.18
  -7  -4  -5  106.69   14.19
  -7  -4  -5  106.92   14.03
   7  -4   5  103.39   14.00
   7  -4   5  100.41    9.29
  -8  -4  -5    1.96    2.18
   8  -4   5    7.07    1.76
   8  -4   5    3.63    1.73
  -8  -4  -5    3.86    2.01
   9  -4   5    0.26    1.65
  -9  -4  -5    5.33    2.26
  -9  -4  -5    1.28    2.68
   9  -4   5    0.98    1.68
  10  -4   5    4.48    2.28
 -10  -4  -5   10.06    3.03
  10  -4   5    4.30    2.08
 -10  -4  -5    5.78    2.93
  11  -4   5  122.62   17.46
 -11  -4  -5  127.18   16.83
  11  -4   5  131.53   17.27
 -11  -4  -5  109.71   16.54
  12  -4   5   19.50    6.65
 -12  -4  -5   20.13    6.16
 -12  -4  -5   18.45    5.02
  12  -4   5   10.14    6.06
 -13   4  -5  123.56   11.71
  13  -4   5  144.96   19.97
 -13  -4  -5  108.00   17.78
 -13  -4  -5  122.47   22.49
  13  -4   5  111.05   18.52
  14  -4   5    2.65    5.09
 -14  -4  -5   -3.44    4.11
  14  -4   5    3.95    4.27
 -14   4  -5   -3.12    3.21
 -14  -4  -5   -2.60    4.84
  15  -4   5   12.54    6.73
 -15  -4  -5   10.99    6.40
 -15  -4  -5   14.37    9.67
 -15   4  -5   14.63    6.16
 -12  -5   5  114.27   21.12
  12  -5  -5   90.62   18.44
 -11  -5   5  196.27   26.87
  11  -5  -5  202.72   23.53
  11  -5  -5  190.24   24.30
 -10  -5   5   76.25   14.34
  10  -5  -5   59.12   13.81
 -10  -5   5   48.83   13.36
  -9  -5   5   -4.07    3.73
  -9  -5   5    5.00    4.56
   9  -5  -5    4.39    3.50
  -8  -5   5    0.95    2.40
  -8  -5   5    6.21    4.60
   8  -5  -5    7.07    2.45
   7  -5  -5   58.50   10.63
   7  -5  -5   39.51    6.79
  -7  -5   5   49.80   10.06
  -7  -5   5   31.66    8.44
  -6  -5   5    1.00    2.11
   6  -5  -5   -3.27    2.09
   6  -5  -5    3.59    2.26
  -6  -5   5    1.88    2.07
   5  -5  -5   60.42   10.46
  -5  -5   5   49.74   10.96
  -5  -5   5   56.40   10.41
   5  -5  -5   54.09    9.07
   4  -5  -5   32.45    6.20
   4  -5  -5   26.67    6.40
  -4  -5   5   17.63    5.84
  -4  -5   5   28.50    7.85
   3  -5  -5   80.58   12.09
  -3  -5   5   75.40   12.72
  -3  -5   5   66.18   11.96
   3  -5  -5   60.84    9.81
  -2  -5   5   13.58    4.33
  -2  -5   5    5.32    2.18
   2  -5  -5    3.02    1.84
   2  -5  -5   12.36    3.80
  -2  -5   5    6.22    2.52
  -1  -5   5   87.27   13.79
  -1  -5   5   94.12   13.47
  -1  -5   5  111.50    9.72
   1  -5  -5   80.80   12.10
   0  -5   5   94.40   13.35
   0  -5   5   92.37    8.90
   0  -5  -5   79.82   11.55
  -1  -5  -5  819.60   36.73
  -1  -5  -5  813.95   38.00
   1  -5   5  809.52   37.90
   1  -5   5  762.76   34.85
   2  -5   5  281.58   19.41
  -2  -5  -5  272.23   20.35
  -2  -5  -5  326.39   21.11
   2  -5   5  294.22   20.37
   3  -5   5  551.43   29.30
  -3  -5  -5  527.16   29.97
  -3  -5  -5  570.22   30.35
   3  -5   5  567.59   30.06
  -4  -5  -5   28.55    4.81
   4  -5   5   34.28    6.45
   4  -5   5   33.65    6.84
  -4  -5  -5   20.88    5.38
   5  -5   5    5.01    2.15
  -5  -5  -5   10.21    3.13
   5  -5   5    0.01    1.92
   6  -5   5    3.82    2.19
   6  -5   5   -0.25    2.10
  -6  -5  -5    9.85    2.99
  -6  -5  -5    5.95    2.44
   7  -5   5  119.47   16.44
   7  -5   5   96.06    8.99
  -7  -5  -5  101.42   13.68
  -7  -5  -5  110.18   16.15
  -8  -5  -5   10.50    3.77
  -8  -5  -5   19.73    4.97
   8  -5   5    3.21    4.05
  -9  -5  -5   -0.34    3.03
   9  -5   5    0.02    4.15
  -9  -5  -5    4.82    3.21
 -10  -5  -5    0.90    5.65
 -10  -5  -5    1.25    5.05
  10  -5   5    1.13    3.46
 -11  -5  -5    4.29    5.49
 -11  -5  -5    1.94    5.47
  11  -5   5    5.39    4.53
 -12  -5  -5   15.32    8.96
 -12  -5  -5   -3.77    5.28
 -13  -5  -5   29.50   11.61
   8  -6  -5  106.05   19.97
  -7  -6   5   -2.12    3.60
  -7  -6   5    0.54    6.48
   7  -6  -5    6.24    5.58
   6  -6  -5   -0.34    4.70
  -6  -6   5   -1.13    5.34
  -6  -6   5    0.03    3.97
  -5  -6   5    1.07    4.62
   5  -6  -5   -0.50    4.33
  -5  -6   5   -3.60    3.90
  -4  -6   5   35.91   10.26
  -4  -6   5   21.53    7.81
  -3  -6   5    6.76    6.22
  -3  -6   5   11.58    6.39
  -2  -6   5  291.21   24.72
  -1  -6   5   44.01   10.88
   0  -6   5  251.33   22.12
   1  -6   5   12.53    5.71
   2  -6   5   23.28    4.89
  -2  -6  -5   24.94    5.91
  -2  -6  -5   20.12    3.71
   2  -6   5   26.81    6.86
   3  -6   5   30.74    7.42
  -3  -6  -5   29.30    6.85
  -3  -6  -5   30.48    5.92
   3  -6   5   34.53    7.39
   4  -6   5  364.16   24.72
   4  -6   5  339.56   26.09
  -4  -6  -5  332.50   25.47
  -4  -6  -5  303.12   24.79
   5  -6   5   44.57    8.93
  -5  -6  -5   51.28   11.90
  -5  -6  -5   45.54   11.09
   5  -6   5   43.62   10.86
  -6  -6  -5  122.24   19.03
   6  -6   5  126.46   18.81
  -6  -6  -5  151.26   20.64
  -7  -6  -5    2.77    5.47
  -7  -6  -5   -3.12    4.65
   7  -6   5   -3.16    4.03
  -8  -6  -5   -0.59    7.23
  -8  -6  -5    9.61    5.90
  -9  -6  -5   -4.37    5.32
  -9  -6  -5   -1.68    8.03
  20   0  -6  226.61   19.95
 -19   0   6    3.79    5.09
 -19   0   6    5.17    5.79
  19   0  -6   -0.81    4.04
 -18   0   6   -1.06    3.77
 -18   0   6   -0.98    3.68
  18   0  -6    1.26    2.36
 -17   0   6    4.64    2.24
  17   0  -6    0.64    2.14
  17   0  -6    1.03    2.34
 -17   0   6    1.09    2.01
 -16   0   6   80.74   12.39
  16   0  -6   65.57    9.73
 -16   0   6   66.27   11.24
  16   0  -6   81.64   12.01
  15   0  -6    0.82    1.90
 -15   0   6    0.25    1.48
  15   0  -6    1.67    1.61
 -15   0   6   -3.76    1.92
  14   0  -6   12.87    3.35
 -14   0   6   12.81    4.44
  14   0  -6   10.71    2.57
  13   0  -6   -0.75    1.15
 -13   0   6    1.93    1.16
  13   0  -6    0.35    1.48
  12   0  -6   70.98    9.67
 -12   0   6   73.93   10.36
  12   0  -6   81.50    8.65
 -11   0   6    0.25    0.95
  11   0  -6   -0.26    0.89
  11   0  -6    1.22    0.95
  10   0  -6  636.58   27.03
 -10   0   6  560.28   26.55
  10   0  -6  620.76   26.58
  10   0  -6  661.47   21.57
   9   0  -6    2.93    1.52
  -9   0   6    4.32    1.86
   9   0  -6    0.06    0.93
   8   0  -6 3865.56  107.70
  -8   0   6 3907.10  109.61
   8   0  -6 3853.11  105.26
  -8   0   6 4029.96   91.74
   8   0  -6 4201.50  105.61
   7   0  -6   -0.97    0.73
  -7   0   6    0.55    1.13
   7   0  -6    1.03    0.92
   7   0  -6    1.71    1.07
  -7   0   6   -0.31    0.49
   6   0  -6 2934.17   77.60
   6   0  -6 2973.34   80.68
  -6   0   6 2895.26   80.02
   6   0  -6 2781.68   77.65
  -6   0   6 2821.37   67.94
  -5   0   6    5.43    1.88
   5   0  -6    0.98    1.61
   5   0  -6   -0.49    1.34
   5   0  -6    1.62    1.33
   5   0  -6    1.83    1.16
  -4   0   6   96.45    6.19
   4   0  -6  109.31    7.74
   4   0  -6   95.86    7.38
  -4   0   6   96.38    6.38
   4   0  -6  108.88    6.57
   4   0  -6  110.36    6.53
  -3   0   6    0.76    0.62
   3   0  -6    2.08    1.05
   3   0  -6   -0.36    0.42
  -3   0   6    0.35    0.36
  -3   0   6    0.30    0.71
   3   0  -6   -0.13    0.50
   3   0  -6    0.70    0.80
   2   0  -6 2032.16   52.79
   2   0  -6 1935.65   54.17
  -2   0   6 2019.33   50.08
  -2   0   6 1948.07   55.96
   2   0  -6 1962.93   55.31
  -2   0   6 1955.64   48.99
  -1   0   6    3.18    2.06
   1   0  -6   -1.98    0.58
   1   0  -6   -0.90    1.06
  -1   0   6    4.00    1.71
   1   0  -6    0.95    0.94
   0   0  -6   72.40    5.53
   0   0  -6   72.07    4.22
   0   0   6   81.25    6.06
   0   0   6   77.66    4.98
   0   0   6   69.69    5.85
   0   0  -6   71.43    4.79
   1   0   6    3.53    1.68
  -1   0  -6   -0.49    0.46
  -1   0  -6    0.97    0.88
   1   0   6   -0.67    0.40
   1   0   6    1.08    0.91
   2   0   6   69.60    5.03
  -2   0  -6   71.91    5.14
  -2   0  -6   66.13    4.96
   2   0   6   66.64    5.21
  -3   0  -6    0.50    0.67
   3   0   6    0.33    0.69
  -3   0  -6    0.53    0.69
  -3   0  -6   -0.35    0.42
   3   0   6   -1.57    0.84
  -4   0  -6 1155.97   34.46
  -4   0  -6 1151.42   30.34
   4   0   6 1194.02   33.28
  -4   0  -6 1133.83   33.25
   4   0   6 1139.53   35.49
  -5   0  -6    0.00    0.74
  -5   0  -6    0.34    0.62
  -5   0  -6    1.60    0.86
   5   0   6    5.37    2.00
   6   0   6 3175.81   78.45
  -6   0  -6 3047.99   78.91
  -6   0  -6 3058.33   81.68
   6   0   6 3041.88   82.06
  -6   0  -6 3197.16   73.70
  -7   0  -6    0.16    0.86
   7   0   6    2.14    1.36
  -7   0  -6    0.42    0.73
   8   0   6 1259.94   34.81
   8   0   6 1263.93   41.20
  -8   0  -6 1248.48   40.71
   9   0   6   -0.21    0.81
   9   0   6   -0.12    0.72
  -9   0  -6    2.70    1.27
  -9   0  -6    0.54    1.02
  10   0   6   93.55    6.55
  10   0   6   97.80    8.87
 -10   0  -6   94.38    8.79
 -10   0  -6  102.52   10.62
 -11   0  -6    0.66    1.00
 -11   0  -6   -0.26    1.14
  11   0   6   -0.49    0.90
  11   0   6    0.53    1.26
  12   0   6  820.87   27.40
 -12   0  -6  827.04   34.33
 -12   0  -6  804.49   38.81
  12   0   6  804.85   33.30
 -13   0  -6    1.14    1.44
  13   0   6    1.02    1.27
  13   0   6   -1.88    1.27
 -13   0  -6    3.15    1.60
 -14   0  -6   84.13   11.69
  14   0   6  103.74    9.92
 -14   0  -6  108.07   15.50
  15   0   6   -2.07    1.66
 -15   0  -6   -1.25    1.82
 -15   0  -6    3.11    1.84
 -16   0  -6    5.90    3.01
 -16   0  -6    2.26    2.83
  16   0   6    3.54    1.93
  16   0   6    1.12    2.30
 -17   0  -6   -5.10    3.59
 -17   0  -6    1.57    4.22
 -18   0  -6   47.76   11.93
 -18   0  -6   55.27   11.67
  20  -1  -6  107.19   16.17
 -20  -1   6  136.77   19.67
  20   1  -6  131.27   17.83
 -19  -1   6  187.38   18.95
 -19   1   6  182.90   22.30
 -19  -1   6  155.25   21.93
  19   1  -6  168.89   17.40
 -19   1   6  195.11   20.11
  19  -1  -6  160.72   19.69
  19   1  -6  179.03   17.54
 -18   1   6  198.18   20.27
 -18  -1   6  210.67   22.05
 -18  -1   6  235.02   20.69
  18   1  -6  211.84   18.74
 -18   1   6  197.34   19.63
  18  -1  -6  228.71   20.25
  18   1  -6  205.38   16.49
  17   1  -6  126.25   11.92
  17   1  -6   90.53   12.21
 -17  -1   6  102.17   13.73
  17  -1  -6  122.48   15.40
  17  -1  -6  117.57   11.29
 -17  -1   6  109.00   17.20
 -17   1   6  113.46   15.21
  16   1  -6   17.18    4.62
 -16  -1   6   12.81    4.04
  16  -1  -6   10.16    2.92
  16  -1  -6   10.84    3.08
 -16  -1   6   12.38    3.51
  16   1  -6   11.62    2.88
 -15  -1   6    1.08    1.77
  15  -1  -6   -0.27    1.97
 -15   1   6    2.08    1.55
  15  -1  -6    3.93    1.85
  15   1  -6   -1.46    1.68
 -15  -1   6    0.74    1.61
 -14  -1   6    3.49    1.97
  14   1  -6    9.61    3.06
 -14   1   6    1.57    1.59
 -14  -1   6    1.64    1.44
  14  -1  -6    3.88    1.54
 -13  -1   6    9.35    3.28
  13  -1  -6   14.11    3.75
  13  -1  -6   12.11    4.16
 -13  -1   6    7.18    3.20
  13   1  -6    8.93    2.55
 -13   1   6    6.30    2.53
  12  -1  -6  275.91   18.98
 -12  -1   6  286.16   20.05
  12   1  -6  275.30   16.62
 -12  -1   6  285.51   17.43
 -12   1   6  273.54   17.81
  12  -1  -6  277.69   18.20
 -11  -1   6  723.84   34.16
  11  -1  -6  757.87   33.48
  11   1  -6  748.14   30.61
  11  -1  -6  751.76   32.55
 -11   1   6  753.30   31.46
 -11  -1   6  741.90   30.67
  10  -1  -6  747.38   32.73
 -10  -1   6  763.37   26.10
 -10  -1   6  805.21   30.87
  10  -1  -6  802.52   32.90
 -10   1   6  778.23   30.63
 -10  -1   6  739.96   33.67
  10   1  -6  764.65   30.83
  -9  -1   6  328.63   19.64
  -9  -1   6  343.44   15.29
   9   1  -6  354.08   18.11
  -9  -1   6  364.29   13.15
  -9  -1   6  351.92   17.67
   9  -1  -6  352.05   19.42
  -9   1   6  351.52   17.26
   9  -1  -6  372.40   20.18
   8  -1  -6   51.44    7.84
  -8  -1   6   54.73    8.26
   8  -1  -6   60.66    8.33
  -8   1   6   45.98    4.92
   8   1  -6   52.44    7.30
  -8  -1   6   57.18    5.16
  -8  -1   6   43.22    3.91
   7  -1  -6  365.99   18.31
  -7  -1   6  322.89   18.16
  -7  -1   6  344.72   14.96
   7  -1  -6  342.26   18.14
   7   1  -6  346.90   17.20
  -7   1   6  334.30   14.84
  -7  -1   6  348.35   12.43
   6  -1  -6 1424.78   46.41
   6   1  -6 1423.45   45.93
   6  -1  -6 1499.96   46.92
  -6  -1   6 1506.00   37.82
  -6   1   6 1418.30   42.30
  -6  -1   6 1459.85   41.04
   5  -1  -6 1599.43   49.39
  -5   1   6 1560.03   44.01
  -5  -1   6 1635.51   44.50
  -5  -1   6 1618.89   47.08
  -5   1   6 1596.76   44.91
   5  -1  -6 1675.52   49.80
  -4   1   6 2283.23   61.00
  -4  -1   6 2325.51   59.67
   4  -1  -6 2283.62   65.06
  -4  -1   6 2341.95   62.52
  -4   1   6 2365.23   62.77
   4  -1  -6 2295.57   65.42
   3  -1  -6 1245.36   37.03
  -3  -1   6 1148.69   35.21
  -3  -1   6 1149.64   39.53
  -3   1   6 1158.13   31.75
   2  -1  -6  263.54   12.36
  -2  -1   6  245.34   11.09
   2  -1  -6  264.42   11.96
   2  -1  -6  233.69   12.60
   2   1  -6  267.70   12.33
  -2  -1   6  253.93   13.80
  -2  -1   6  255.23    7.83
  -2  -1   6  260.36   12.20
   1  -1  -6    1.73    0.99
   1  -1  -6    4.53    1.37
  -1   1   6    4.87    1.61
   1   1  -6    3.68    2.05
  -1  -1   6    6.36    1.83
  -1  -1   6    1.41    0.99
   1   1  -6    4.97    1.52
  -1  -1   6    3.63    1.63
   0   1  -6   45.28    5.40
   0   1  -6   44.83    3.90
   0   1   6   47.99    3.90
   0  -1   6   49.65    4.68
   0  -1  -6   47.79    4.67
   0  -1   6   50.41    4.64
   0  -1   6   41.75    5.81
   0  -1  -6   49.48    3.75
   0   1  -6   47.01    2.28
   0  -1  -6   37.17    5.12
   0  -1  -6   35.32    2.08
   0  -1   6   47.58    2.26
  -1  -1  -6    2.82    0.84
   1  -1   6    3.47    1.72
  -1  -1  -6    0.42    0.42
  -1  -1  -6    0.45    0.66
  -1   1  -6    0.24    0.43
  -1   1  -6    0.42    0.33
   1  -1   6    0.80    0.67
  -1  -1  -6    0.29    0.54
  -2   1  -6  336.78   12.07
   2  -1   6  337.72   16.67
   2  -1   6  333.57   15.04
  -2  -1  -6  326.36   14.79
  -2  -1  -6  346.64   10.91
  -2   1  -6  347.88   11.47
  -2  -1  -6  347.47   13.54
  -2  -1  -6  338.19   15.56
  -3  -1  -6  861.06   28.85
  -3  -1  -6  856.40   28.30
  -3   1  -6  859.41   23.85
  -3   1  -6  860.05   24.57
   3  -1   6  837.35   28.87
   3  -1   6  838.10   31.61
  -3  -1  -6  857.96   29.37
  -4   1  -6  561.95   16.07
  -4   1  -6  542.64   18.29
  -4  -1  -6  572.32   22.13
  -4  -1  -6  583.79   22.62
   4  -1   6  539.07   23.87
  -4  -1  -6  531.15   22.49
   4  -1   6  563.00   22.36
  -5  -1  -6  156.66   10.24
   5  -1   6  154.67    6.37
  -5   1  -6  163.11    8.71
  -5  -1  -6  145.45   11.04
   5   1   6  155.96    9.39
   5  -1   6  177.56   11.32
  -5   1  -6  158.29    5.97
   5  -1   6  155.74   11.51
  -5  -1  -6  146.07   10.33
  -6  -1  -6    4.69    1.32
   6  -1   6    2.83    1.61
   6  -1   6    1.54    0.85
   6  -1   6    3.35    0.72
  -6   1  -6    1.96    1.06
  -6  -1  -6    1.81    1.24
   6   1   6    6.21    1.94
  -6  -1  -6    3.59    1.71
   7   1   6  240.10   12.98
  -7  -1  -6  243.46   17.05
   7  -1   6  225.91   14.46
   7  -1   6  259.02   16.55
  -7   1  -6  252.39   12.94
   7  -1   6  271.21    8.49
   7  -1   6  237.46   12.62
  -7  -1  -6  236.85   14.40
   8   1   6 1018.67   34.34
   8  -1   6 1037.54   41.72
  -8   1  -6 1058.61   35.02
   8  -1   6 1110.88   27.57
  -8  -1  -6 1012.57   43.19
   8  -1   6 1029.13   37.98
   8  -1   6 1031.33   33.69
   9  -1   6 1242.67   30.37
  -9   1  -6 1180.91   39.22
   9  -1   6 1199.97   42.66
  -9  -1  -6 1143.17   48.11
  -9  -1  -6 1152.21   41.53
   9  -1   6 1076.28   44.94
   9   1   6 1143.95   37.89
   9  -1   6 1126.19   36.92
  10  -1   6  915.23   39.80
  10  -1   6  897.89   31.91
 -10  -1  -6  954.63   43.37
  10   1   6  932.30   32.85
 -10   1  -6  923.74   34.32
 -10  -1  -6  916.97   36.49
  10  -1   6  924.26   37.04
  11  -1   6  343.71   20.59
  11  -1   6  326.33   21.16
 -11   1  -6  358.54   19.28
 -11  -1  -6  318.28   23.37
  11   1   6  343.37   17.53
  11  -1   6  313.58   16.63
 -11  -1  -6  336.99   20.20
  12  -1   6   95.05   10.47
 -12  -1  -6   79.41   11.40
 -12   1  -6   95.87    9.48
  12  -1   6   94.49    8.44
 -12  -1  -6  100.55   14.96
  12   1   6   89.31    8.09
  12  -1   6   91.05   11.43
  13  -1   6   12.40    3.01
  13  -1   6   14.68    3.98
 -13   1  -6   10.75    3.65
 -13  -1  -6    8.43    3.11
  13   1   6   14.65    2.70
 -13  -1  -6   12.41    4.08
  13  -1   6   13.06    2.91
 -14   1  -6   43.49    9.24
 -14  -1  -6   45.61    8.60
  14  -1   6   45.11    6.50
  14   1   6   47.88    6.94
  14  -1   6   50.72    8.87
 -14   1  -6   44.76    8.26
  14  -1   6   35.23    7.18
 -14  -1  -6   47.98   10.39
 -15  -1  -6    1.79    2.24
 -15   1  -6    0.91    1.91
 -15   1  -6    1.67    2.15
 -15  -1  -6    0.11    2.14
  15  -1   6    1.12    1.98
 -16  -1  -6    1.60    3.42
 -16   1  -6    2.16    4.08
 -16   1  -6    0.89    2.35
  16  -1   6    0.41    2.12
 -16  -1  -6    3.90    4.09
  17  -1   6    8.39    3.00
 -17   1  -6   15.20    7.47
 -17  -1  -6   19.97    8.09
 -17   1  -6   12.18    5.95
 -17  -1  -6   16.84    7.69
 -18   1  -6   53.81   11.79
 -18  -1  -6   34.39   11.15
 -18   1  -6   27.12    9.37
 -18  -1  -6   34.25   10.52
 -19  -2   6   68.48   14.55
 -19   2   6   74.19   14.18
  19  -2  -6   89.50   16.20
 -18  -2   6   -2.02    3.71
  18  -2  -6    0.69    3.75
 -18  -2   6    1.97    5.31
 -18   2   6   -1.50    3.07
 -17  -2   6   65.38    9.57
 -17  -2   6   47.80   13.48
  17   2  -6   68.18    9.81
 -17   2   6   85.29   13.57
  17  -2  -6   87.81   15.42
  16  -2  -6   -2.47    2.56
 -16   2   6    0.64    1.88
 -16  -2   6    0.90    3.14
 -16  -2   6   -1.87    2.38
  16   2  -6   -0.82    2.10
 -15   2   6   18.87    4.48
 -15  -2   6   12.66    2.27
  15  -2  -6   27.78    5.58
  15  -2  -6   18.55    5.26
  15  -2  -6   19.99    4.41
 -15  -2   6   16.62    5.20
  15   2  -6   20.12    4.19
  14  -2  -6    0.91    2.32
 -14  -2   6    3.80    1.93
 -14   2   6    5.71    2.08
  14  -2  -6    2.90    1.99
 -14  -2   6    4.32    2.26
  14   2  -6    3.07    1.90
  14  -2  -6    4.71    2.23
  13  -2  -6   99.60   12.33
 -13  -2   6   91.06   11.62
 -13  -2   6  118.43   16.55
 -13   2   6  102.74   10.12
  13   2  -6  118.40   10.52
  13  -2  -6   83.67   12.16
  13  -2  -6   80.58   12.07
  12   2  -6   -0.88    1.29
 -12  -2   6    3.68    2.32
 -12   2   6   -0.07    1.03
  12  -2  -6    0.81    1.78
  12  -2  -6    2.60    1.94
 -12  -2   6   -1.05    1.46
  12  -2  -6    0.99    1.48
  11   2  -6   -0.90    1.23
 -11  -2   6    3.86    1.67
  11  -2  -6    0.19    1.42
  11  -2  -6    9.41    3.15
  11  -2  -6    2.09    1.61
 -11   2   6    1.29    1.08
 -11  -2   6   -0.47    1.20
  10   2  -6    2.98    1.29
  10  -2  -6    2.34    1.58
 -10  -2   6   -0.54    0.96
  10  -2  -6    0.62    1.40
 -10  -2   6    1.68    1.27
  10  -2  -6   -1.45    1.11
  -9  -2   6 1990.06   57.96
   9  -2  -6 1957.72   61.47
  -9  -2   6 2039.42   58.85
   9  -2  -6 1929.25   61.08
   9   2  -6 2014.71   62.82
  -9  -2   6 2032.55   64.63
   9  -2  -6 1910.35   63.79
   8  -2  -6   44.78    7.40
  -8  -2   6   54.55    8.86
  -8  -2   6   49.52    6.16
   8  -2  -6   65.64    9.08
   8  -2  -6   56.18    8.59
  -8  -2   6   49.44    7.29
   7  -2  -6 3287.93   93.24
  -7  -2   6 3431.23   85.78
   7  -2  -6 3203.83   87.84
  -7  -2   6 3272.08   86.28
  -7  -2   6 3256.77   92.74
  -6  -2   6    2.22    1.63
  -6  -2   6    1.43    0.61
   6  -2  -6    2.44    1.39
  -6  -2   6    1.15    1.01
  -6  -2   6    1.23    0.69
  -6   2   6    2.73    0.90
   6  -2  -6    4.56    2.10
  -5  -2   6  202.87    8.46
  -5  -2   6  180.37   11.95
  -5   2   6  201.03   10.17
  -5  -2   6  200.60   13.64
  -5  -2   6  195.95    8.80
   5  -2  -6  201.78   12.17
  -5   2   6  188.48    8.05
  -4   2   6    8.03    2.10
   4  -2  -6    2.65    1.13
  -4  -2   6    7.70    1.66
  -4   2   6    8.28    2.24
  -4  -2   6    9.84    1.63
   4  -2  -6    6.14    2.14
  -4  -2   6    5.09    2.10
  -4  -2   6    5.71    2.49
  -3  -2   6  604.87   20.40
  -3   2   6  656.51   20.05
  -3  -2   6  564.91   23.61
  -3  -2   6  627.26   16.38
   3  -2  -6  606.33   22.34
  -3  -2   6  558.10   24.83
   3  -2  -6  603.78   24.64
  -2   2   6   32.06    3.46
   2  -2  -6   23.84    4.80
  -2  -2   6   16.50    4.16
   2  -2  -6   25.96    5.13
  -2  -2   6   28.15    4.06
   2  -2  -6   33.99    4.74
  -2  -2   6   29.11    5.29
  -1  -2   6  777.80   29.25
  -1  -2   6  777.18   28.02
   1  -2  -6  789.96   24.72
   1  -2  -6  798.89   29.63
  -1  -2   6  794.67   26.46
  -1   2   6  756.17   24.38
   0  -2  -6   -0.40    0.55
   0  -2  -6    2.95    1.77
   0  -2  -6    0.39    0.56
   0  -2   6    0.89    0.85
   0  -2   6    0.41    1.16
   0  -2   6   -0.32    1.07
   0  -2  -6    4.55    2.38
   0   2   6    1.36    1.20
  -1  -2  -6   74.33    4.88
   1  -2   6   69.28    7.72
   1   2   6   81.90    5.62
  -1   2  -6   74.82    3.15
  -1   2  -6   74.82    3.37
   1  -2   6   73.45    6.62
   1   2   6   81.35    4.82
  -1  -2  -6   85.43    7.81
  -1  -2  -6   75.55    7.63
  -1  -2  -6   79.52    5.59
  -2   2  -6   -0.32    0.34
   2  -2   6    0.67    0.84
  -2  -2  -6    2.18    1.36
   2   2   6    1.12    1.18
  -2  -2  -6    0.99    0.80
   2   2   6    0.41    0.80
  -2  -2  -6    1.40    1.13
  -2  -2  -6    0.29    0.44
   2  -2   6   -0.86    0.67
  -3   2  -6   48.93    3.27
  -3  -2  -6   39.34    6.43
   3   2   6   50.96    2.92
  -3  -2  -6   38.13    6.59
   3  -2   6   41.52    6.45
  -3   2  -6   45.54    3.52
   3  -2   6   46.77    7.80
  -4  -2  -6    0.86    0.90
  -4  -2  -6    1.34    1.41
  -4   2  -6    0.46    0.53
  -4  -2  -6   -0.85    0.70
   4  -2   6   -1.06    0.64
   4  -2   6    4.86    2.01
  -5  -2  -6 1613.96   52.58
   5  -2   6 1574.83   51.93
   5  -2   6 1695.70   56.99
  -5  -2  -6 1562.32   50.69
  -5   2  -6 1651.15   45.55
  -5  -2  -6 1661.47   54.15
   6  -2   6   10.08    3.43
  -6  -2  -6    9.57    2.88
  -6  -2  -6   14.25    4.10
  -6   2  -6   11.45    2.70
   6  -2   6   18.05    4.70
  -6  -2  -6   15.38    4.35
   7  -2   6 2412.05   67.95
  -7  -2  -6 2367.02   78.12
   7  -2   6 2331.95   77.02
  -7   2  -6 2390.65   65.52
   7  -2   6 2331.49   72.16
   7   2   6 2348.69   64.65
  -7  -2  -6 2453.33   72.95
  -8   2  -6   13.70    3.19
   8  -2   6   15.56    4.66
  -8  -2  -6   12.53    4.06
   8   2   6   15.27    3.39
   8  -2   6    9.50    3.27
   8  -2   6   23.24    5.16
  -8  -2  -6   10.12    3.17
   9   2   6   36.04    5.30
  -9   2  -6   43.50    6.43
   9  -2   6   48.35    8.55
  -9  -2  -6   39.90    7.99
   9  -2   6   36.03    6.95
   9  -2   6   50.68    7.87
  -9  -2  -6   44.12    9.13
 -10  -2  -6   -0.58    1.56
  10  -2   6   -0.46    1.43
 -10   2  -6    1.76    1.61
  10  -2   6    2.14    1.25
  10  -2   6   -0.75    1.25
  10   2   6    0.04    0.88
 -10  -2  -6    1.29    1.74
 -11   2  -6  537.04   24.68
 -11  -2  -6  542.12   28.99
  11  -2   6  536.49   25.79
  11  -2   6  519.32   28.18
 -11  -2  -6  465.39   32.42
  11   2   6  542.33   21.77
  11  -2   6  516.31   27.77
 -12   2  -6    4.96    2.60
  12  -2   6    9.05    2.99
  12  -2   6    6.72    2.06
 -12  -2  -6    6.27    2.77
  12  -2   6    5.92    2.65
  12   2   6   10.65    2.09
 -12  -2  -6   14.33    4.54
 -13   2  -6  276.65   17.67
  13  -2   6  286.21   19.38
  13  -2   6  260.82   19.43
  13  -2   6  261.87   17.58
 -13  -2  -6  217.14   22.19
 -13  -2  -6  238.67   19.51
 -14  -2  -6    1.28    2.63
 -14   2  -6    9.28    2.65
  14  -2   6   10.34    2.45
  14  -2   6    7.08    2.57
 -14  -2  -6   18.04    4.98
  15  -2   6    3.78    2.26
 -15  -2  -6   -1.51    2.67
  15  -2   6    3.02    2.26
 -15  -2  -6    3.89    2.85
 -15   2  -6    2.81    2.14
  16  -2   6   -0.17    2.52
 -16   2  -6    6.19    4.49
 -16  -2  -6    2.58    5.73
 -16   2  -6   13.04    5.38
  16  -2   6    8.37    4.96
 -16  -2  -6    6.65    5.89
 -17   2  -6    7.32    5.36
  17  -2   6    1.74    4.19
 -17  -2  -6    2.15    3.78
 -17  -2  -6    2.06    6.73
 -17   2  -6    2.07    4.30
 -18   2  -6   -1.16    4.08
  18  -2   6    1.31    3.40
 -17  -3   6  127.62   21.28
 -17   3   6   98.78   14.79
  17  -3  -6   92.64   17.10
 -16   3   6    0.92    2.17
 -16  -3   6   -0.10    3.49
 -16  -3   6   -3.00    4.99
  16  -3  -6    2.91    5.12
 -15  -3   6    5.88    4.23
 -15   3   6    3.13    1.91
  15  -3  -6    3.30    3.78
  15  -3  -6   -3.21    3.61
  15   3  -6    5.44    2.56
 -15  -3   6    1.61    3.23
  14  -3  -6    1.11    1.98
 -14   3   6    1.86    1.59
 -14  -3   6    0.40    2.79
  14  -3  -6   -2.74    2.03
  14   3  -6    3.42    2.20
 -14  -3   6   -1.13    2.28
  13  -3  -6   17.14    4.39
  13  -3  -6   24.95    6.41
 -13  -3   6   14.48    2.87
 -13  -3   6   17.81    4.41
  13   3  -6   23.28    4.74
  12  -3  -6  105.54   13.88
 -12  -3   6  107.18   12.65
 -12  -3   6   84.38   11.44
  12  -3  -6  100.38   14.48
  12   3  -6   99.60    9.55
 -12  -3   6   85.87   14.14
  12  -3  -6  112.02   10.54
 -11  -3   6  489.25   25.82
  11  -3  -6  505.12   28.45
  11  -3  -6  505.43   29.06
  11   3  -6  546.88   26.62
 -11  -3   6  558.90   32.51
  11  -3  -6  573.64   28.03
 -11  -3   6  548.61   27.04
  10  -3  -6  240.30   18.03
  10  -3  -6  260.58   19.20
  10   3  -6  275.12   17.28
 -10  -3   6  266.88   16.33
 -10  -3   6  239.38   16.68
  10  -3  -6  253.73   17.18
 -10  -3   6  225.86   19.15
  -9  -3   6  523.48   30.01
   9  -3  -6  539.70   28.16
  -9  -3   6  550.52   24.35
   9  -3  -6  596.39   27.73
   9  -3  -6  523.57   27.88
  -9  -3   6  516.77   26.02
  -8  -3   6   49.68    8.29
  -8  -3   6   58.62    7.18
   8  -3  -6   49.57    8.30
   8  -3  -6   58.00    9.15
   8  -3  -6   58.96    9.68
  -8  -3   6   49.10    9.66
  -7  -3   6  407.06   24.64
   7  -3  -6  433.29   22.96
  -7  -3   6  438.12   22.99
   7  -3  -6  398.12   21.70
   6  -3  -6  714.74   30.46
  -6  -3   6  707.25   23.81
  -6  -3   6  714.23   33.64
  -6  -3   6  695.57   30.74
   6  -3  -6  711.49   30.56
  -6  -3   6  751.14   20.02
   5  -3  -6 1122.71   40.60
  -5  -3   6 1125.56   41.74
  -5  -3   6 1180.34   33.18
   5  -3  -6 1139.32   41.83
  -5  -3   6 1162.43   45.34
  -5  -3   6 1192.01   32.12
   4  -3  -6  752.36   29.73
  -4  -3   6  735.82   33.56
  -4  -3   6  746.62   31.69
  -4  -3   6  797.33   24.56
   4  -3  -6  700.77   30.71
  -4  -3   6  781.14   22.43
   3  -3  -6  939.55   36.39
  -3  -3   6  876.31   37.17
  -3  -3   6  933.21   29.17
  -3  -3   6  891.00   35.01
   3  -3  -6  860.36   32.32
  -3  -3   6  948.96   24.61
  -2  -3   6   28.04    4.32
  -2  -3   6   24.39    5.89
  -2  -3   6   34.88    6.60
   2  -3  -6   28.31    5.94
   2  -3  -6   18.59    4.51
   2   3  -6   26.64    2.09
   2  -3  -6   37.88    5.98
   1  -3  -6   10.89    2.94
  -1  -3   6   11.32    2.67
   1   3  -6   14.57    1.47
   1  -3  -6   13.04    2.59
  -1  -3   6    8.60    3.06
  -1  -3   6   13.61    4.24
   1  -3  -6   21.10    4.88
   1  -3  -6    6.69    2.50
   0  -3   6    1.23    0.84
   0   3  -6    0.07    0.76
   0  -3   6    1.96    1.44
   0  -3  -6    1.01    1.06
   0  -3  -6    0.37    0.96
   0  -3  -6    1.43    0.88
   0  -3   6    0.29    0.81
   0  -3  -6    2.83    1.48
  -1   3  -6    0.00    0.92
  -1  -3  -6    3.19    1.47
   1  -3   6    3.22    1.52
  -1  -3  -6    0.74    0.77
  -1  -3  -6    0.59    1.16
  -1  -3  -6    0.42    1.17
   1  -3   6   -0.69    0.75
   2  -3   6   65.64    8.58
  -2  -3  -6   85.94   11.33
  -2  -3  -6   84.68    6.05
   2  -3   6   77.91    9.61
  -2  -3  -6   94.60    7.98
  -2   3  -6   95.80    5.78
  -2  -3  -6   85.02   10.55
  -3  -3  -6  500.88   25.65
   3  -3   6  469.84   22.44
   3  -3   6  463.91   22.70
  -3  -3  -6  455.55   23.66
  -3   3  -6  481.76   17.30
  -3  -3  -6  463.71   21.42
  -4  -3  -6  284.56   17.86
   4  -3   6  310.32   18.15
  -4  -3  -6  303.27   16.90
  -4  -3  -6  281.08   18.74
  -4   3  -6  285.71   10.96
  -5  -3  -6  233.71   16.95
   5  -3   6  221.89   15.42
  -5  -3  -6  211.07   14.30
   5  -3   6  188.96   15.52
  -5  -3  -6  218.68   15.76
   6  -3   6   -1.10    0.98
   6  -3   6    1.52    1.31
  -6  -3  -6    2.62    1.50
  -6  -3  -6    1.24    1.27
   7  -3   6  183.28   14.99
  -7  -3  -6  201.77   15.35
  -7  -3  -6  193.47   15.23
   7  -3   6  209.08   16.32
   8   3   6  555.37   21.40
  -8  -3  -6  499.28   27.36
   8  -3   6  547.10   29.07
   8  -3   6  551.41   28.73
   9  -3   6 1169.68   47.17
   9  -3   6 1244.21   49.20
   9   3   6 1175.90   36.87
  -9  -3  -6 1141.85   52.99
  -9  -3  -6 1092.23   45.55
  10  -3   6  262.54   19.67
 -10  -3  -6  256.58   22.61
 -10   3  -6  216.95   14.49
  10  -3   6  246.48   18.19
 -10  -3  -6  236.28   18.35
  10  -3   6  247.66   18.20
  11  -3   6  229.92   17.75
 -11   3  -6  211.79   14.66
  11  -3   6  208.11   17.83
  11  -3   6  237.01   17.70
 -11  -3  -6  218.09   21.61
 -12  -3  -6   15.60    3.88
 -12   3  -6   22.90    4.86
  12  -3   6   22.12    4.94
  12  -3   6   24.24    6.56
 -13  -3  -6    4.57    3.36
  13  -3   6    7.37    2.64
 -13   3  -6    4.83    1.99
  13  -3   6    2.83    2.12
 -13  -3  -6    2.22    2.17
 -14  -3  -6    3.41    4.62
 -14   3  -6    3.99    2.22
 -14  -3  -6    4.29    5.25
  14  -3   6    7.67    2.84
  14  -3   6    5.70    4.63
 -15   3  -6    7.34    3.82
 -15  -3  -6    2.20    6.06
  15  -3   6   10.46    5.23
  15  -3   6    4.54    5.25
 -15  -3  -6    6.11    5.80
  16  -3   6   -3.58    4.17
  16  -3   6    1.50    4.64
 -16   3  -6    1.23    4.26
 -16  -3  -6   -1.58    6.07
 -16  -3  -6    3.39    5.54
 -17   3  -6   27.99    8.07
  17  -3   6    9.21    7.18
 -15  -4   6    2.05    4.73
  15  -4  -6   -3.25    4.57
  14  -4  -6   11.20    7.71
 -14  -4   6   29.35   11.27
 -13  -4   6   17.96    9.06
  13   4  -6    8.68    2.72
  13  -4  -6    7.97    6.19
  12   4  -6   18.55    3.40
  12  -4  -6   15.44    6.07
 -12  -4   6   11.87    7.21
  12  -4  -6   19.67    7.39
  11  -4  -6    6.02    2.92
 -11  -4   6    5.57    2.38
  11  -4  -6    4.53    2.58
  11   4  -6    3.23    2.14
 -11  -4   6    7.41    4.50
 -10  -4   6  114.26   17.17
  10  -4  -6  104.80   15.68
 -10  -4   6  111.55   14.35
  10  -4  -6  110.19   10.60
  -9  -4   6   87.01   12.53
   9  -4  -6   77.83   10.62
   9  -4  -6  110.88   15.32
  -9  -4   6   90.44   14.84
  -8  -4   6 1678.78   60.04
   8  -4  -6 1679.53   61.91
   8  -4  -6 1677.09   58.80
  -8  -4   6 1643.46   66.11
  -7  -4   6   32.20    7.97
   7  -4  -6   36.55    6.72
   7  -4  -6   40.78    8.51
  -7  -4   6   35.54    7.41
  -6  -4   6  838.72   41.21
  -6  -4   6  799.04   37.02
   6  -4  -6  817.36   36.70
   6  -4  -6  788.33   35.60
  -5  -4   6    3.48    2.37
   5  -4  -6    5.56    1.34
  -5  -4   6    7.24    3.18
   5  -4  -6    5.54    1.79
  -4  -4   6   46.79    8.76
   4  -4  -6   31.95    6.67
  -4  -4   6   40.13    9.13
   4  -4  -6   47.67    8.11
  -4  -4   6   47.16    4.51
   3  -4  -6    8.21    2.58
  -3  -4   6    7.67    3.23
  -3  -4   6    9.39    4.03
   3  -4  -6    7.98    2.62
  -3  -4   6    9.74    1.78
   2  -4  -6  613.59   29.53
  -2  -4   6  552.24   30.88
   2  -4  -6  601.73   27.11
  -2  -4   6  590.26   29.56
   2  -4  -6  566.74   29.40
  -2  -4   6  589.90   24.59
   1  -4  -6   54.62    9.56
  -1  -4   6   50.27    9.60
   1  -4  -6   60.63   10.21
  -1  -4   6   54.87    7.32
   1  -4  -6   62.62    8.51
  -1  -4   6   66.65   10.77
   0  -4   6    1.28    1.41
   0  -4  -6   -0.24    1.22
   0  -4  -6   -0.53    1.22
   0  -4  -6    1.51    1.62
   0  -4   6    1.30    1.83
   0  -4   6    0.72    1.12
   0  -4  -6   -0.51    1.29
  -1  -4  -6   36.18    7.77
   1  -4   6   20.01    4.22
  -1  -4  -6   17.31    3.87
  -1  -4  -6   29.33    5.26
  -1  -4  -6   17.61    5.19
   1  -4   6   23.57    5.98
  -2  -4  -6   14.96    3.80
   2  -4   6   15.42    4.05
  -2  -4  -6   13.22    4.20
   2  -4   6   21.34    4.88
  -2  -4  -6    8.76    2.98
   3  -4   6    2.21    1.41
   3  -4   6    0.43    1.29
  -3  -4  -6    3.99    1.74
  -3  -4  -6   -1.19    1.37
  -3  -4  -6   -0.52    1.50
   4  -4   6  266.73   17.70
   4  -4   6  249.94   17.85
  -4  -4  -6  243.15   18.22
  -4  -4  -6  259.31   17.50
  -5  -4  -6   18.01    4.81
   5  -4   6   25.62    6.10
  -5  -4  -6   28.99    6.08
   5  -4   6   22.04    4.91
  -6  -4  -6 1235.96   49.79
  -6  -4  -6 1207.86   48.25
   6  -4   6 1287.38   50.08
   6  -4   6 1252.86   45.82
   7  -4   6   37.71    6.77
  -7  -4  -6   26.33    6.76
  -7  -4  -6   37.48    7.20
   7  -4   6   31.64    7.33
  -8  -4  -6  383.96   25.08
  -8  -4  -6  331.06   23.47
   8  -4   6  383.88   21.49
   8  -4   6  347.99   23.86
   9  -4   6    4.85    2.45
  -9  -4  -6   -1.33    2.33
  -9  -4  -6    1.76    2.20
   9  -4   6    5.85    1.78
  10  -4   6   87.63   10.71
  10  -4   6   78.55   13.01
 -10  -4  -6   72.36   12.17
 -10  -4  -6   72.81   12.01
 -11   4  -6   28.14    5.41
  11  -4   6   39.93   10.41
 -11  -4  -6   45.30    7.98
 -11  -4  -6   28.74    6.46
 -12  -4  -6  224.06   26.35
 -12  -4  -6  228.99   21.61
  12  -4   6  209.56   23.67
 -12   4  -6  202.38   14.47
  13  -4   6    4.67    5.08
 -13  -4  -6   -0.08    5.32
 -13  -4  -6    4.74    5.80
 -13   4  -6   10.08    2.74
 -14  -4  -6   56.12   14.92
  14  -4   6   41.91   11.72
 -14  -4  -6   36.69   12.51
  12  -5  -6   97.46   19.24
 -11  -5   6   31.70   10.50
  11  -5  -6   45.34   12.54
  10  -5  -6  344.32   28.24
 -10  -5   6  337.11   30.79
 -10  -5   6  329.84   26.55
   9  -5  -6   44.18   10.74
  -9  -5   6   47.83   13.11
  -9  -5   6   49.69   11.58
  -8  -5   6   10.92    6.61
  -8  -5   6   19.38    6.83
   8  -5  -6   15.86    5.55
  -7  -5   6   37.39    8.17
   7  -5  -6   45.43    7.71
   7  -5  -6   35.27    8.23
  -7  -5   6   29.89    9.11
  -6  -5   6  488.26   33.67
   6  -5  -6  499.98   29.89
   6  -5  -6  511.79   28.61
  -6  -5   6  531.23   31.65
   5  -5  -6  146.78   14.23
  -5  -5   6  183.89   17.12
   5  -5  -6  155.54   14.05
  -5  -5   6  149.13   19.94
  -4  -5   6  720.49   40.26
   4  -5  -6  717.10   35.22
  -4  -5   6  715.59   37.17
   4  -5  -6  700.56   35.48
   3  -5  -6  112.67   14.57
  -3  -5   6  120.06   17.76
   3  -5  -6  131.28   12.30
  -3  -5   6  119.52   16.09
  -2  -5   6   19.79    5.48
  -2  -5   6   23.13    6.08
   2  -5  -6   25.99    5.58
   2  -5  -6   16.60    4.80
   1  -5  -6   -0.01    1.82
   1  -5  -6   -0.94    1.72
  -1  -5   6   -0.96    1.67
  -1  -5   6    1.30    2.03
  -1  -5   6    3.42    1.83
   0  -5  -6   39.59    7.99
   0  -5   6   44.81    8.95
   0  -5  -6   39.07    7.55
  -1  -5  -6   17.63    3.65
  -1  -5  -6    8.17    2.35
   1  -5   6    2.60    1.92
   1  -5   6    4.70    1.99
  -1  -5  -6    1.93    2.00
  -2  -5  -6   90.92   13.51
   2  -5   6  109.25   13.30
   2  -5   6  116.26   14.83
  -2  -5  -6   93.31   11.61
  -3  -5  -6   53.74    9.70
   3  -5   6   45.26    8.93
  -3  -5  -6   50.35    7.83
   3  -5   6   47.17    8.03
  -4  -5  -6  198.69   16.31
   4  -5   6  218.46   16.99
  -4  -5  -6  220.07   18.45
   4  -5   6  232.63   18.49
  -5  -5  -6   29.93    4.31
  -5  -5  -6   23.63    6.10
   5  -5   6   30.20    6.60
  -6  -5  -6   -1.11    2.50
   6  -5   6   -1.92    2.14
   6  -5   6    1.96    2.20
  -6  -5  -6    2.13    2.62
   7  -5   6   28.33    5.20
  -7  -5  -6   38.17    8.02
  -7  -5  -6   20.75    4.96
   7  -5   6   32.63    7.72
   8  -5   6  379.02   22.90
   8  -5   6  420.50   30.20
  -8  -5  -6  403.51   28.23
  -8  -5  -6  388.74   26.70
  -9  -5  -6  174.69   22.25
  -9  -5  -6  140.76   19.30
   9  -5   6  165.14   21.80
  10  -5   6  333.15   27.72
 -10  -5  -6  304.75   27.14
 -10  -5  -6  289.39   26.44
  11  -5   6   30.90   10.38
 -11  -5  -6   19.59    8.99
 -11  -5  -6   23.90    9.75
 -12  -5  -6   13.87    9.96
 -12  -5  -6   16.61   10.01
   8  -6  -6   56.87   15.07
   7  -6  -6  485.66   34.60
  -7  -6   6  507.26   36.06
  -6  -6   6   81.37   16.48
  -6  -6   6   63.09   15.46
   6  -6  -6   50.35   12.64
  -5  -6   6   12.79    6.85
  -5  -6   6   24.91    9.06
   5  -6  -6   38.19   10.73
  -4  -6   6   20.09    8.24
  -4  -6   6   11.41    5.72
  -3  -6   6   95.05   16.55
  -3  -6   6   78.35   15.28
  -2  -6   6   25.00    8.72
  -1  -6   6   93.15   16.43
   0  -6   6   -0.30    3.63
   1  -6   6    8.96    5.35
  -2  -6  -6    6.04    4.22
   2  -6   6   10.69    5.37
   2  -6   6    8.92    3.58
   3  -6   6    3.52    4.20
  -3  -6  -6   -0.86    4.39
   3  -6   6    2.92    3.98
   4  -6   6    1.87    4.24
   4  -6   6    3.08    5.21
  -4  -6  -6    6.38    6.02
  -5  -6  -6  203.35   23.88
   5  -6   6  235.36   22.11
   5  -6   6  218.40   20.20
  -6  -6  -6   56.64   13.39
   6  -6   6   66.82   13.86
  -7  -6  -6  402.64   31.26
   7  -6   6  400.49   30.55
  -8  -6  -6    6.87    8.69
  20   0  -7   -2.20    4.07
  19   0  -7  276.29   22.25
  19   0  -7  256.35   21.28
 -19   0   7  268.65   24.94
 -19   0   7  298.09   24.31
 -18   0   7   -0.86    3.60
  18   0  -7   -1.45    2.46
 -18   0   7   -1.51    3.51
  18   0  -7    3.10    4.44
 -17   0   7    3.84    2.36
 -17   0   7    2.42    2.03
  17   0  -7    3.54    2.14
  17   0  -7    3.28    2.47
  16   0  -7    2.04    1.81
 -16   0   7    0.64    1.79
  16   0  -7    0.73    1.97
 -16   0   7    1.71    2.03
  15   0  -7  917.93   40.10
 -15   0   7  957.07   43.95
  15   0  -7  999.80   43.07
  14   0  -7    0.18    1.44
  14   0  -7    4.26    2.50
 -14   0   7    0.66    1.65
  13   0  -7 1495.21   54.12
  13   0  -7 1430.65   52.23
 -13   0   7 1564.40   56.60
  12   0  -7   -0.92    1.10
  12   0  -7   -0.05    1.23
 -12   0   7    1.85    1.16
  11   0  -7  140.26   11.59
  11   0  -7  139.06   11.56
 -11   0   7  132.38   11.49
  10   0  -7    1.02    1.10
  10   0  -7    0.78    1.06
  10   0  -7   -0.05    0.94
 -10   0   7    1.42    0.99
 -10   0   7    0.01    0.65
   9   0  -7   96.95    6.09
   9   0  -7   94.21    8.60
   9   0  -7   98.85    8.78
  -9   0   7   96.54    8.63
  -9   0   7   88.95    5.41
  -8   0   7   -0.06    0.52
  -8   0   7   -0.55    0.64
   8   0  -7   -0.30    0.81
   8   0  -7   -0.65    0.78
   8   0  -7    1.08    0.84
  -7   0   7  304.24   15.09
   7   0  -7  302.69   12.54
   7   0  -7  345.69   17.31
   7   0  -7  300.63   16.15
  -7   0   7  279.21   11.38
   6   0  -7    0.33    0.91
   6   0  -7   -0.18    0.70
   6   0  -7    1.25    0.98
  -6   0   7    0.15    0.45
  -6   0   7    0.37    0.68
  -5   0   7 1138.87   35.51
   5   0  -7 1206.29   35.51
  -5   0   7 1081.46   35.83
   5   0  -7 1092.25   37.10
   5   0  -7 1117.54   37.52
   5   0  -7 1188.82   35.42
  -4   0   7   -0.25    0.44
   4   0  -7   -0.18    0.56
   4   0  -7    0.45    0.66
  -4   0   7    0.23    0.48
   4   0  -7    0.37    0.76
   4   0  -7    2.18    1.21
  -3   0   7  331.20   13.11
   3   0  -7  325.47   15.39
  -3   0   7  338.34   14.55
  -3   0   7  331.21   11.77
   3   0  -7  335.52   15.39
   3   0  -7  341.94   12.49
   2   0  -7    2.12    1.11
  -2   0   7    3.82    1.41
  -2   0   7    0.19    0.39
   2   0  -7    0.77    0.55
  -2   0   7    0.31    0.76
   2   0  -7    0.65    0.71
   1   0  -7 3631.00   93.97
  -1   0   7 3634.64  100.02
  -1   0   7 3754.22   88.22
   1   0  -7 3768.44   87.33
   1   0  -7 3528.91   87.90
   0   0  -7    0.69    1.17
   0   0   7   -0.46    1.11
   0   0  -7   -0.88    0.87
   0   0  -7   -1.14    0.97
  -1   0  -7 4826.12  116.59
   1   0   7 4953.01  133.58
   1   0   7 5094.23  119.95
  -1   0  -7 4837.93  121.99
  -2   0  -7    0.13    0.51
   2   0   7    0.86    1.20
  -2   0  -7    0.34    0.51
   3   0   7  317.59   13.23
  -3   0  -7  318.45   13.72
  -3   0  -7  304.03   12.99
   3   0   7  306.61   14.50
  -4   0  -7    0.29    0.56
  -4   0  -7    0.14    0.57
   4   0   7    0.52    0.63
  -4   0  -7   -0.04    0.71
   4   0   7    1.07    1.27
   5   0   7  443.97   16.59
   5   0   7  409.08   18.63
  -5   0  -7  407.29   17.58
  -5   0  -7  425.06   16.54
  -5   0  -7  433.95   14.61
   6   0   7    4.31    1.63
  -6   0  -7    0.00    0.72
  -6   0  -7   -0.48    0.71
  -6   0  -7    0.14    0.84
  -7   0  -7   -1.20    0.68
   7   0   7    0.83    1.12
  -8   0  -7   -1.09    0.87
   8   0   7    1.10    0.85
  -9   0  -7  148.58   11.21
  -9   0  -7  159.21   13.39
   9   0   7  145.62   11.24
 -10   0  -7   -0.39    0.98
  10   0   7    0.55    1.13
 -10   0  -7   -2.42    1.06
 -11   0  -7   31.15    7.21
 -11   0  -7   28.11    5.98
  11   0   7   23.25    3.56
  11   0   7   21.93    5.03
  12   0   7   -0.14    1.26
 -12   0  -7    0.93    1.36
  12   0   7    0.12    1.10
 -12   0  -7    0.30    1.37
 -13   0  -7  944.09   39.54
  13   0   7  881.95   37.38
 -13   0  -7  970.26   45.09
 -14   0  -7    2.30    2.11
 -14   0  -7    2.65    1.81
 -15   0  -7  791.88   43.04
  15   0   7  728.56   33.10
 -15   0  -7  740.30   36.47
  16   0   7   -0.85    2.24
  16   0   7    0.92    2.09
 -16   0  -7   -1.73    2.90
 -16   0  -7   -1.26    3.58
 -17   0  -7    9.13    5.34
 -17   0  -7    5.58    5.18
 -18   0  -7    4.56    4.99
 -18   0  -7   -0.58    3.58
  19  -1  -7   72.43   13.23
 -19  -1   7   93.16   15.67
 -19   1   7  101.89   17.85
 -19   1   7  107.16   17.42
  19   1  -7   70.57   12.94
  19   1  -7   90.40   14.83
 -19  -1   7   69.68   14.85
 -18   1   7  276.90   23.48
 -18  -1   7  293.71   26.30
  18  -1  -7  328.36   24.82
  18   1  -7  271.12   22.22
  18   1  -7  289.94   21.74
 -18  -1   7  336.88   24.76
 -17  -1   7  564.66   30.88
 -17  -1   7  589.23   36.67
 -17   1   7  509.81   30.87
  17  -1  -7  554.45   31.64
  17  -1  -7  557.13   30.64
  17   1  -7  576.87   30.84
  17   1  -7  529.04   30.26
 -16   1   7  348.27   23.19
  16   1  -7  356.63   22.43
  16  -1  -7  368.61   23.31
 -16  -1   7  330.31   25.13
 -16  -1   7  372.58   23.26
  16   1  -7  335.15   22.19
  16  -1  -7  336.05   22.79
  15   1  -7  292.93   19.34
 -15  -1   7  290.62   22.37
  15  -1  -7  311.32   20.71
 -15   1   7  271.19   19.46
 -15  -1   7  287.90   19.44
  15   1  -7  291.21   19.96
  14   1  -7   23.35    5.37
  14   1  -7   17.93    4.13
 -14  -1   7   21.45    5.09
  14  -1  -7   20.51    4.44
 -14  -1   7   19.37    5.27
  14  -1  -7   23.77    6.66
 -14   1   7   19.58    5.03
  13   1  -7   57.48    8.74
 -13  -1   7   52.19    8.63
  13  -1  -7   60.11   10.67
 -13   1   7   70.29    9.86
  13  -1  -7   73.95   10.67
 -13  -1   7   76.23   12.12
 -12  -1   7  169.08   14.99
 -12  -1   7  189.35   13.97
  12  -1  -7  191.69   14.87
  12   1  -7  191.42   13.84
 -12   1   7  196.06   14.06
  12  -1  -7  186.38   15.36
  11  -1  -7  555.46   27.85
 -11  -1   7  534.15   24.94
  11  -1  -7  510.90   26.35
 -11   1   7  519.51   24.43
 -11  -1   7  521.93   20.62
 -11  -1   7  506.03   27.36
  11   1  -7  519.84   25.01
  10  -1  -7  317.67   19.11
 -10  -1   7  279.14   13.84
  10  -1  -7  294.11   18.83
 -10  -1   7  312.75   19.63
  10   1  -7  290.01   17.07
 -10   1   7  296.98   16.52
  -9  -1   7   19.19    3.56
  -9  -1   7   18.78    4.89
  -9   1   7   23.03    4.43
   9  -1  -7   20.78    4.77
   9   1  -7   24.97    4.94
  -9  -1   7   13.38    3.21
   9  -1  -7   20.05    4.53
   8  -1  -7    2.66    0.98
   8   1  -7    1.87    1.11
  -8  -1   7    2.02    1.09
  -8  -1   7    0.03    1.41
  -8   1   7    1.15    0.83
  -8  -1   7   -0.27    0.77
   8  -1  -7    1.17    0.80
   7   1  -7   -0.11    0.86
  -7  -1   7    1.60    1.52
  -7   1   7    1.14    0.75
  -7  -1   7    0.64    0.77
   7  -1  -7    1.19    0.83
   7  -1  -7   -0.63    0.86
  -6  -1   7   47.02    5.73
   6  -1  -7   39.48    6.40
   6   1  -7   42.17    6.57
  -6   1   7   48.71    4.30
  -6   1   7   51.53    3.41
   6  -1  -7   47.27    7.46
  -6  -1   7   45.34    6.34
  -5  -1   7  500.66   19.55
   5  -1  -7  527.47   22.29
  -5   1   7  505.27   17.26
   5  -1  -7  541.43   23.27
  -5   1   7  535.35   17.69
  -5  -1   7  545.16   21.42
   4  -1  -7 1180.90   38.74
  -4   1   7 1162.50   34.19
  -4   1   7 1100.33   31.62
  -4  -1   7 1121.51   35.60
   4  -1  -7 1167.64   37.75
  -3  -1   7 2490.74   59.26
  -3  -1   7 2500.00   65.98
   3  -1  -7 2455.82   69.57
  -3  -1   7 2451.14   73.96
   3  -1  -7 2522.53   69.35
   3   1  -7 2426.10   66.91
  -2  -1   7 1467.06   42.61
   2  -1  -7 1489.27   43.19
  -2  -1   7 1440.33   42.77
   2  -1  -7 1543.10   44.75
  -2  -1   7 1472.75   48.71
   2   1  -7 1528.53   43.77
  -2  -1   7 1560.60   36.91
  -1  -1   7  525.82   19.63
  -1  -1   7  527.40   19.72
   1  -1  -7  496.13   20.98
  -1  -1   7  522.30   22.62
   1   1  -7  537.95   19.42
  -1  -1   7  532.68   14.48
   1  -1  -7  560.85   19.65
   1  -1  -7  536.40   20.10
   0  -1   7  135.17    9.80
   0   1  -7  130.75    5.08
   0  -1  -7  121.43    8.25
   0  -1  -7  128.61    7.20
   0  -1   7  136.97    5.08
   0  -1  -7  129.08    8.90
   0   1  -7  128.63    7.69
   0  -1   7  122.98    8.29
  -1  -1  -7  284.41   10.92
  -1   1  -7  269.64    9.15
  -1  -1  -7  278.22   10.19
   1  -1   7  268.97    9.54
   1  -1   7  279.10   15.21
  -1  -1  -7  254.28   13.54
   1  -1   7  269.15   13.46
  -1  -1  -7  246.23   12.76
  -1   1  -7  259.51   11.38
   2  -1   7 1363.05   42.47
  -2  -1  -7 1505.41   38.43
  -2  -1  -7 1363.76   42.70
  -2  -1  -7 1370.78   41.63
  -2   1  -7 1413.08   37.32
   2  -1   7 1431.30   47.29
  -2   1  -7 1425.17   38.69
  -2  -1  -7 1406.46   40.99
  -3  -1  -7 1458.99   45.45
  -3  -1  -7 1561.29   44.98
  -3   1  -7 1469.07   40.26
   3  -1   7 1465.29   45.28
   3  -1   7 1498.69   50.19
  -3  -1  -7 1506.02   45.90
  -3   1  -7 1508.73   40.16
  -3  -1  -7 1563.88   39.50
   4  -1   7  643.22   27.99
  -4  -1  -7  691.14   25.83
  -4   1  -7  690.08   21.83
   4  -1   7  685.34   21.16
   4  -1   7  664.33   25.92
  -4   1  -7  658.94   19.62
  -4  -1  -7  630.60   25.98
  -5  -1  -7  265.13   14.25
  -5  -1  -7  204.11   14.04
   5   1   7  251.64   13.14
  -5  -1  -7  266.46   14.70
   5  -1   7  246.25   15.62
   5  -1   7  256.42   10.15
   5  -1   7  229.70   13.97
  -5   1  -7  241.60    9.05
  -5   1  -7  251.83   11.57
   6  -1   7    6.17    2.27
  -6   1  -7    7.77    2.19
  -6  -1  -7    6.29    2.29
   6   1   7    8.14    2.54
   6  -1   7    8.40    2.74
  -6  -1  -7   11.63    3.13
  -6  -1  -7   10.28    3.02
   6  -1   7    9.90    1.89
   7  -1   7   -0.44    0.75
  -7  -1  -7    1.85    1.44
  -7  -1  -7    0.53    0.96
  -7  -1  -7    0.70    1.00
  -7   1  -7    1.78    1.03
   7  -1   7   -0.28    0.93
   7  -1   7    2.23    0.79
   7   1   7    0.09    0.70
   8  -1   7   10.93    1.64
   8  -1   7   12.27    4.06
   8  -1   7   12.26    3.60
  -8  -1  -7    7.73    3.03
  -8  -1  -7   18.14    4.49
  -8   1  -7   19.23    3.82
   8   1   7   10.19    2.85
  -9   1  -7   97.30    8.31
   9  -1   7   67.81    9.86
  -9  -1  -7  101.40    9.73
   9  -1   7   86.88    7.49
   9  -1   7  109.41   11.15
   9   1   7   91.61    8.14
  -9  -1  -7  101.29   13.73
 -10  -1  -7  201.14   17.69
 -10   1  -7  228.97   14.30
 -10  -1  -7  212.57   15.60
  10   1   7  228.25   14.00
  10  -1   7  216.94   12.97
  10  -1   7  256.68   18.28
  10  -1   7  231.65   16.39
  11  -1   7  468.76   25.26
  11  -1   7  459.16   20.74
 -11  -1  -7  473.03   29.46
  11  -1   7  470.65   26.86
 -11   1  -7  445.88   22.29
  11   1   7  434.84   21.40
 -11  -1  -7  468.91   25.11
  12  -1   7  302.65   16.50
  12   1   7  311.39   17.48
  12  -1   7  332.91   21.82
 -12   1  -7  315.28   18.72
 -12  -1  -7  330.42   21.05
  12  -1   7  302.87   20.37
 -12  -1  -7  321.26   24.36
 -13  -1  -7  129.89   12.83
  13  -1   7  110.94   11.61
  13  -1   7  132.41   12.39
 -13   1  -7  127.28   11.61
 -13  -1  -7  114.64   16.68
  13   1   7  111.06    9.67
  13  -1   7  121.35    9.74
  14  -1   7   -1.39    1.59
 -14  -1  -7   -0.04    2.08
  14  -1   7   -0.19    1.75
  14   1   7    0.66    1.55
 -14   1  -7    0.03    1.64
 -14  -1  -7   -0.91    1.88
 -14   1  -7   -0.06    1.70
  14  -1   7    3.20    1.91
 -15  -1  -7  120.42   16.02
  15  -1   7  133.51   12.71
 -15   1  -7  123.24   12.30
 -15  -1  -7  154.75   20.42
 -15   1  -7  113.89   16.34
 -16  -1  -7  211.63   23.12
 -16  -1  -7  194.80   19.47
 -16   1  -7  219.96   21.41
 -16   1  -7  211.57   17.96
  16  -1   7  225.68   17.76
 -17   1  -7  240.12   22.89
 -17   1  -7  234.64   20.40
 -17  -1  -7  216.40   26.92
  17  -1   7  191.85   18.03
 -17  -1  -7  223.56   21.70
 -18   1  -7  131.18   18.17
 -18  -1  -7  115.17   18.31
 -19  -2   7   12.91    8.85
 -18  -2   7   81.34   16.89
 -18   2   7   92.77   14.89
 -18  -2   7   90.53   15.99
  18  -2  -7   94.05   16.03
 -17  -2   7   -1.77    3.86
  17  -2  -7    1.23    4.28
 -17  -2   7    1.12    2.88
 -17   2   7   -0.13    2.28
  17   2  -7    3.43    2.71
 -16   2   7  243.77   18.90
  16  -2  -7  253.27   21.44
 -16  -2   7  273.65   19.87
  16   2  -7  243.62   16.96
 -16  -2   7  249.38   24.37
  15   2  -7    5.50    2.46
  15  -2  -7    7.10    3.12
  15  -2  -7   10.00    3.80
 -15  -2   7   10.52    2.61
 -15  -2   7    5.32    2.56
 -15   2   7   11.43    3.05
 -14   2   7 1095.50   44.06
 -14  -2   7 1120.85   44.39
  14   2  -7 1047.73   41.88
  14  -2  -7  941.91   44.82
 -14  -2   7 1097.39   52.30
 -13  -2   7   20.46    4.94
  13  -2  -7   28.24    5.97
  13   2  -7   15.49    3.90
 -13   2   7   18.81    4.58
  13  -2  -7    7.55    2.42
 -12  -2   7  662.80   27.68
  12  -2  -7  544.84   31.42
  12  -2  -7  713.52   33.65
  12   2  -7  697.53   30.67
 -12   2   7  670.90   29.43
 -12  -2   7  715.34   30.87
  11   2  -7    2.54    1.33
  11  -2  -7    1.68    1.55
 -11  -2   7    2.81    1.79
 -11   2   7    0.50    1.03
 -11  -2   7    2.54    1.61
  11  -2  -7    2.61    1.61
 -11  -2   7    2.51    1.38
  10  -2  -7    2.47    1.67
 -10   2   7    4.72    1.80
  10   2  -7    3.60    1.97
 -10  -2   7    5.33    1.94
  10  -2  -7    3.90    1.62
 -10  -2   7   -1.42    1.08
 -10  -2   7    7.14    2.18
  -9  -2   7    3.55    2.21
   9   2  -7    4.93    2.10
  -9   2   7    3.36    1.42
  -9  -2   7    2.80    1.21
   9  -2  -7    4.06    1.36
   9  -2  -7    1.17    1.37
  -9  -2   7    1.23    1.16
  -8  -2   7    5.99    1.38
  -8  -2   7    5.09    1.98
  -8  -2   7    3.72    2.15
   8  -2  -7    4.49    2.01
   8  -2  -7    2.99    1.29
  -7  -2   7   20.53    4.85
   7  -2  -7   17.87    4.95
  -7  -2   7   25.24    3.81
  -7  -2   7   22.80    5.40
  -7  -2   7   22.48    1.79
  -6   2   7  366.87   11.71
  -6  -2   7  358.41   14.16
   6  -2  -7  333.31   19.36
  -6  -2   7  388.84   18.97
  -6  -2   7  360.83   19.90
  -6  -2   7  383.12   13.30
  -5  -2   7    5.79    2.07
  -5  -2   7    5.29    1.14
  -5  -2   7    8.97    3.33
  -5   2   7    5.93    1.63
  -5   2   7    3.38    1.44
  -5  -2   7    4.48    1.20
  -4  -2   7  336.55   13.95
  -4   2   7  349.60   13.26
  -4  -2   7  353.73   18.77
  -4  -2   7  348.09   11.15
   4  -2  -7  353.32   18.58
  -4  -2   7  356.37   17.88
   3  -2  -7   -0.50    0.60
  -3  -2   7   -0.12    0.61
   3  -2  -7    0.44    1.02
  -3   2   7    0.08    1.01
  -3  -2   7    4.11    1.86
  -3  -2   7   -0.33    0.87
   3  -2  -7    2.37    1.25
  -2  -2   7  961.20   33.53
   2  -2  -7  943.92   35.03
  -2  -2   7  979.53   31.29
   2  -2  -7  977.43   34.21
  -2  -2   7  985.02   35.19
   2  -2  -7 1021.60   30.96
  -1  -2   7   71.33    9.72
   1  -2  -7   85.11    7.90
  -1  -2   7   93.09    8.39
  -1   2   7   82.08    4.90
   1  -2  -7   78.00    7.81
  -1  -2   7   82.79    6.79
   1  -2  -7   76.14    5.83
   0   2   7 4848.26  124.60
   0  -2   7 4860.56  124.83
   0  -2  -7 4895.25  123.59
   0  -2   7 4690.69  138.67
   0  -2  -7 4982.59  114.60
   0  -2  -7 4854.51  126.79
   0  -2  -7 5054.71  116.69
   0  -2   7 4869.26  123.13
  -1   2  -7    2.96    1.00
   1   2   7    4.42    1.60
  -1  -2  -7    4.86    1.27
   1  -2   7    5.21    2.07
   1  -2   7    3.18    1.63
   1   2   7    6.45    1.88
  -1  -2  -7    4.70    1.87
  -1  -2  -7    6.76    1.67
  -1  -2  -7   13.27    3.77
   2   2   7 1490.23   42.29
  -2  -2  -7 1483.57   48.43
  -2  -2  -7 1445.94   40.94
  -2  -2  -7 1503.07   37.25
   2   2   7 1470.28   39.20
   2  -2   7 1489.03   52.30
   2  -2   7 1361.78   45.38
  -2   2  -7 1443.06   39.66
  -2   2  -7 1425.05   36.63
  -2  -2  -7 1404.53   45.88
  -3  -2  -7    1.18    1.28
   3  -2   7    4.72    2.35
  -3  -2  -7    1.97    0.92
  -3   2  -7    3.34    0.87
   3  -2   7    4.58    2.24
  -3  -2  -7    4.02    0.65
  -3   2  -7    2.85    0.97
  -4  -2  -7   82.85   10.04
   4  -2   7   82.91    8.32
  -4  -2  -7   97.98    8.21
  -4   2  -7   99.55    5.79
  -4  -2  -7   88.63    8.70
  -4   2  -7   99.25    4.35
   4  -2   7   86.47    9.34
  -5  -2  -7    6.09    2.34
  -5  -2  -7    2.63    1.55
  -5  -2  -7    9.01    3.10
   5  -2   7    4.20    1.70
  -5   2  -7    7.11    1.89
   5  -2   7    5.52    2.34
  -6  -2  -7  109.91   10.26
  -6   2  -7   98.76    7.00
  -6  -2  -7  110.64   10.28
  -6  -2  -7  113.38   10.05
   6  -2   7  100.11    9.87
   6  -2   7  108.25   10.96
   7  -2   7    1.21    1.27
  -7  -2  -7    2.05    1.31
   7   2   7    3.55    1.70
  -7   2  -7    2.05    0.85
  -7  -2  -7    0.81    1.23
   7  -2   7    2.17    1.00
   8  -2   7   39.00    7.67
  -8  -2  -7   42.66    7.78
  -8  -2  -7   35.57    7.38
  -8   2  -7   44.55    6.03
   8   2   7   37.83    5.69
   8  -2   7   43.71    8.34
  -9   2  -7   -0.82    0.99
  -9  -2  -7   -1.26    1.47
  -9  -2  -7    0.96    1.55
   9  -2   7    0.70    1.40
   9   2   7    4.35    1.46
   9  -2   7    1.54    1.45
  10   2   7   43.36    6.27
  10  -2   7   56.10    8.52
  10  -2   7   54.31   10.20
 -10  -2  -7   35.72    8.00
 -10  -2  -7   53.69    9.42
 -10   2  -7   58.23    7.64
  11  -2   7    1.00    1.65
 -11  -2  -7    0.64    1.63
 -11  -2  -7    3.42    2.63
 -11   2  -7    1.01    1.13
  11   2   7    2.84    1.47
  11  -2   7    0.93    1.35
  11  -2   7    2.11    1.60
  12  -2   7  308.27   21.16
 -12   2  -7  279.73   17.41
 -12  -2  -7  309.07   21.84
 -12  -2  -7  221.68   22.20
  12  -2   7  285.93   20.70
  12   2   7  310.64   15.95
  12  -2   7  266.54   17.47
 -13  -2  -7   15.70    4.86
  13  -2   7   16.12    4.63
  13  -2   7   10.96    3.16
 -13   2  -7   14.14    4.39
  13  -2   7   11.61    2.95
 -13  -2  -7   15.26    4.05
  14  -2   7  921.46   38.05
  14  -2   7  952.32   43.41
 -14  -2  -7  853.42   51.24
 -14  -2  -7  853.55   43.15
 -14   2  -7  921.68   38.95
  15  -2   7   -0.29    2.12
 -15  -2  -7    3.72    5.26
  15  -2   7    5.18    3.58
 -15   2  -7    2.60    2.43
 -15  -2  -7    7.21    7.26
  16  -2   7  171.90   20.34
 -16  -2  -7  181.41   26.96
 -16   2  -7  167.46   16.45
 -16  -2  -7  157.56   21.35
 -16   2  -7  160.18   20.66
 -17  -2  -7   -2.84    6.33
 -17   2  -7   -2.50    3.90
 -17  -2  -7    2.30    4.47
  17  -2   7   -0.36    4.36
  18  -2   7   11.09    5.60
  17  -3  -7  186.82   23.88
  16   3  -7  301.97   19.16
  16  -3  -7  296.37   26.37
 -16  -3   7  327.92   28.65
  15   3  -7  153.96   12.70
 -15  -3   7  139.98   20.79
 -15   3   7  139.59   12.44
  15  -3  -7  134.14   19.57
 -14   3   7   30.80    5.43
 -14  -3   7   36.45    9.57
  14  -3  -7   36.24    8.53
  14   3  -7   36.10    6.82
 -13  -3   7   14.49    4.80
  13  -3  -7   27.62    6.09
 -13  -3   7   17.58    3.15
  13   3  -7   22.31    5.12
 -13   3   7   15.25    3.44
  13  -3  -7   18.20    5.42
 -12  -3   7  230.00   16.55
  12   3  -7  200.61   15.16
 -12  -3   7  222.22   19.80
  12  -3  -7  239.47   17.82
  12  -3  -7  208.52   18.28
 -12  -3   7  206.50   15.60
 -11  -3   7  142.05   11.44
 -11  -3   7  159.72   18.34
  11  -3  -7  142.17   13.14
  11  -3  -7  154.24   14.95
 -11  -3   7  132.22   12.16
  11   3  -7  133.74   12.11
 -10  -3   7  230.89   19.00
 -10  -3   7  252.82   17.13
  10   3  -7  209.49   15.55
 -10  -3   7  230.25   14.70
  10  -3  -7  228.86   18.12
  10  -3  -7  229.92   17.06
   9  -3  -7   36.73    7.82
  -9  -3   7   38.73    8.70
  -9  -3   7   42.41    7.61
   9  -3  -7   35.73    7.00
  -9  -3   7   45.76    6.36
  -8  -3   7    4.76    2.71
  -8  -3   7    4.40    1.85
  -8  -3   7    3.96    1.21
   8  -3  -7    4.37    2.07
   8  -3  -7    2.37    1.97
  -7  -3   7    8.03    3.40
   7  -3  -7    5.61    2.19
   7  -3  -7    2.78    1.44
  -7  -3   7    2.82    1.59
   6  -3  -7   24.08    5.56
  -6  -3   7   28.93    6.92
  -6  -3   7   31.83    3.75
  -6  -3   7   20.93    5.27
  -6  -3   7   27.91    2.41
   6  -3  -7   31.79    6.50
  -5  -3   7   69.72    4.92
  -5  -3   7   63.38   10.48
  -5  -3   7   61.19    9.30
   5  -3  -7   60.67    9.36
   5  -3  -7   60.77    8.98
  -5  -3   7   67.59    4.31
  -4  -3   7  711.65   19.04
   4  -3  -7  655.48   27.76
  -4  -3   7  692.47   30.47
  -4  -3   7  692.24   23.37
  -4  -3   7  724.18   33.01
   4  -3  -7  697.51   30.77
  -3  -3   7  885.69   35.65
   3  -3  -7  897.92   32.90
   3  -3  -7  895.98   36.74
  -3  -3   7  912.55   38.09
  -3  -3   7  934.51   29.79
   2  -3  -7 1666.74   49.12
  -2  -3   7 1599.32   52.65
   2  -3  -7 1604.51   53.01
   2  -3  -7 1625.25   55.07
  -2  -3   7 1574.19   54.92
  -1  -3   7  260.94   17.29
  -1  -3   7  263.19   16.66
   1  -3  -7  234.75   16.58
   1  -3  -7  253.79   13.72
   1  -3  -7  231.04   15.72
   0  -3   7    1.91    1.08
   0  -3   7    5.55    2.19
   0  -3  -7   14.88    2.78
   0  -3  -7   10.07    2.36
   0  -3  -7    7.51    2.96
   0  -3  -7    6.07    2.58
   1  -3   7  109.79   10.25
  -1  -3  -7  114.95   11.16
  -1  -3  -7  111.79    8.08
  -1  -3  -7   84.85   10.83
  -1  -3  -7  109.04    7.54
  -2  -3  -7 1003.09   33.82
  -2  -3  -7  978.31   29.31
  -2   3  -7  905.97   26.02
  -2  -3  -7  956.46   39.44
   2  -3   7  973.97   36.57
  -2  -3  -7 1009.22   38.40
  -3  -3  -7  442.41   20.47
  -3  -3  -7  463.84   24.24
  -3  -3  -7  469.23   25.39
  -4   3  -7  650.57   18.92
   4  -3   7  635.12   32.62
  -4  -3  -7  645.36   29.67
  -4  -3  -7  626.95   26.44
  -4  -3  -7  604.10   30.38
   4  -3   7  618.55   28.29
   5  -3   7  174.17   15.12
  -5  -3  -7  140.32   13.15
   5  -3   7  159.97   13.07
  -5  -3  -7  135.64   12.58
  -5  -3  -7  147.86   11.55
  -6  -3  -7    1.39    1.61
  -6  -3  -7    2.52    1.32
  -6  -3  -7    0.30    1.44
  -6   3  -7    0.32    0.87
   6  -3   7    3.36    1.38
   6  -3   7   -0.40    1.42
   7  -3   7   13.87    4.29
  -7  -3  -7    2.80    1.56
  -7  -3  -7    7.29    2.47
  -7   3  -7    6.08    1.83
   7  -3   7    4.46    2.07
  -8  -3  -7   17.88    4.39
   8  -3   7   10.06    3.51
  -8  -3  -7   10.06    3.95
  -8   3  -7   17.25    3.78
   8  -3   7   12.18    4.22
  -9  -3  -7   17.46    4.85
   9   3   7   27.30    4.36
   9  -3   7   35.00    7.49
  -9   3  -7   20.27    4.17
  -9  -3  -7   21.57    5.41
   9  -3   7   29.01    7.04
 -10  -3  -7  142.45   16.56
 -10  -3  -7  114.71   17.09
  10  -3   7  127.86   13.16
  10  -3   7  151.69   16.86
 -10   3  -7  147.88   10.81
 -11  -3  -7  269.69   24.13
  11  -3   7  272.71   20.38
 -11   3  -7  263.51   15.90
  11  -3   7  251.74   20.28
 -11  -3  -7  268.89   20.62
 -12   3  -7  357.58   19.97
  12  -3   7  399.23   26.57
 -12  -3  -7  296.29   27.31
 -12  -3  -7  378.92   25.58
 -13   3  -7   32.92    5.86
  13  -3   7   20.69    6.85
 -13  -3  -7   15.22    4.48
  14  -3   7    1.73    4.18
 -14  -3  -7   -0.23    5.09
 -14   3  -7    3.14    2.17
 -15  -3  -7   51.64   16.12
 -15   3  -7   38.21    8.59
  15  -3   7   38.21   11.34
 -16  -3  -7  161.89   27.74
 -16   3  -7  217.38   18.67
 -16  -3  -7  181.25   24.68
  16  -3   7  215.19   24.44
 -17   3  -7   93.22   14.54
  15  -4  -7  378.75   32.21
  14  -4  -7   10.97    7.59
 -14  -4   7   13.61    7.12
  13   4  -7  642.36   31.69
  13  -4  -7  668.89   41.14
 -13  -4   7  676.68   43.17
 -12  -4   7   31.46    6.94
  12   4  -7   33.13    6.05
  12  -4  -7   13.22    5.84
 -12  -4   7   31.28   10.22
  11  -4  -7   39.21    8.97
  11   4  -7   53.53    9.20
 -11  -4   7   47.01   10.49
 -11  -4   7   41.31    8.86
  10  -4  -7    3.75    2.30
 -10  -4   7    2.24    2.26
 -10  -4   7    6.50    2.55
  10  -4  -7    4.85    2.27
   9  -4  -7   14.58    5.18
  -9  -4   7   12.99    4.47
  -9  -4   7   17.64    4.71
   9  -4  -7   20.37    4.32
  -8  -4   7   -0.48    1.59
   8  -4  -7    4.65    2.12
   8  -4  -7   -1.81    1.79
  -8  -4   7    3.86    2.58
   7  -4  -7   48.97    9.39
  -7  -4   7   38.60    9.55
   7  -4  -7   47.93    7.88
  -7  -4   7   26.37    6.15
   6  -4  -7   20.37    4.94
  -6  -4   7   20.96    5.67
   6  -4  -7   19.10    5.26
  -6  -4   7   31.76    8.31
   5  -4  -7  285.49   19.86
  -5  -4   7  282.76   20.47
   5  -4  -7  347.27   21.22
  -5  -4   7  301.66   22.66
   4  -4  -7    3.31    1.79
  -4  -4   7   10.10    2.15
  -4  -4   7    3.30    1.64
  -4  -4   7    5.18    2.35
   4  -4  -7    7.34    3.04
  -3  -4   7    7.64    1.43
  -3  -4   7    3.12    1.76
  -3  -4   7    2.41    2.54
   3  -4  -7    3.14    1.90
   3  -4  -7    4.96    1.98
  -2  -4   7    1.21    1.45
   2  -4  -7    0.52    1.36
   2  -4  -7    2.51    1.45
  -2  -4   7    0.63    1.48
  -2  -4   7    4.36    1.64
   2  -4  -7    8.21    3.33
   1  -4  -7 1511.28   56.12
   1  -4  -7 1502.27   53.82
   1  -4  -7 1469.46   48.11
  -1  -4   7 1408.83   55.70
  -1  -4   7 1431.86   47.68
  -1  -4   7 1480.20   53.54
   0  -4  -7  146.73   10.68
   0  -4   7  115.43   13.86
   0  -4  -7  134.67   10.25
   0  -4   7  125.13   10.50
   0  -4  -7  125.37   12.37
   0  -4  -7  121.95   14.85
   1  -4   7 1174.14   43.71
   1  -4   7 1236.60   47.19
  -1  -4  -7 1243.89   50.20
  -1  -4  -7 1244.68   40.34
  -1  -4  -7 1194.23   47.50
  -1  -4  -7 1299.41   43.52
  -2  -4  -7   54.50    9.52
  -2  -4  -7   42.77    8.63
  -2  -4  -7   40.61    6.74
   2  -4   7   37.96    7.61
   2  -4   7   38.05    6.86
   3  -4   7  163.56   14.08
  -3  -4  -7  177.24   16.34
  -3  -4  -7  198.44   16.34
  -3  -4  -7  170.45   12.93
   3  -4   7  164.92   13.78
  -4  -4  -7   31.93    6.08
   4  -4   7   29.11    6.25
  -4  -4  -7   32.94    7.75
  -4  -4  -7   31.73    6.42
   4  -4   7   29.22    5.91
   5  -4   7  248.01   17.55
  -5  -4  -7  246.41   16.88
   5  -4   7  242.86   18.18
  -5  -4  -7  222.88   18.26
  -6  -4  -7    2.70    1.84
   6  -4   7    3.13    1.52
  -6  -4  -7    3.64    2.55
   6  -4   7    0.72    1.76
  -7  -4  -7    1.37    1.85
   7  -4   7    2.71    1.76
   7  -4   7    1.16    1.67
  -7  -4  -7    2.37    1.94
  -8  -4  -7   -1.63    2.16
   8  -4   7    2.19    1.65
   8  -4   7    2.74    1.75
  -8  -4  -7    1.10    2.14
  -9  -4  -7   61.41   11.12
   9  -4   7   71.61   10.19
  -9  -4  -7   65.73   10.95
   9  -4   7   53.73   10.00
 -10  -4  -7    4.40    2.93
  10  -4   7    2.09    2.37
 -10  -4  -7    7.69    2.74
  10  -4   7    0.71    2.09
 -11  -4  -7    3.22    3.11
 -11  -4  -7    6.03    3.10
  11  -4   7    2.84    4.70
 -12  -4  -7    1.45    5.05
  12  -4   7    5.96    5.55
 -12  -4  -7    8.31    5.11
 -13  -4  -7  381.02   33.42
 -13  -4  -7  426.48   31.74
  13  -4   7  406.46   31.24
 -14  -4  -7   17.45    9.88
 -14  -4  -7    8.71    5.72
  12  -5  -7   28.36   11.24
  11  -5  -7  230.79   26.85
 -11  -5   7  198.76   22.89
 -11  -5   7  178.99   26.12
  10  -5  -7   13.54    6.50
 -10  -5   7   18.73    8.94
 -10  -5   7   25.84    8.97
  -9  -5   7   26.56    9.79
   9  -5  -7   10.69    6.16
  -9  -5   7   13.60    6.84
   8  -5  -7   -0.14    2.27
   8  -5  -7   -5.75    2.71
  -8  -5   7    2.28    3.98
  -8  -5   7   11.19    7.08
  -7  -5   7    7.46    3.91
  -7  -5   7    6.57    5.78
   7  -5  -7   10.38    3.26
   7  -5  -7   -0.47    2.30
   6  -5  -7    9.64    2.57
  -6  -5   7   10.49    4.21
   6  -5  -7   10.63    3.13
  -6  -5   7   11.97    5.50
  -5  -5   7   84.29   13.86
   5  -5  -7   87.90   12.94
  -5  -5   7   71.21   13.39
   5  -5  -7  113.16   14.96
  -4  -5   7   85.27   13.54
   4  -5  -7  106.35   13.81
   4  -5  -7  136.07   16.28
  -4  -5   7  126.99   18.36
   3  -5  -7  744.11   34.60
  -3  -5   7  701.19   37.24
   3  -5  -7  681.05   36.17
  -3  -5   7  670.50   38.75
  -2  -5   7  169.69   16.24
  -2  -5   7  192.34   18.60
   2  -5  -7  187.95   16.81
   2  -5  -7  200.76   15.31
   1  -5  -7  190.28   17.15
   1  -5  -7  208.83   15.13
  -1  -5   7  194.06   17.63
  -1  -5   7  194.52   14.11
   1  -5  -7  172.00   16.01
   0  -5  -7    0.85    2.22
   0  -5   7    0.22    1.90
   0  -5  -7    1.25    2.15
   0  -5   7   -3.78    1.78
   1  -5   7   59.17   10.37
  -1  -5  -7   58.71   10.82
   1  -5   7   71.85   10.33
  -1  -5  -7   53.26    7.48
  -1  -5  -7   47.07    9.97
  -2  -5  -7   49.14    7.56
   2  -5   7   45.77    7.42
  -2  -5  -7   47.89    9.56
   2  -5   7   34.52    7.81
  -2  -5  -7   71.27   12.22
   3  -5   7  542.39   29.94
  -3  -5  -7  509.87   30.55
  -3  -5  -7  561.36   28.48
   3  -5   7  510.36   29.84
  -4  -5  -7  112.21   15.99
   4  -5   7  112.15   14.62
  -4  -5  -7   95.66    9.43
   4  -5   7  118.91   15.36
   5  -5   7   94.16   12.98
   5  -5   7   94.11   13.27
  -5  -5  -7   71.81    9.72
  -5  -5  -7   79.43   13.11
   6  -5   7   -0.19    2.31
  -6  -5  -7    1.00    2.67
  -6  -5  -7   -3.94    2.57
   6  -5   7    0.30    2.24
   7  -5   7   19.25    7.28
  -7  -5  -7   14.29    2.89
  -7  -5  -7   16.22    5.17
   7  -5   7   15.68    3.88
  -8  -5  -7    8.39    4.87
   8  -5   7    0.32    4.95
  -8  -5  -7    0.91    3.06
   8  -5   7   13.29    2.70
  -9  -5  -7   25.16    5.01
   9  -5   7   14.58    6.70
  -9  -5  -7   25.91    8.67
 -10  -5  -7   28.20    9.60
  10  -5   7   49.03   12.24
 -10  -5  -7   27.04    9.02
 -11  -5  -7  188.69   24.60
 -11  -5  -7  179.40   24.52
 -12  -5  -7   39.63   11.68
   8  -6  -7    7.95    8.39
   7  -6  -7   -3.25    5.60
   6  -6  -7   53.07   12.62
  -6  -6   7   48.09   14.43
  -5  -6   7   34.72   11.91
   5  -6  -7   23.35    7.84
  -5  -6   7   27.18    9.84
  -4  -6   7   44.10   12.52
  -4  -6   7   45.62   12.57
   4  -6  -7   32.52    9.32
   4  -6  -7   62.60   11.44
  -3  -6   7   -1.30    4.72
  -3  -6   7    0.52    4.02
  -2  -6   7  177.29   22.37
  -1  -6   7   50.86   12.44
   0  -6   7  577.12   36.23
   1  -6   7   68.06   14.35
  -1  -6  -7   34.81   10.57
   2  -6   7  216.44   23.19
  -2  -6  -7  199.92   22.95
   2  -6   7  179.68   19.64
  -3  -6  -7    1.82    5.38
   3  -6   7   -5.05    3.76
   3  -6   7   -2.24    4.15
  -4  -6  -7    2.30    4.83
   4  -6   7    4.62    4.85
   4  -6   7   18.74    7.03
   5  -6   7    3.75    5.04
   5  -6   7   12.86    6.60
  -5  -6  -7   15.78    7.75
  -6  -6  -7   23.14    9.34
   6  -6   7   21.72    7.53
  -7  -6  -7   15.54    9.29
 -19   0   8    4.48    4.40
 -19   0   8   -1.78    5.34
  19   0  -8    5.48    4.36
  18   0  -8   46.90   10.54
  18   0  -8   41.86   11.09
 -18   0   8   38.33   10.44
 -18   0   8   31.53    9.30
 -17   0   8    2.97    2.23
 -17   0   8    2.39    2.52
  17   0  -8    1.37    2.54
  17   0  -8    2.43    2.30
 -16   0   8    9.68    3.87
  16   0  -8   10.06    2.63
 -16   0   8   10.45    3.13
  16   0  -8   14.20    4.00
 -15   0   8   -1.58    1.63
  15   0  -8    3.24    2.04
  15   0  -8    2.35    1.89
 -14   0   8  496.27   28.13
  14   0  -8  496.53   27.62
  14   0  -8  540.34   27.97
  13   0  -8    3.01    1.35
  13   0  -8   -1.68    1.47
 -13   0   8    2.02    1.42
 -12   0   8 1477.01   53.70
  12   0  -8 1427.76   52.31
  12   0  -8 1502.67   52.66
  11   0  -8   -0.07    1.06
 -11   0   8    2.21    1.03
  11   0  -8   -0.70    1.27
 -10   0   8  277.22   16.75
  10   0  -8  286.84   17.23
  10   0  -8  270.67   17.14
 -10   0   8  309.57   11.64
  -9   0   8    0.66    0.71
   9   0  -8    1.91    1.26
  -9   0   8    0.33    0.75
   9   0  -8    2.03    1.07
  -8   0   8  816.97   30.29
  -8   0   8  773.78   23.77
   8   0  -8  789.22   31.50
   8   0  -8  823.36   31.96
   7   0  -8   -0.58    0.68
   7   0  -8    0.65    0.87
  -7   0   8    0.83    0.68
  -7   0   8    2.02    0.67
   6   0  -8 3070.42   85.57
  -6   0   8 3036.25   85.12
   6   0  -8 3144.81   87.19
  -5   0   8    0.84    0.61
  -5   0   8    0.13    0.45
   5   0  -8    2.02    1.62
   5   0  -8   -0.14    0.70
   5   0  -8    1.44    1.68
   4   0  -8  438.58   19.44
  -4   0   8  428.37   18.09
   4   0  -8  467.32   16.50
  -4   0   8  413.19   14.92
   4   0  -8  423.53   19.39
   3   0  -8   -1.43    0.87
   3   0  -8   -0.47    0.85
  -3   0   8    0.23    0.63
   3   0  -8    2.15    1.57
  -3   0   8   -0.30    0.56
   2   0  -8   -1.70    0.85
   2   0  -8   -1.60    0.75
   2   0  -8    0.05    1.31
   2   0  -8   -0.40    1.03
  -2   0   8   -0.57    0.69
  -2   0   8   -1.24    0.91
   1   0  -8   -0.86    0.51
   1   0  -8    0.31    0.64
   1   0  -8   -0.41    0.71
   0   0  -8  666.30   19.70
   0   0   8  653.51   25.18
   0   0  -8  615.01   20.71
   0   0  -8  636.67   23.57
  -1   0  -8   -0.54    0.90
  -1   0  -8    2.64    1.23
  -1   0  -8    4.60    1.70
   2   0   8 2086.61   64.14
  -2   0  -8 2080.18   56.86
  -2   0  -8 2103.73   54.95
  -3   0  -8   -0.50    0.63
   3   0   8    1.75    1.20
  -4   0  -8  287.72   14.02
   4   0   8  272.10   14.76
  -4   0  -8  286.05   13.39
  -4   0  -8  299.92   11.79
  -5   0  -8    0.97    0.92
   5   0   8    0.42    0.92
  -5   0  -8   -0.61    0.72
  -5   0  -8    1.07    1.07
   6   0   8 1326.06   43.29
  -6   0  -8 1322.72   35.65
  -6   0  -8 1359.62   42.39
  -6   0  -8 1294.91   39.42
   7   0   8   -0.48    0.69
  -7   0  -8    0.26    0.85
  -7   0  -8    0.86    1.02
  -8   0  -8 2346.16   67.88
   8   0   8 2276.28   68.30
   9   0   8    0.22    0.87
  -9   0  -8   -0.36    1.05
  -9   0  -8   -0.13    0.97
 -10   0  -8  174.32   13.12
  10   0   8  172.57   13.24
 -10   0  -8  182.32   15.10
  11   0   8    0.45    1.16
 -11   0  -8   -1.10    1.16
 -11   0  -8    1.44    1.34
  12   0   8   -0.20    1.29
 -12   0  -8    1.30    1.45
 -12   0  -8    0.94    1.41
  13   0   8   -0.23    1.61
 -13   0  -8    0.78    1.60
 -13   0  -8   -0.22    1.63
 -14   0  -8   -2.48    1.82
  14   0   8    4.46    1.73
 -14   0  -8    6.85    2.84
 -15   0  -8   -1.47    2.08
 -15   0  -8   -0.07    2.09
  15   0   8    0.86    2.18
  16   0   8  112.54   12.89
 -16   0  -8  137.87   21.03
  16   0   8  102.88   10.78
 -16   0  -8  104.90   16.11
 -17   0  -8   -1.33    4.33
 -17   0  -8   -0.40    3.52
 -18   0  -8   17.73    8.11
  20   1  -8    0.10    4.80
 -19   1   8    0.19    5.74
 -19  -1   8    1.74    5.22
  19  -1  -8    0.11    4.30
 -19  -1   8   -1.21    4.15
 -19   1   8    2.56    4.58
  19   1  -8   -5.21    4.80
  19   1  -8   -1.02    3.92
 -18  -1   8   21.21    6.99
  18   1  -8   27.24    8.41
  18  -1  -8   12.21    6.56
 -18  -1   8   15.36    7.23
 -18   1   8   16.00    7.02
  18   1  -8   22.89    7.53
 -17  -1   8    3.10    2.36
 -17   1   8    1.53    2.06
  17  -1  -8    0.33    4.30
  17   1  -8   -1.25    2.46
 -17  -1   8    1.63    3.35
  17  -1  -8   -1.06    2.54
  17   1  -8    2.47    3.07
  16   1  -8   12.11    3.66
 -16  -1   8   19.27    5.32
  16   1  -8   16.19    3.77
 -16  -1   8   28.00    5.84
  16  -1  -8   10.87    2.81
 -16   1   8   18.62    4.51
  15  -1  -8   68.34   11.81
  15   1  -8   69.30   10.43
 -15  -1   8   87.51   11.87
 -15  -1   8   93.63   14.40
 -15   1   8   73.12   11.12
  15   1  -8   73.73   10.91
  15  -1  -8   75.38   11.05
  14  -1  -8  139.89   13.19
 -14  -1   8  161.81   13.29
  14   1  -8  131.98   12.42
 -14  -1   8  136.42   14.19
  14   1  -8  142.62   12.56
 -14   1   8  126.11   11.91
  14  -1  -8  126.39   13.55
 -13  -1   8    3.10    1.66
 -13  -1   8    2.85    1.57
 -13   1   8   -0.73    1.17
  13   1  -8   -1.13    1.44
  13  -1  -8    0.87    1.47
  13   1  -8   -0.51    1.31
  13  -1  -8   -0.81    1.55
  12  -1  -8   97.91   12.95
 -12  -1   8  112.21   10.19
 -12  -1   8  108.42    7.87
  12  -1  -8  111.19   11.16
 -12   1   8   88.84    9.07
  12   1  -8   94.99    9.68
 -12  -1   8  111.85   11.88
  12   1  -8   86.42   11.36
  11   1  -8  392.05   21.59
  11  -1  -8  386.47   23.24
  11  -1  -8  379.48   22.41
 -11  -1   8  388.35   23.42
 -11  -1   8  384.19   16.95
  11   1  -8  381.35   21.72
 -11   1   8  354.40   19.23
 -11  -1   8  394.54   20.94
  10  -1  -8 1313.19   48.34
 -10  -1   8 1316.69   39.30
 -10  -1   8 1334.71   49.92
  10   1  -8 1275.55   46.39
  10   1  -8 1321.83   46.41
 -10   1   8 1223.54   43.23
  -9   1   8 1501.18   47.47
   9  -1  -8 1483.14   52.52
   9   1  -8 1468.38   50.40
  -9  -1   8 1545.85   53.91
  -9  -1   8 1472.04   43.57
   9  -1  -8 1521.53   52.78
   8   1  -8 1375.64   47.10
  -8  -1   8 1364.43   41.04
  -8   1   8 1378.42   43.00
   8  -1  -8 1426.16   48.82
   8  -1  -8 1346.20   48.26
  -7  -1   8  381.65   16.86
   7  -1  -8  373.97   20.36
   7   1  -8  379.09   19.39
   7  -1  -8  378.46   19.86
  -7  -1   8  379.39   18.36
  -7   1   8  366.37   15.45
   7   1  -8  377.56   19.26
  -6   1   8    6.75    1.66
   6  -1  -8   12.05    3.67
  -6   1   8    6.25    1.49
  -6  -1   8    7.38    2.16
  -6  -1   8    9.83    2.33
   6  -1  -8    7.63    2.57
   6   1  -8    8.22    2.83
   6   1  -8    5.72    2.28
   5  -1  -8  128.11    9.76
  -5   1   8  123.98    6.89
  -5  -1   8  134.42    8.96
  -5   1   8  123.43    6.32
  -5  -1   8  126.35    9.05
   5   1  -8  114.65    9.06
   5  -1  -8  127.14   10.31
   4  -1  -8  291.49   15.57
  -4   1   8  324.35   13.55
  -4  -1   8  334.32   15.32
   4   1  -8  295.62   15.30
  -4  -1   8  316.58   11.59
  -4  -1   8  323.69   17.44
   4  -1  -8  336.49   17.53
  -4   1   8  318.49   10.51
  -3  -1   8   78.31    4.49
   3  -1  -8   65.67    6.28
   3  -1  -8   75.36    7.41
  -3  -1   8   63.59    6.94
   3   1  -8   71.19    6.49
  -3   1   8   78.55    5.82
  -3  -1   8   73.29    6.30
   2  -1  -8   10.28    3.12
  -2  -1   8    5.55    1.22
  -2  -1   8    3.42    1.34
   2   1  -8    0.81    0.84
   2  -1  -8    3.18    1.63
  -2  -1   8    3.09    1.40
   2  -1  -8    2.51    1.31
  -2  -1   8    2.55    1.54
   1  -1  -8    6.14    2.13
  -1  -1   8    9.98    1.44
  -1  -1   8   12.36    2.94
  -1  -1   8    8.25    2.86
  -1  -1   8   11.66    2.72
   1  -1  -8    5.10    1.86
   1  -1  -8    9.26    2.14
   1   1  -8    7.82    2.34
   0  -1   8   64.53    6.16
   0   1  -8   74.55    3.87
   0  -1  -8   74.47    6.54
   0  -1  -8   79.87    5.85
   0  -1   8   76.58    7.55
   0  -1   8   74.52    3.88
   0   1  -8   72.56    5.79
   0  -1  -8   69.63    6.71
   1  -1   8   -0.15    0.65
  -1  -1  -8    0.81    0.76
  -1   1  -8    0.85    0.44
   1  -1   8   -1.14    0.64
   1  -1   8   -0.28    0.53
  -1  -1  -8    0.69    0.43
  -1   1  -8    0.19    0.56
  -1  -1  -8    0.88    0.55
  -1  -1  -8    0.56    0.81
  -2  -1  -8   97.42    7.79
  -2  -1  -8   96.84    8.08
   2  -1   8   93.99    5.77
   2  -1   8  102.16    8.28
  -2   1  -8   94.23    5.47
  -2  -1  -8   92.63    5.97
   2  -1   8   98.25    8.93
  -2   1  -8   86.43    5.93
  -2  -1  -8   93.61    5.46
  -3   1  -8  682.23   21.66
   3  -1   8  666.72   28.89
  -3   1  -8  667.74   21.51
  -3  -1  -8  677.13   24.88
  -3  -1  -8  711.24   20.31
  -3  -1  -8  659.65   26.31
  -3  -1  -8  696.04   25.79
   3  -1   8  642.74   26.00
  -4  -1  -8 2190.20   49.51
   4  -1   8 2153.09   56.44
   4  -1   8 2043.30   61.17
   4  -1   8 2177.20   68.36
  -4  -1  -8 2201.47   60.21
  -4  -1  -8 1874.24   62.86
  -4   1  -8 2120.04   56.08
  -4  -1  -8 2073.71   61.19
  -4   1  -8 2109.95   54.03
   5  -1   8 1309.90   47.52
  -5   1  -8 1282.51   34.89
  -5  -1  -8 1252.12   42.65
   5  -1   8 1382.52   37.07
   5   1   8 1264.52   40.76
   5  -1   8 1225.22   42.72
  -5   1  -8 1291.44   38.04
  -5  -1  -8 1272.59   42.06
  -6  -1  -8 1008.58   35.86
   6  -1   8 1105.58   30.15
   6  -1   8 1056.16   41.52
  -6  -1  -8 1021.80   37.25
   6  -1   8  965.45   36.89
   6   1   8  968.62   34.49
  -6   1  -8 1028.21   28.43
  -6   1  -8 1031.90   32.94
  -7  -1  -8  277.88   16.98
   7  -1   8  339.19   11.99
  -7  -1  -8  272.29   15.78
   7  -1   8  328.80   20.14
   7   1   8  306.25   16.18
  -7  -1  -8  221.89   17.32
  -7   1  -8  294.97   14.63
   7  -1   8  291.32   17.55
   8  -1   8    0.50    1.26
  -8  -1  -8    5.23    2.87
  -8  -1  -8    1.64    1.43
   8   1   8    2.43    1.16
  -8   1  -8    2.68    1.40
   8  -1   8    2.76    1.66
   9  -1   8   96.85   11.76
   9  -1   8  128.04   12.49
  -9   1  -8  120.73    9.53
   9   1   8  113.68    9.61
  -9  -1  -8  119.01   12.67
  -9  -1  -8  111.62   10.71
 -10  -1  -8  229.89   19.20
 -10  -1  -8  231.50   16.66
  10  -1   8  237.51   16.99
  10  -1   8  249.71   18.68
  10   1   8  256.80   15.52
 -10   1  -8  247.53   15.10
 -11  -1  -8  140.82   13.09
  11  -1   8  143.54   13.63
  11   1   8  133.57   10.89
 -11   1  -8  118.60   10.55
  11  -1   8  128.82   12.45
 -11  -1  -8  149.50   15.29
 -12   1  -8   53.86    8.27
  12  -1   8   48.61    8.95
  12   1   8   42.36    7.12
 -12  -1  -8   37.30    7.84
 -12  -1  -8   63.43   11.60
  12  -1   8   37.21    7.80
  13  -1   8    4.27    1.94
  13   1   8    8.20    2.85
 -13  -1  -8    4.80    2.12
 -13  -1  -8    3.45    2.60
 -13   1  -8    2.01    1.85
 -14   1  -8    4.38    1.97
  14  -1   8    0.39    1.80
  14   1   8    0.09    1.70
 -14   1  -8   -1.82    1.93
  14  -1   8   -0.17    2.08
 -14  -1  -8    1.23    2.02
 -14  -1  -8    1.26    2.38
 -15   1  -8   -0.37    1.93
  15  -1   8   -0.40    2.17
 -15   1  -8    0.37    2.89
 -15  -1  -8    2.24    2.62
 -15  -1  -8   -1.83    2.61
  15  -1   8    1.47    2.32
 -16  -1  -8    5.48    5.72
 -16  -1  -8    8.43    6.03
  16  -1   8    4.64    2.77
 -16   1  -8    8.99    5.52
 -16   1  -8    6.78    5.52
  17  -1   8   61.55   11.77
 -17  -1  -8   72.28   14.47
 -17   1  -8   51.81   12.60
 -17  -1  -8   70.14   15.94
 -17   1  -8   70.89   13.12
  18  -1   8  141.62   18.26
 -18   1  -8  166.66   20.22
  18   2  -8   -1.70    4.39
  18   2  -8    0.78    3.63
 -18  -2   8   -2.96    4.75
  18  -2  -8   -1.21    4.70
  17   2  -8    2.34    2.80
  17  -2  -8    2.20    4.51
  17   2  -8    4.52    3.04
 -17   2   8    2.78    2.23
 -17  -2   8    3.14    2.99
  16  -2  -8   -2.40    3.55
 -16  -2   8    6.06    2.64
 -16   2   8   -0.57    1.98
  16   2  -8    1.30    2.16
  15  -2  -8   53.64    9.34
  15   2  -8   50.70    8.18
 -15  -2   8   50.02    8.19
  15  -2  -8   45.59    9.88
 -15   2   8   73.09   10.76
  14  -2  -8    4.25    2.76
 -14  -2   8    0.57    2.07
  14  -2  -8   -1.92    2.50
  14   2  -8   -0.15    1.73
 -14  -2   8   -0.75    1.91
 -14   2   8   -1.38    1.63
  13   2  -8  756.92   33.60
  13  -2  -8  656.35   34.26
 -13  -2   8  708.72   29.05
 -13   2   8  710.06   31.70
  13  -2  -8  634.39   34.93
 -13  -2   8  695.98   32.05
 -13  -2   8  635.28   34.35
  12   2  -8   43.68    7.48
 -12   2   8   46.53    7.45
 -12  -2   8   57.81   10.16
  12  -2  -8   34.65    7.39
 -12  -2   8   35.82    6.43
 -12  -2   8   49.11    7.53
  12  -2  -8   25.86    6.71
 -11  -2   8 1003.34   37.96
  11   2  -8 1012.76   40.10
 -11  -2   8  992.06   36.02
  11  -2  -8  957.11   40.74
 -11   2   8 1027.18   37.17
  11  -2  -8  936.21   43.05
 -11  -2   8  993.46   42.14
 -10  -2   8    5.90    1.74
  10   2  -8    5.05    2.28
  10  -2  -8    5.43    2.11
 -10   2   8    6.05    1.60
 -10  -2   8    6.58    2.63
 -10  -2   8    9.99    3.00
  -9   2   8    4.21    1.60
   9  -2  -8   11.21    3.80
  -9  -2   8   12.08    3.15
   9   2  -8    7.96    3.00
  -9  -2   8   19.47    3.68
  -9  -2   8   12.37    4.17
  -8  -2   8    9.00    2.84
   8  -2  -8    9.46    3.49
  -8   2   8   10.90    2.28
   8  -2  -8    6.76    2.50
  -8  -2   8    8.11    1.84
  -8  -2   8    9.36    2.94
  -8  -2   8    9.83    1.37
  -7   2   8 2161.71   60.85
   7  -2  -8 2171.51   69.71
  -7   2   8 2088.62   49.87
   7  -2  -8 2175.67   70.63
  -7  -2   8 2174.60   58.57
  -7  -2   8 2130.26   62.86
  -7  -2   8 2252.67   56.13
  -7  -2   8 2134.43   67.03
  -6  -2   8   68.95    5.05
  -6   2   8   57.98    5.11
  -6  -2   8   55.85    7.92
   6  -2  -8   58.33    9.05
  -6  -2   8   61.70    9.08
  -6  -2   8   55.64    4.26
   6  -2  -8   71.18   10.02
  -6   2   8   62.35    4.36
  -6   2   8   69.05    4.37
  -5   2   8  989.08   28.13
  -5  -2   8  977.67   30.02
  -5  -2   8  980.44   36.70
  -5  -2   8  930.92   34.38
   5  -2  -8  996.28   37.51
   5  -2  -8  933.33   37.23
  -5  -2   8  967.79   26.76
  -5   2   8  914.62   26.70
   4  -2  -8    3.38    1.36
  -4  -2   8    2.68    0.55
  -4  -2   8    0.56    0.94
  -4  -2   8   -0.56    0.92
   4  -2  -8    2.50    1.26
  -4   2   8    3.53    1.35
  -4  -2   8    3.28    0.77
   3  -2  -8   55.51    7.96
  -3  -2   8   74.92    8.85
   3  -2  -8   62.26    6.56
   3  -2  -8   64.60    8.79
  -3  -2   8   69.02    8.75
  -3  -2   8   56.34    5.49
  -3   2   8   64.25    3.65
  -2  -2   8    1.03    0.85
  -2  -2   8   -0.36    0.85
   2  -2  -8   -1.59    0.88
   2  -2  -8   -0.90    0.81
  -2   2   8   -0.30    0.44
  -1  -2   8   52.43    6.59
   1  -2  -8   45.88    5.32
   1  -2  -8   49.33    7.35
  -1  -2   8   31.71    6.77
  -1   2   8   47.54    2.92
  -1  -2   8   45.88    7.01
   1  -2  -8   34.44    6.59
   0  -2   8    0.82    1.35
   0  -2  -8    0.58    1.04
   0  -2   8   12.49    3.45
   0  -2  -8    3.80    0.79
   0   2   8    5.95    1.48
   0   2  -8    4.57    1.68
   0  -2  -8    7.24    2.46
   0  -2  -8    1.76    1.05
  -1  -2  -8  849.49   31.83
   1  -2   8  781.47   35.25
  -1  -2  -8  846.02   24.46
   1  -2   8  771.16   30.07
  -1   2  -8  843.29   26.72
  -1  -2  -8  846.67   24.84
   1   2   8  844.11   25.66
  -1  -2  -8  782.40   32.52
   1   2   8  840.08   25.02
  -2   2  -8   70.67    5.13
  -2   2  -8   65.00    3.51
   2   2   8   70.16    5.14
   2  -2   8   62.08    9.62
  -2  -2  -8   75.97    9.77
  -2  -2  -8   75.65    5.47
  -2  -2  -8   67.95    4.21
  -2  -2  -8   67.24    8.87
   2  -2   8   67.07    8.47
  -3   2  -8 1123.16   30.60
  -3  -2  -8 1142.25   41.37
   3  -2   8 1113.80   39.85
  -3   2  -8 1113.98   31.66
  -3  -2  -8 1157.78   28.37
   3  -2   8 1094.16   44.44
  -3  -2  -8 1118.29   39.90
  -4  -2  -8    7.88    2.99
   4  -2   8    5.93    2.93
  -4   2  -8    7.57    1.29
  -4   2  -8    5.99    1.44
  -4  -2  -8    7.69    2.09
  -4  -2  -8    5.22    1.92
   4  -2   8    6.14    2.64
  -5  -2  -8  165.02   12.65
  -5  -2  -8  170.55   12.07
  -5  -2  -8  147.23   12.38
   5  -2   8  146.30   13.44
  -5   2  -8  167.03    8.73
   5  -2   8  150.79   12.47
  -6  -2  -8   72.02    9.67
  -6   2  -8   56.43    5.01
   6  -2   8   59.45    9.30
   6  -2   8   57.20   10.21
  -6  -2  -8   67.03    9.54
  -6  -2  -8   56.28    9.02
  -7  -2  -8 1319.83   47.32
  -7  -2  -8 1273.38   49.98
  -7  -2  -8 1283.41   46.19
   7  -2   8 1233.26   51.72
   7   2   8 1246.92   41.55
  -7   2  -8 1340.79   40.01
   7  -2   8 1320.40   48.15
   8  -2   8    7.32    3.14
   8   2   8    5.18    1.93
  -8   2  -8    8.40    2.33
   8  -2   8    3.38    2.09
  -8  -2  -8    7.18    2.82
   9  -2   8 1034.96   42.49
  -9  -2  -8  848.03   44.05
   9   2   8 1059.31   36.12
  -9  -2  -8 1089.60   43.22
  -9   2  -8 1062.10   35.60
   9  -2   8  827.05   42.71
  10  -2   8    0.40    1.26
 -10   2  -8   -0.18    1.54
 -10  -2  -8    1.47    1.77
 -10  -2  -8   -0.76    1.94
  10   2   8    1.87    1.27
  10  -2   8    5.33    2.40
 -11   2  -8   13.70    3.83
  11   2   8   16.21    3.43
  11  -2   8    9.48    3.46
 -11  -2  -8   16.43    4.98
 -11  -2  -8   11.94    4.36
 -12  -2  -8   -0.70    2.42
  12   2   8    4.44    1.47
  12  -2   8    4.91    2.71
 -12   2  -8    3.11    1.82
  12  -2   8    4.71    2.13
 -12  -2  -8    5.36    2.16
  13  -2   8   15.56    3.78
 -13   2  -8   12.34    3.29
 -13  -2  -8   17.40    5.24
  13  -2   8    9.75    2.71
 -13  -2  -8   18.85    5.46
  14  -2   8    2.10    2.04
 -14   2  -8   -1.86    1.72
 -14  -2  -8   -0.54    2.35
 -14  -2  -8    0.20    2.96
 -15  -2  -8   56.98   13.05
  15  -2   8   67.41   13.55
 -15  -2  -8   57.34   15.20
 -15   2  -8   57.69    9.29
 -16  -2  -8    0.73    5.98
  16  -2   8   -2.76    3.44
 -16   2  -8    2.30    4.32
 -16  -2  -8   -1.01    4.19
 -16   2  -8   -0.05    3.14
  17  -2   8   80.58   14.89
 -17  -2  -8   60.63   16.44
 -17   2  -8  102.32   15.31
 -16  -3   8    1.97    4.63
  16   3  -8    3.63    3.30
  16  -3  -8    8.52    6.38
 -15  -3   8   39.82   11.47
  15   3  -8   52.91    8.50
  15  -3  -8   52.49   12.57
  14   3  -8   26.46    5.19
  14  -3  -8   33.30    9.56
 -14  -3   8   27.12    9.09
 -13  -3   8   26.98    5.24
  13   3  -8   20.05    4.56
  13  -3  -8   14.17    4.71
 -13  -3   8   16.52    6.35
 -13   3   8   20.01    4.37
  13  -3  -8   32.60    6.42
 -12  -3   8   58.18   11.12
 -12  -3   8   38.88    6.86
  12   3  -8   58.26    9.20
 -12   3   8   61.31    8.25
  12  -3  -8   33.35    8.14
  12  -3  -8   34.46    7.02
 -11  -3   8  372.38   25.83
 -11  -3   8  354.86   21.49
  11  -3  -8  366.26   24.08
  11   3  -8  384.29   22.67
  11  -3  -8  363.26   24.67
 -11   3   8  400.55   20.21
 -10  -3   8  502.60   23.10
  10  -3  -8  488.39   28.11
 -10  -3   8  464.20   28.92
  10  -3  -8  507.38   28.87
  10   3  -8  468.10   25.74
 -10  -3   8  487.76   25.81
   9  -3  -8 1268.74   50.30
  -9  -3   8 1337.80   42.47
  -9  -3   8 1218.91   46.42
  -9  -3   8 1252.33   52.03
   9  -3  -8 1297.60   50.13
   8  -3  -8  351.19   22.01
   8  -3  -8  345.32   22.05
  -8  -3   8  327.50   20.55
  -8  -3   8  351.49   23.33
  -8  -3   8  375.77   16.38
  -7  -3   8  388.82   22.26
  -7  -3   8  416.05   25.17
   7  -3  -8  369.02   22.56
   7  -3  -8  381.90   22.29
  -6  -3   8   20.08    5.31
  -6  -3   8   20.26    2.64
  -6  -3   8   24.64    2.19
   6  -3  -8   22.04    5.26
   6  -3  -8   31.39    6.73
  -6  -3   8   21.58    5.82
   5  -3  -8  183.64   14.58
   5  -3  -8  197.40   14.05
  -5  -3   8  191.22    9.77
  -5  -3   8  183.24   14.53
  -5  -3   8  211.21   16.58
  -4  -3   8   46.42    8.57
   4  -3  -8   41.04    7.11
  -4  -3   8   36.14    7.38
   4  -3  -8   47.19    8.23
   3  -3  -8   51.98    7.51
  -3  -3   8   31.09    6.89
  -3  -3   8   36.08    7.27
  -3  -3   8   45.49    5.94
   3  -3  -8   24.57    5.92
   2  -3  -8   17.35    4.02
  -2  -3   8   18.98    5.46
  -2  -3   8   13.82    2.85
  -2  -3   8   15.73    4.70
   2  -3  -8   14.47    4.29
  -1  -3   8    2.86    1.47
  -1  -3   8    3.01    1.70
  -1  -3   8   -0.15    0.91
   1  -3  -8    1.10    0.98
   1  -3  -8    3.13    1.62
   1  -3  -8    0.44    1.20
   0  -3  -8   13.56    3.82
   0  -3   8    6.18    2.71
   0  -3  -8   10.18    2.29
   0  -3   8    6.86    2.49
   0  -3  -8    8.09    2.99
   0  -3  -8    6.79    1.36
  -1  -3  -8   21.96    5.52
   1  -3   8   18.75    4.42
   1  -3   8   13.85    3.82
  -1  -3  -8   16.45    3.10
  -1  -3  -8   17.97    4.72
  -1  -3  -8   21.58    3.37
  -2   3  -8   63.27    2.96
  -2  -3  -8   70.40   10.60
   2  -3   8   66.67    9.35
  -2  -3  -8   60.65    4.80
  -2  -3  -8   63.27    9.64
  -2  -3  -8   63.44    5.92
   3  -3   8  601.45   28.20
  -3   3  -8  622.64   19.97
   3  -3   8  581.52   32.05
  -3  -3  -8  588.57   30.10
  -3  -3  -8  590.04   24.17
  -3   3  -8  578.74   17.64
  -3  -3  -8  604.26   29.04
  -4  -3  -8  583.97   24.54
  -4   3  -8  572.54   17.26
  -4   3  -8  562.63   18.16
   4  -3   8  570.10   31.61
  -4  -3  -8  543.97   28.86
  -4  -3  -8  541.73   27.68
   4  -3   8  503.49   26.71
  -5  -3  -8 1175.68   46.99
  -5  -3  -8 1169.89   41.20
  -5   3  -8 1168.88   33.86
   5  -3   8 1153.41   50.17
  -5  -3  -8 1113.40   44.61
  -6   3  -8  322.22   14.00
  -6  -3  -8  326.92   21.82
  -6  -3  -8  312.38   20.81
   6  -3   8  295.00   22.25
  -6  -3  -8  330.96   18.87
   7  -3   8  183.32   16.85
  -7   3  -8  174.90   10.21
   7  -3   8  184.77   15.36
  -7  -3  -8  178.46   14.30
  -7  -3  -8  183.82   15.66
  -8  -3  -8    8.63    3.69
  -8  -3  -8   10.14    2.56
  -8   3  -8    8.87    1.88
   8   3   8    7.08    2.06
   8  -3   8    4.86    2.62
   8  -3   8   16.56    4.72
   9  -3   8   52.45    9.35
   9  -3   8   70.27   12.41
  -9  -3  -8   70.15   11.61
  -9   3  -8   59.10    6.04
  -9  -3  -8   60.41   10.93
   9   3   8   59.67    6.03
 -10  -3  -8   95.93   15.16
  10  -3   8  119.65   13.06
 -10  -3  -8   86.06   13.36
 -10   3  -8   82.50    7.66
  10  -3   8   87.85   13.39
 -11  -3  -8  229.68   21.80
  11  -3   8  271.83   21.39
  11  -3   8  252.76   20.38
 -11   3  -8  261.27   15.58
 -11  -3  -8  223.63   19.03
  12  -3   8   27.91    6.78
  12  -3   8   31.88    8.05
 -12   3  -8   28.46    4.65
 -12  -3  -8   15.79    4.67
 -12  -3  -8   22.75    5.20
  13  -3   8   -1.38    3.10
 -13  -3  -8    1.66    3.65
 -13  -3  -8    0.36    3.65
 -13   3  -8    3.02    2.03
 -14  -3  -8   -2.84    3.72
 -14  -3  -8   -3.56    4.89
  14  -3   8    0.62    3.78
 -14   3  -8    0.96    2.22
 -15  -3  -8    3.59    5.13
  15  -3   8    1.92    4.82
 -15  -3  -8    0.09    5.47
 -15   3  -8    0.27    4.07
 -16  -3  -8   -2.09    5.43
 -16   3  -8   -2.38    4.37
  14   4  -8  125.19   12.91
  14  -4  -8  128.80   21.71
 -14  -4   8  154.86   23.00
 -13  -4   8   13.18    8.14
  13   4  -8   18.98    4.14
  13  -4  -8   26.17    9.59
 -13  -4   8   13.83    6.01
  12   4  -8  689.14   33.76
 -12  -4   8  662.88   34.92
  12  -4  -8  669.37   40.90
 -12  -4   8  653.67   41.22
  11   4  -8   11.33    3.64
 -11  -4   8   24.06    5.58
 -11  -4   8   18.59    7.01
  11  -4  -8   29.20    5.42
  11  -4  -8   22.27    6.01
  10  -4  -8   30.73    7.63
  10  -4  -8   37.07    7.07
 -10  -4   8   51.65   11.11
 -10  -4   8   20.49    5.51
   9  -4  -8    9.57    3.67
  -9  -4   8   11.40    4.17
  -9  -4   8    4.28    2.35
   9  -4  -8    5.52    2.31
   8  -4  -8  162.76   15.81
  -8  -4   8  180.56   17.73
  -8  -4   8  145.84   17.06
   8  -4  -8  171.54   15.33
  -7  -4   8   76.49   13.60
   7  -4  -8   77.45   12.00
   7  -4  -8   71.27   11.34
  -7  -4   8   88.09   12.98
  -6  -4   8  930.98   42.07
  -6  -4   8  992.44   46.47
   6  -4  -8  951.67   42.77
   6  -4  -8  950.64   41.35
  -5  -4   8   11.81    3.90
   5  -4  -8   10.69    3.42
  -5  -4   8   24.72    7.20
   5  -4  -8    7.92    2.63
   4  -4  -8  181.47   14.25
  -4  -4   8  167.47   10.42
  -4  -4   8  183.72   15.97
  -4  -4   8  141.67   17.36
   4  -4  -8  157.00   14.66
   3  -4  -8    6.14    1.79
  -3  -4   8    3.83    1.94
  -3  -4   8    5.20    1.44
   3  -4  -8    1.56    1.52
  -3  -4   8    2.33    1.71
  -2  -4   8    2.10    1.19
   2  -4  -8    1.63    1.76
   2  -4  -8    0.81    1.63
  -2  -4   8    0.77    1.62
   2  -4  -8    1.64    1.39
  -2  -4   8    0.28    1.47
   1  -4  -8    1.11    1.51
  -1  -4   8   -2.79    1.29
  -1  -4   8   -2.01    1.41
   1  -4  -8   -0.23    1.28
   1  -4  -8    2.46    1.75
  -1  -4   8    0.26    1.41
   0  -4   8  109.91   13.91
   0  -4  -8  140.30   13.27
   0  -4  -8  122.76   15.32
   0  -4  -8  143.27   10.43
   0  -4   8  101.86    9.61
  -1  -4  -8    0.00    1.71
  -1  -4  -8    7.04    1.28
   1  -4   8    7.37    1.91
  -1  -4  -8    5.83    1.85
   1  -4   8    5.62    2.14
  -1  -4  -8   13.08    4.01
  -2  -4  -8  566.08   31.69
   2  -4   8  570.14   29.90
  -2  -4  -8  593.19   26.13
  -2  -4  -8  583.91   30.80
   2  -4   8  572.53   28.21
   3  -4   8   33.34    7.20
  -3  -4  -8   29.05    5.29
   3  -4   8   28.37    6.18
  -3  -4  -8   26.51    6.50
  -3  -4  -8   28.63    6.79
   4  -4   8   70.66   10.90
  -4  -4  -8   96.22    9.09
   4  -4   8   77.46   11.41
  -4  -4  -8   97.79   14.39
  -4  -4  -8   84.81   12.99
  -5  -4  -8   -2.24    1.76
   5  -4   8   -0.61    1.58
  -5  -4  -8   -0.39    1.86
   5  -4   8    3.87    1.74
  -5  -4  -8    0.42    1.85
   6  -4   8  319.95   22.40
  -6  -4  -8  338.77   23.77
   6  -4   8  363.15   22.40
  -6  -4  -8  359.11   21.55
  -7  -4  -8   38.27    8.40
  -7  -4  -8   40.38    6.77
   7  -4   8   34.37    6.96
   7  -4   8   48.31    9.32
   8  -4   8  798.76   36.58
  -8  -4  -8  834.30   40.85
  -8  -4  -8  751.36   37.39
   8  -4   8  765.53   39.11
  -9  -4  -8   15.72    2.64
  -9  -4  -8   37.12    8.72
   9  -4   8   27.31    5.65
   9  -4   8   26.36    7.00
  10  -4   8   85.57   15.75
  10  -4   8  119.65   13.83
 -10  -4  -8  102.93   15.68
 -10  -4  -8   91.05   13.60
 -11  -4  -8    7.54    5.36
 -11  -4  -8    1.02    3.28
  11  -4   8   -2.46    3.35
 -12  -4  -8    1.16    4.79
  12  -4   8    3.55    3.95
 -12  -4  -8    1.79    5.73
  13  -4   8    2.28    5.00
 -13  -4  -8    5.60    7.07
 -13  -4  -8    2.92    5.24
 -14  -4  -8    4.78    6.83
  12  -5  -8   73.56   17.52
 -12  -5   8   76.28   14.52
 -11  -5   8   84.52   15.55
 -11  -5   8   99.67   19.57
  11  -5  -8   96.05   18.93
 -10  -5   8  354.36   31.67
  10  -5  -8  386.79   31.17
 -10  -5   8  410.54   29.76
  -9  -5   8   97.88   19.57
  -9  -5   8  128.29   19.00
   9  -5  -8  138.83   20.53
  -8  -5   8  374.44   31.34
  -8  -5   8  448.48   30.82
   8  -5  -8  358.12   24.49
   8  -5  -8  371.31   27.45
   7  -5  -8   70.17   10.74
  -7  -5   8   89.62   15.80
   7  -5  -8   76.21   12.69
  -7  -5   8   71.71   15.72
  -6  -5   8   22.14    8.58
   6  -5  -8   12.26    3.21
   6  -5  -8   10.95    3.98
  -6  -5   8    7.39    3.43
   5  -5  -8   12.22    3.84
  -5  -5   8   15.74    5.62
  -5  -5   8    9.55    4.18
   5  -5  -8   10.47    2.73
  -4  -5   8  101.20   16.39
  -4  -5   8  116.86   16.66
   4  -5  -8  128.94   15.19
   4  -5  -8  161.73   15.37
  -3  -5   8    8.76    2.90
  -3  -5   8   10.33    2.91
   3  -5  -8    9.12    2.54
   3  -5  -8    9.42    2.60
   2  -5  -8    3.86    1.95
   2  -5  -8    6.40    2.18
  -2  -5   8   -0.84    1.95
  -2  -5   8   -0.79    1.87
  -1  -5   8    1.84    1.93
   1  -5  -8    2.70    1.97
   1  -5  -8    3.44    2.06
   1  -5  -8    7.07    3.54
  -1  -5   8    0.98    2.10
   0  -5   8   19.44    3.13
   0  -5   8   18.20    5.47
   0  -5  -8   19.36    4.43
   0  -5  -8   10.26    3.39
  -1  -5  -8   -2.78    2.19
   1  -5   8   -0.56    1.97
   1  -5   8    4.06    2.40
  -1  -5  -8   -2.58    2.30
   2  -5   8   23.33    5.73
   2  -5   8   17.36    3.25
  -2  -5  -8   27.27    6.47
  -2  -5  -8   15.85    5.84
  -3  -5  -8   76.36   12.51
   3  -5   8   98.50   13.17
   3  -5   8  105.95   14.80
   4  -5   8  443.92   27.59
  -4  -5  -8  448.88   28.99
   4  -5   8  460.70   27.98
  -5  -5  -8  153.98   19.43
   5  -5   8  154.51   18.07
   5  -5   8  157.16   17.66
  -6  -5  -8  380.46   27.45
   6  -5   8  399.57   25.28
   6  -5   8  373.73   27.18
   7  -5   8   39.16   10.81
  -7  -5  -8   31.21    5.10
  -7  -5  -8   29.49    9.15
   7  -5   8   32.57    6.72
   8  -5   8    0.73    2.84
   8  -5   8   -1.49    3.71
  -8  -5  -8   -1.63    5.41
   9  -5   8   12.45    6.35
  -9  -5  -8    7.51    6.47
 -10  -5  -8  111.95   18.88
  10  -5   8  112.33   18.70
 -11  -5  -8    8.40    7.73
   8  -6  -8    4.79    8.00
   7  -6  -8  305.41   27.74
   6  -6  -8   12.04    7.47
  -5  -6   8  205.42   25.34
   5  -6  -8  195.41   23.13
   5  -6  -8  183.33   22.09
  -4  -6   8    3.69    5.32
   4  -6  -8   11.52    6.42
  -4  -6   8    6.26    6.40
   3  -6  -8    4.71    4.86
  -3  -6   8   -0.56    4.65
   2  -6  -8    3.06    4.74
  -2  -6   8   -4.25    5.14
  -1  -6   8   -0.26    4.47
   0  -6   8   -3.05    4.00
   1  -6   8  172.47   22.57
  -1  -6  -8  177.72   22.51
  -2  -6  -8   27.34    9.87
   2  -6   8   27.39    9.37
  -3  -6  -8  108.35   17.69
   3  -6   8   99.83   15.96
   3  -6   8  123.93   18.83
   4  -6   8    8.25    4.80
  -4  -6  -8   14.49    8.48
   4  -6   8    1.60    4.89
  -5  -6  -8   16.91    8.54
   5  -6   8   13.96    6.47
   5  -6   8   20.50    7.89
  -6  -6  -8   19.68    9.36
   6  -6   8   21.54    8.01
   6  -6   8   29.19    9.40
  19   0  -9  621.45   38.00
 -19   0   9  614.37   38.57
 -19   0   9  613.40   36.40
 -18   0   9   -1.46    3.99
  18   0  -9    4.23    5.23
  18   0  -9   -1.14    3.40
 -18   0   9   -1.22    3.62
 -17   0   9  636.62   35.25
 -17   0   9  667.52   36.87
  17   0  -9  661.34   37.05
  17   0  -9  670.88   35.35
  16   0  -9    1.28    1.99
  16   0  -9    0.26    2.23
 -16   0   9    0.89    1.99
 -15   0   9   -0.68    1.67
  15   0  -9   -2.61    1.82
  15   0  -9    4.32    2.21
 -14   0   9    0.67    1.56
  14   0  -9   -1.64    1.58
  14   0  -9   -1.35    1.71
  13   0  -9  395.92   23.37
  13   0  -9  358.06   22.26
 -13   0   9  351.33   21.80
  12   0  -9    1.98    1.81
 -12   0   9    0.13    1.13
  12   0  -9    1.15    1.35
  11   0  -9   61.38    9.06
 -11   0   9   60.91    8.84
  11   0  -9   66.67    9.88
 -11   0   9   60.61    4.48
  10   0  -9    1.66    1.11
 -10   0   9   -0.21    0.90
  10   0  -9    0.49    1.13
 -10   0   9    0.87    0.81
  -9   0   9   47.09    4.05
   9   0  -9   53.51    8.53
  -9   0   9   59.49    7.75
   9   0  -9   55.02    8.44
  -8   0   9    0.09    0.84
  -8   0   9    0.25    0.69
   8   0  -9    0.33    1.30
   8   0  -9    1.16    1.38
  -7   0   9  377.27   17.49
   7   0  -9  379.83   19.61
  -7   0   9  379.41   14.83
   7   0  -9  357.52   19.44
  -6   0   9   -0.31    0.60
   6   0  -9    3.12    1.68
   6   0  -9   -0.24    0.74
  -6   0   9   -0.55    0.65
  -5   0   9 3466.16   87.38
   5   0  -9 3686.73   94.56
  -5   0   9 3528.09   98.96
   5   0  -9 3573.68   98.40
   5   0  -9 3429.18   96.01
   4   0  -9   -0.75    0.78
  -4   0   9    0.40    0.61
   4   0  -9   -0.04    1.05
  -4   0   9    0.03    0.81
   4   0  -9   -0.94    0.70
  -3   0   9 3583.56   85.76
   3   0  -9 3628.64   92.27
   3   0  -9 3500.67   96.64
   3   0  -9 3460.36   94.77
  -3   0   9 3480.93   98.61
   2   0  -9    0.14    0.86
   2   0  -9   -1.03    0.83
   2   0  -9   -0.99    0.56
  -2   0   9    0.35    0.78
   2   0  -9   -1.52    0.77
   1   0  -9  408.10   15.59
  -1   0   9  377.23   17.95
   1   0  -9  415.02   13.70
   1   0  -9  394.82   18.00
   0   0  -9    0.98    0.70
   0   0  -9    4.70    1.51
   0   0   9    3.76    1.65
   0   0  -9    4.21    1.51
  -1   0  -9 1666.73   49.33
   1   0   9 1696.67   54.09
  -1   0  -9 1615.04   45.65
  -1   0  -9 1745.78   44.94
  -2   0  -9    1.57    0.98
   2   0   9    1.17    0.99
  -2   0  -9    2.75    1.30
  -3   0  -9  475.22   18.18
   3   0   9  409.62   19.49
   3   0   9  442.33   21.75
  -3   0  -9  454.72   18.51
   4   0   9    0.08    0.73
  -4   0  -9    0.05    0.76
  -4   0  -9   -0.48    0.64
   5   0   9    0.77    0.85
  -5   0  -9    3.98    1.76
  -5   0  -9    3.99    1.60
   6   0   9    1.86    1.26
  -6   0  -9    0.79    1.07
  -6   0  -9    0.44    0.87
  -7   0  -9  152.84   11.02
  -7   0  -9  128.60    8.77
   7   0   9  129.34   10.83
   8   0   9    0.77    1.00
  -8   0  -9    0.21    1.13
   9   0   9 1399.99   48.31
  -9   0  -9 1323.76   46.63
  -9   0  -9 1378.65   52.01
  10   0   9    2.56    1.46
 -10   0  -9   -0.32    1.10
 -10   0  -9    1.50    1.67
 -11   0  -9  535.85   26.82
 -11   0  -9  520.23   29.39
  11   0   9  536.89   27.26
  12   0   9    1.29    1.45
 -12   0  -9    0.44    1.49
 -12   0  -9   -0.25    1.56
  13   0   9   60.09    9.96
 -13   0  -9   67.05   12.20
 -13   0  -9   63.15   10.18
  13   0   9   67.19   11.13
  14   0   9    1.48    1.81
  14   0   9   -1.50    1.92
 -14   0  -9   -4.08    1.94
 -14   0  -9    1.90    2.00
 -15   0  -9  618.05   38.07
  15   0   9  570.90   32.26
 -15   0  -9  485.91   29.71
  15   0   9  513.27   28.56
 -16   0  -9   -3.08    3.66
 -16   0  -9   -1.33    3.90
  16   0   9   -1.43    2.44
  16   0   9   -0.68    2.32
 -17   0  -9   77.72   15.61
 -17   0  -9   61.33   12.63
 -19  -1   9   34.41   10.29
  19  -1  -9   26.22    9.02
  19   1  -9   29.57    8.68
 -19  -1   9   34.82   10.88
  19   1  -9   28.65    8.51
 -18   1   9   16.12    6.57
  18  -1  -9    9.93    5.91
 -18  -1   9   11.90    6.51
  18   1  -9   14.77    5.25
 -18  -1   9   15.73    6.72
  18   1  -9   24.59    8.23
  18  -1  -9   18.33    6.66
  17  -1  -9  217.29   17.87
 -17  -1   9  185.34   15.81
 -17  -1   9  228.57   22.28
  17   1  -9  181.97   18.02
  17   1  -9  207.90   18.23
  17  -1  -9  211.93   19.73
 -17   1   9  201.15   17.18
  16  -1  -9  414.28   28.63
  16   1  -9  470.45   26.99
  16  -1  -9  415.57   26.34
  16   1  -9  416.21   26.49
 -16   1   9  409.95   25.64
 -16  -1   9  412.86   29.01
 -16  -1   9  423.01   25.14
 -15  -1   9  607.92   30.22
  15   1  -9  557.95   29.54
 -15   1   9  541.54   29.37
  15  -1  -9  556.42   32.88
  15  -1  -9  568.19   31.54
 -15  -1   9  567.98   33.60
  15   1  -9  551.08   30.53
 -14  -1   9  254.94   17.53
  14   1  -9  260.33   18.04
 -14   1   9  248.13   17.47
 -14  -1   9  258.08   20.44
  14   1  -9  209.85   16.96
  14  -1  -9  257.57   19.23
  14  -1  -9  231.77   19.24
  13   1  -9   82.91   11.14
  13  -1  -9   83.11   11.90
  13  -1  -9   75.56   11.86
  13   1  -9   89.69   12.00
 -13   1   9   88.90    9.18
 -13  -1   9   98.62   13.83
 -13  -1   9   84.22   10.87
  12  -1  -9    1.37    1.60
 -12  -1   9   -0.70    1.41
 -12   1   9    1.27    1.10
 -12  -1   9   -0.08    1.12
  12   1  -9    0.10    1.44
 -12  -1   9    2.54    1.48
  12  -1  -9    2.85    1.46
  12   1  -9   -0.61    1.26
 -11   1   9   -0.25    1.01
 -11  -1   9    0.73    1.04
  11  -1  -9   -0.23    1.30
 -11  -1   9    3.16    1.49
  11   1  -9    1.95    2.02
  11  -1  -9    1.65    1.30
  11   1  -9    1.30    1.93
  10   1  -9    1.04    1.19
  10  -1  -9   -0.45    1.56
  10   1  -9    5.93    2.28
 -10   1   9    1.25    0.96
  10  -1  -9    1.89    1.68
 -10  -1   9    0.40    0.96
  -9  -1   9   42.88    6.09
   9  -1  -9   38.00    7.41
   9  -1  -9   43.04    8.09
  -9  -1   9   36.62    6.58
   9   1  -9   37.03    6.81
   9   1  -9   47.56    7.76
  -9   1   9   46.41    6.05
  -8   1   9  471.93   13.89
  -8  -1   9  460.01   19.65
   8   1  -9  504.41   23.90
   8   1  -9  433.00   22.24
  -8  -1   9  469.58   21.93
   8  -1  -9  479.61   24.83
   8  -1  -9  464.64   23.94
  -8   1   9  477.52   19.34
   7   1  -9  716.14   29.78
  -7  -1   9  726.14   26.66
   7   1  -9  741.20   30.66
   7  -1  -9  772.51   32.45
   7  -1  -9  737.47   31.19
  -7   1   9  743.69   24.36
  -7  -1   9  744.55   28.75
  -7   1   9  752.72   25.41
  -6  -1   9  210.75   12.64
   6  -1  -9  205.54   14.42
  -6   1   9  222.50    9.82
   6   1  -9  209.68   13.83
   6   1  -9  194.66   13.11
  -6   1   9  213.13   10.15
   6  -1  -9  226.97   14.40
  -6  -1   9  192.84   11.69
  -5   1   9   87.53    6.07
   5  -1  -9   93.68    9.07
  -5  -1   9   99.52    7.86
   5   1  -9   92.70    8.33
   5  -1  -9   81.59    8.01
  -5   1   9   95.54    5.05
   4  -1  -9  161.30   11.17
  -4  -1   9  156.36    7.59
  -4  -1   9  154.26   10.01
   4   1  -9  161.68   10.92
   4  -1  -9  165.31   12.28
  -4  -1   9  164.17   12.10
  -4   1   9  144.20    8.68
   3  -1  -9 1599.30   51.51
   3  -1  -9 1573.30   50.14
  -3  -1   9 1603.74   46.96
  -3  -1   9 1617.55   54.38
  -3  -1   9 1673.78   41.26
   3   1  -9 1589.29   49.03
  -3   1   9 1661.22   49.36
   2  -1  -9 1928.65   58.22
  -2  -1   9 1989.03   55.00
  -2  -1   9 1969.12   56.74
   2  -1  -9 1944.73   59.76
   2  -1  -9 1989.00   55.92
   2   1  -9 2012.71   57.39
  -2  -1   9 2017.35   63.67
   1   1  -9 2360.02   65.34
  -1  -1   9 2524.39   58.50
  -1  -1   9 2278.54   65.57
  -1  -1   9 2392.89   73.35
   1  -1  -9 2341.31   64.38
   1  -1  -9 2358.66   68.54
   1  -1  -9 2269.57   66.60
   0  -1   9  925.15   24.64
   0   1  -9  895.12   24.37
   0  -1  -9  843.69   31.86
   0   1  -9  907.84   30.04
   0  -1  -9  930.22   31.11
   0  -1   9  905.82   31.90
   0  -1  -9  886.03   30.04
   0  -1   9  901.13   35.32
  -1  -1  -9  166.81    9.52
  -1   1  -9  190.95    8.00
  -1  -1  -9  172.90   11.73
   1  -1   9  196.52   12.31
  -1  -1  -9  188.91    7.79
   1  -1   9  192.86    8.09
   1  -1   9  198.39   13.61
  -1  -1  -9  174.52   11.25
  -1   1  -9  198.45   10.55
  -2  -1  -9    1.25    0.56
   2  -1   9   -0.86    0.74
  -2   1  -9    1.67    0.79
   2  -1   9    0.47    0.85
  -2  -1  -9    0.16    0.61
  -2  -1  -9   -0.58    0.81
  -2   1  -9    0.13    0.50
  -2  -1  -9    0.61    0.93
   2  -1   9   -0.70    0.65
   3  -1   9   32.36    6.61
   3  -1   9   30.36    5.78
  -3  -1  -9   33.28    2.98
  -3  -1  -9   31.33    5.74
  -3  -1  -9   28.93    4.57
  -3  -1  -9   33.07    5.57
  -3   1  -9   34.04    4.24
  -3   1  -9   39.64    3.74
   4  -1   9   28.68    4.65
  -4   1  -9   25.57    3.50
  -4  -1  -9   21.78    4.34
  -4  -1  -9   25.89    5.17
   4  -1   9   29.51    6.25
  -4  -1  -9   31.47    2.32
   4  -1   9   33.15    6.04
  -4   1  -9   24.94    3.84
  -4  -1  -9   29.20    2.34
  -4  -1  -9   30.29    5.53
   5  -1   9    4.86    2.76
  -5  -1  -9    4.32    1.96
   5  -1   9    9.79    2.85
  -5  -1  -9    2.50    1.31
  -5  -1  -9    7.00    2.41
  -5   1  -9    6.76    2.04
  -5   1  -9    5.37    1.24
   5  -1   9    2.57    1.43
   6   1   9  130.01   10.22
   6  -1   9  112.57   10.42
  -6  -1  -9  161.59   12.12
  -6   1  -9  147.70    7.38
  -6   1  -9  143.83    9.44
   6  -1   9  151.82    8.68
  -6  -1  -9  129.14   10.50
   6  -1   9  156.79   13.26
   7  -1   9  294.29   19.68
  -7  -1  -9  321.37   18.46
   7   1   9  297.98   16.57
   7  -1   9  299.79   18.14
  -7  -1  -9  280.58   16.22
  -7  -1  -9  206.61   16.89
  -7   1  -9  302.29   15.13
   8  -1   9   54.56    9.62
  -8   1  -9   62.21    7.66
   8  -1   9   60.65    9.53
   8   1   9   61.82    8.50
  -8  -1  -9   66.36    9.91
  -8  -1  -9   57.88   10.30
  -8  -1  -9   54.45    7.80
  -9   1  -9   -0.15    0.99
   9  -1   9    2.30    1.35
  -9  -1  -9   -0.38    1.37
  -9  -1  -9   -1.12    1.22
   9  -1   9   -0.13    1.09
   9   1   9    1.95    1.43
 -10  -1  -9  120.21   15.59
  10  -1   9   93.44   12.26
 -10  -1  -9   87.09   11.79
  10   1   9  105.15    9.67
 -10   1  -9  120.93   10.14
  10  -1   9  115.08   12.19
 -11  -1  -9  457.05   26.17
 -11   1  -9  447.99   23.06
  11  -1   9  533.40   29.73
 -11  -1  -9  427.85   28.69
  11  -1   9  476.01   26.64
  11   1   9  432.04   22.93
  12  -1   9  526.46   30.42
  12  -1   9  505.48   28.36
 -12  -1  -9  488.64   28.07
 -12  -1  -9  473.84   31.17
  12   1   9  483.21   24.86
 -12   1  -9  513.43   25.78
  13   1   9  467.72   24.63
 -13  -1  -9  489.28   32.49
 -13  -1  -9  454.65   27.84
  13  -1   9  539.44   30.68
  13  -1   9  497.86   28.63
 -13   1  -9  440.38   24.96
 -14   1  -9  157.61   17.18
 -14  -1  -9  169.57   17.72
 -14   1  -9  137.98   13.04
  14   1   9  163.90   13.02
  14  -1   9  167.05   15.65
 -14  -1  -9  146.67   14.97
  15  -1   9   65.84   11.13
 -15  -1  -9   34.28   10.29
 -15   1  -9   46.51   11.94
  15  -1   9   46.40    7.99
 -15  -1  -9   31.65    9.78
 -15   1  -9   52.61    9.50
 -16  -1  -9    2.33    5.05
 -16   1  -9    5.16    5.43
  16  -1   9    8.91    5.05
 -16  -1  -9   -1.31    3.87
 -16   1  -9   -0.16    3.08
 -17   1  -9   35.93   10.65
  17  -1   9   29.50    8.40
 -17  -1  -9   49.13   12.10
 -17  -1  -9   56.58   14.34
 -17   1  -9   59.64   12.37
  18   2  -9  840.88   41.74
 -18  -2   9  883.72   47.52
  18  -2  -9  853.98   46.37
  17   2  -9   10.19    5.78
  17  -2  -9   17.27    7.53
 -17  -2   9   24.41    9.10
  17   2  -9    7.51    4.95
  16  -2  -9  132.00   16.96
  16   2  -9  119.23   17.13
 -16  -2   9  130.95   18.57
  16   2  -9  109.07   11.44
  16  -2  -9  109.55   16.98
 -16  -2   9  115.47   11.29
 -15  -2   9    4.89    2.42
  15  -2  -9    0.29    2.56
 -15   2   9   -0.40    1.84
 -15  -2   9   -0.67    2.15
  15  -2  -9   -0.23    2.91
  15   2  -9    0.97    2.04
  14  -2  -9  191.60   17.67
 -14   2   9  179.14   13.84
 -14  -2   9  204.41   15.23
  14  -2  -9  166.22   15.53
 -14  -2   9  184.25   16.81
  14   2  -9  178.37   14.83
 -13  -2   9    0.28    1.52
  13   2  -9    2.23    1.92
  13  -2  -9    2.96    2.50
 -13  -2   9    0.43    1.83
 -13   2   9   -0.40    1.44
  13  -2  -9    2.21    2.21
 -13  -2   9   -0.50    1.91
 -12  -2   9  124.03   11.07
 -12  -2   9  151.20   11.45
 -12   2   9  134.89   11.06
  12   2  -9  141.61   12.71
  12  -2  -9  159.16   14.73
  12  -2  -9  159.98   15.32
 -12  -2   9  156.76   14.72
  11   2  -9    4.61    1.83
  11  -2  -9    1.34    1.91
 -11  -2   9    0.30    1.52
 -11  -2   9    0.20    1.25
 -11   2   9    1.88    1.35
 -11  -2   9    3.09    1.50
  10  -2  -9    5.16    2.15
 -10   2   9    4.72    1.32
 -10  -2   9    3.26    1.74
  10  -2  -9    2.79    1.71
 -10  -2   9    4.02    1.44
  10   2  -9    4.53    1.89
 -10  -2   9    1.28    1.31
  -9  -2   9    0.41    1.18
  -9   2   9    1.24    0.82
   9  -2  -9    0.09    1.32
   9  -2  -9   -0.43    1.61
  -9  -2   9    1.13    1.14
   9   2  -9    1.25    1.72
  -9  -2   9   -0.69    1.09
  -8  -2   9    1.12    1.33
  -8   2   9    4.17    1.23
   8  -2  -9    1.96    1.40
   8  -2  -9    2.80    1.22
  -8  -2   9   -0.40    1.02
  -8  -2   9    3.58    1.25
  -8  -2   9    0.88    1.00
  -7  -2   9   10.45    2.03
  -7   2   9   15.53    2.67
   7  -2  -9   13.24    4.00
   7  -2  -9   10.68    3.74
  -7  -2   9   11.03    3.19
  -7  -2   9   13.14    4.16
  -7  -2   9   11.22    2.17
  -7   2   9   10.72    1.66
   6  -2  -9 1761.99   60.73
  -6  -2   9 1669.25   54.17
  -6   2   9 1730.24   46.91
  -6  -2   9 1770.62   57.70
  -6  -2   9 1868.57   47.82
  -6   2   9 1753.45   44.64
  -6   2   9 1848.09   51.04
  -6  -2   9 1854.04   50.99
   6  -2  -9 1845.30   61.32
  -6   2   9 1775.41   49.42
  -5   2   9   89.72    5.33
   5  -2  -9   88.78    9.02
  -5  -2   9   85.15    4.37
   5  -2  -9   83.49   10.95
  -5  -2   9   81.24    4.42
  -5  -2   9   94.40   10.86
  -5   2   9   91.52    4.72
  -5  -2   9   89.76    6.87
  -5  -2   9   93.17    8.88
   4  -2  -9 2740.72   81.19
   4  -2  -9 2634.98   80.14
  -4   2   9 2597.61   64.58
  -4  -2   9 2824.10   76.13
  -4  -2   9 2707.80   78.15
  -4  -2   9 2800.79   73.89
   3  -2  -9   20.20    5.03
  -3  -2   9   18.02    4.66
  -3  -2   9   16.04    4.04
   3  -2  -9   20.86    4.54
  -3  -2   9   16.34    3.57
   3  -2  -9   13.17    3.64
   2  -2  -9  342.46   16.96
   2  -2  -9  321.86   17.70
  -2  -2   9  314.78   17.50
  -2  -2   9  312.39   20.28
  -2  -2   9  325.21   16.33
   2  -2  -9  327.24   18.81
   2   2  -9  321.66   16.01
   1   2  -9   -0.09    0.69
   1  -2  -9   -0.98    0.90
  -1  -2   9    1.35    1.41
  -1  -2   9   -0.68    0.80
  -1  -2   9    0.96    1.00
   1  -2  -9    0.18    1.11
   0  -2  -9  799.40   24.95
   0  -2   9  758.28   29.73
   0  -2  -9  781.72   32.15
   0  -2  -9  766.39   30.53
   0  -2  -9  777.16   20.83
   0  -2   9  774.22   35.26
   0   2  -9  730.46   26.36
   1  -2   9   27.05    5.65
   1  -2   9   27.85    6.48
  -1   2  -9   34.39    4.66
  -1  -2  -9   33.47    2.91
  -1  -2  -9   29.17    3.68
  -1  -2  -9   30.07    6.28
  -1  -2  -9   27.31    5.71
   2  -2   9 1065.13   43.97
  -2  -2  -9 1035.48   31.05
  -2  -2  -9  997.54   38.05
  -2  -2  -9 1076.28   40.62
  -2  -2  -9 1088.88   28.93
   2  -2   9 1088.82   38.80
  -2   2  -9 1089.87   32.38
   3  -2   9    9.57    3.98
  -3  -2  -9    8.71    2.97
  -3   2  -9    8.69    1.64
  -3   2  -9   13.80    2.16
  -3  -2  -9   10.23    1.20
  -3  -2  -9    4.74    2.10
   3  -2   9   10.74    3.55
  -4   2  -9   19.72    2.81
   4  -2   9   21.03    5.10
  -4  -2  -9    7.92    3.14
   4  -2   9   11.77    4.00
  -4  -2  -9   20.98    5.09
  -4  -2  -9   20.69    4.03
  -4   2  -9   15.10    2.07
   5  -2   9    1.94    1.67
  -5  -2  -9    0.50    1.16
  -5   2  -9    2.01    0.82
   5  -2   9    3.16    1.97
  -5  -2  -9    0.97    1.09
  -5  -2  -9    0.79    1.26
  -6  -2  -9    1.59    1.20
  -6  -2  -9    0.75    1.39
  -6  -2  -9    1.27    1.47
  -6   2  -9    1.75    0.86
   6  -2   9    0.80    1.14
   6  -2   9    2.74    2.45
  -7   2  -9    5.02    1.42
  -7  -2  -9    2.09    1.32
   7  -2   9    2.72    1.50
  -7  -2  -9   10.80    3.75
   7  -2   9    4.22    2.00
   7   2   9    5.14    1.77
  -7  -2  -9    3.79    1.84
  -8  -2  -9  767.43   33.84
   8  -2   9  765.41   35.24
   8  -2   9  646.43   36.66
   8   2   9  761.59   29.84
  -8  -2  -9  767.70   34.00
  -8   2  -9  760.22   27.51
  -8  -2  -9  738.13   36.75
   9  -2   9   21.35    6.63
  -9   2  -9   41.09    6.02
  -9  -2  -9   34.54    8.14
   9  -2   9   30.35    7.62
   9   2   9   45.22    7.20
  10   2   9  717.15   29.26
 -10   2  -9  741.00   28.69
 -10  -2  -9  707.12   35.14
 -10  -2  -9  535.68   35.09
  10  -2   9  742.84   35.94
 -11  -2  -9   -0.29    1.99
  11   2   9   -1.50    1.30
 -11   2  -9    2.11    1.35
  11  -2   9    2.37    2.26
  11  -2   9   -0.50    1.56
 -11  -2  -9    0.11    2.30
  12   2   9   35.00    5.70
  12  -2   9   18.54    6.05
 -12  -2  -9   22.34    6.12
 -12   2  -9   31.71    5.44
  12  -2   9   30.22    6.85
 -12  -2  -9   34.85    7.46
  13  -2   9    0.32    2.60
  13  -2   9    1.59    2.03
 -13  -2  -9   -3.11    2.85
 -13   2  -9   -3.12    1.85
 -13  -2  -9   -0.76    2.03
 -14  -2  -9  251.74   22.70
 -14   2  -9  233.18   16.57
 -14  -2  -9  195.72   21.30
  14  -2   9  256.63   21.64
 -15   2  -9   11.02    3.56
  15  -2   9    6.01    5.40
 -15  -2  -9    3.63    6.21
 -15  -2  -9   16.33    7.54
  16  -2   9  266.27   23.70
 -16  -2  -9  253.04   24.33
 -16   2  -9  264.55   20.77
 -16   2  -9  256.52   23.84
 -16  -2  -9  191.97   27.91
 -17   2  -9   -2.83    3.91
  16  -3  -9  494.39   35.27
  16   3  -9  503.53   29.34
 -16  -3   9  505.26   35.94
  15  -3  -9  179.16   23.28
  15   3  -9  205.13   16.76
 -15  -3   9  230.77   22.87
  14  -3  -9  143.94   14.23
  14  -3  -9  170.03   21.77
  14   3  -9  156.11   13.60
 -14  -3   9  183.21   22.25
  13   3  -9   24.42    5.55
  13  -3  -9   24.38    5.95
 -13  -3   9   27.64    6.32
 -13  -3   9   25.25    6.66
  13  -3  -9   17.95    4.54
  12  -3  -9   -1.92    1.85
  12  -3  -9    0.43    2.47
  12   3  -9    1.09    2.10
 -12  -3   9    1.01    2.02
 -12  -3   9    1.25    1.80
  11  -3  -9    2.93    2.35
 -11  -3   9   -0.12    1.61
 -11  -3   9   -0.25    2.13
  11  -3  -9   -2.30    1.75
  11   3  -9    0.08    1.90
  10  -3  -9    1.44    2.20
  10  -3  -9    0.32    2.16
  10   3  -9    4.18    2.02
 -10  -3   9   -1.18    1.55
 -10  -3   9   -1.20    1.82
   9  -3  -9   43.03    8.39
   9  -3  -9   39.20    8.28
  -9  -3   9   40.06    7.67
  -9  -3   9   54.03   10.38
  -8  -3   9  384.81   22.66
   8  -3  -9  368.83   23.12
  -8  -3   9  359.49   24.04
   8  -3  -9  355.89   23.31
   7  -3  -9  271.19   19.53
  -7  -3   9  269.39   18.31
  -7  -3   9  241.30   18.64
   7  -3  -9  239.03   17.36
  -6  -3   9  396.89   22.84
   6  -3  -9  366.26   23.15
   6  -3  -9  380.87   21.77
  -6  -3   9  354.51   23.10
  -5  -3   9    2.07    1.03
   5  -3  -9   -1.35    1.27
  -5  -3   9    2.48    1.33
  -5  -3   9    3.21    1.75
   5  -3  -9    0.65    1.08
   4  -3  -9  281.29   16.77
  -4  -3   9  276.46   18.45
   4  -3  -9  287.79   19.53
  -4  -3   9  249.28   18.39
  -4  -3   9  278.55   14.25
   3  -3  -9  531.12   23.48
   3  -3  -9  528.44   27.44
  -3  -3   9  518.09   22.21
  -3  -3   9  485.61   25.72
  -3  -3   9  503.54   26.79
  -2  -3   9 1257.20   42.66
   2  -3  -9 1304.04   41.66
   2  -3  -9 1319.94   49.73
  -2  -3   9 1261.81   47.71
  -2  -3   9 1265.79   46.40
  -1  -3   9  674.63   30.78
   1  -3  -9  667.64   32.29
  -1  -3   9  681.75   28.45
   1  -3  -9  716.65   26.24
   1  -3  -9  685.90   31.22
  -1  -3   9  650.72   31.00
   0  -3  -9  847.71   38.76
   0  -3  -9  957.71   28.92
   0  -3   9  937.03   37.62
   0  -3  -9  958.57   31.30
   0  -3   9  911.71   35.75
   0  -3  -9  970.44   38.47
  -1  -3  -9   54.99    9.46
   1  -3   9   63.10    9.13
  -1  -3  -9   62.97    5.39
  -1  -3  -9   64.55    5.25
  -1  -3  -9   48.06    8.91
   1  -3   9   54.91    9.11
  -1   3  -9   64.43    5.62
   2  -3   9    1.26    1.81
  -2  -3  -9    1.24    1.52
  -2  -3  -9    2.79    1.11
  -2  -3  -9    2.80    1.78
  -2   3  -9    1.46    0.83
  -2  -3  -9    1.25    0.84
   2  -3   9    1.63    1.22
  -3  -3  -9    0.55    2.01
  -3  -3  -9   -0.67    1.13
  -3  -3  -9    0.00    1.20
  -3   3  -9    0.62    0.86
   3  -3   9    0.23    1.40
   3  -3   9    1.33    1.17
  -4  -3  -9   44.02    8.66
   4  -3   9   40.04    9.13
  -4  -3  -9   47.18    8.62
  -4   3  -9   46.98    3.29
   4  -3   9   45.53    8.53
  -4  -3  -9   39.06    5.87
  -5  -3  -9    1.06    1.56
  -5  -3  -9    6.93    2.13
   5  -3   9    3.44    1.59
   5  -3   9    4.93    2.19
  -5  -3  -9    9.96    3.78
  -5   3  -9    4.17    1.02
   6  -3   9   68.70   11.17
   6  -3   9   77.27   13.33
  -6  -3  -9   76.82   11.77
  -6  -3  -9   67.05   10.64
  -6   3  -9   70.36    5.46
  -6  -3  -9   86.53   10.21
   7  -3   9   79.29   13.54
  -7   3  -9   59.26    5.35
  -7  -3  -9   66.19    9.53
  -7  -3  -9   70.00   11.50
  -7  -3  -9   70.74   11.61
   8   3   9  106.60    9.14
   8  -3   9  118.58   14.60
  -8  -3  -9  116.33   14.83
  -8   3  -9  117.29    8.39
   8  -3   9  112.15   16.55
  -9  -3  -9    3.43    2.20
  -9   3  -9    0.09    1.29
  -9  -3  -9   -1.08    1.89
   9  -3   9   -1.09    2.16
   9  -3   9    1.89    1.60
   9   3   9    1.08    1.31
 -10   3  -9  150.44   10.77
 -10  -3  -9  156.60   18.10
  10  -3   9  166.16   18.27
 -10  -3  -9  152.09   15.78
  10  -3   9  156.50   16.32
 -11  -3  -9  177.23   16.93
  11  -3   9  143.55   15.70
  11  -3   9  158.63   18.20
 -11   3  -9  160.74   11.44
 -11  -3  -9  128.59   18.60
 -12  -3  -9  368.62   30.23
  12  -3   9  402.71   28.45
 -12   3  -9  443.47   22.09
 -12  -3  -9  435.18   29.19
  12  -3   9  379.52   28.05
 -13  -3  -9  125.84   19.71
 -13  -3  -9  187.11   22.37
  13  -3   9  140.27   19.70
 -13   3  -9  158.19   12.17
  14  -3   9  183.49   22.27
 -14  -3  -9  118.15   22.78
 -14   3  -9  191.79   14.39
 -14  -3  -9  173.67   22.50
  15  -3   9   17.15    6.96
 -15  -3  -9   20.85   10.17
 -15  -3  -9    9.49    6.71
 -14  -4   9    7.30    6.01
  14   4  -9   16.75    6.74
  14  -4  -9    6.51    7.48
 -13  -4   9  128.51   21.37
  13  -4  -9  149.66   22.45
  13   4  -9  160.94   15.44
 -13  -4   9  141.59   18.04
 -12  -4   9    1.96    4.84
 -12  -4   9   -0.03    2.81
  12   4  -9   -2.07    2.49
  12  -4  -9    2.88    4.56
 -11  -4   9    6.25    5.70
  11  -4  -9    9.58    4.04
  11   4  -9    7.43    3.19
 -11  -4   9    7.14    3.18
  11  -4  -9   17.90    4.22
  10  -4  -9    5.77    2.58
 -10  -4   9    5.31    2.56
 -10  -4   9    0.60    2.33
  10  -4  -9    1.68    2.52
   9  -4  -9   25.87    5.96
  -9  -4   9   19.52    5.66
   9  -4  -9   20.98    5.77
  -9  -4   9   14.96    4.20
  -8  -4   9    6.07    2.56
  -8  -4   9    7.59    3.47
   8  -4  -9    2.95    2.34
   8  -4  -9    9.44    3.32
   7  -4  -9  178.30   16.11
  -7  -4   9  172.95   16.05
  -7  -4   9  176.46   17.53
   7  -4  -9  163.50   15.27
  -6  -4   9   30.41    7.14
   6  -4  -9   28.52    6.86
  -6  -4   9   33.49    8.31
   6  -4  -9   32.79    7.37
   5  -4  -9 1244.19   52.66
  -5  -4   9 1330.07   55.39
   5  -4  -9 1275.33   49.20
  -5  -4   9 1282.98   51.64
   4  -4  -9   75.35   12.33
  -4  -4   9   37.68    8.04
  -4  -4   9   54.13   10.56
   4  -4  -9   62.09    9.65
  -4  -4   9   51.02    6.32
  -3  -4   9  770.96   37.23
   3  -4  -9  788.76   33.56
   3  -4  -9  746.05   37.80
  -3  -4   9  767.61   38.70
  -3  -4   9  800.92   30.16
  -2  -4   9    6.55    1.44
   2  -4  -9    5.04    2.75
  -2  -4   9   10.08    2.92
   2  -4  -9   10.66    3.38
   2  -4  -9    4.65    2.01
  -2  -4   9   11.40    3.88
   1  -4  -9   47.54    7.15
   1  -4  -9   53.73    9.61
  -1  -4   9   57.52   10.51
   1  -4  -9   60.70   10.64
  -1  -4   9   49.56    7.21
  -1  -4   9   51.12    9.62
   0  -4  -9   21.79    3.69
   0  -4  -9   20.16    5.01
   0  -4   9   25.04    4.94
   0  -4   9   20.26    5.03
   0  -4  -9   22.02    6.16
  -1  -4  -9  594.84   31.70
  -1  -4  -9  609.42   24.32
  -1  -4  -9  575.06   32.89
   1  -4   9  624.67   29.37
   1  -4   9  551.63   30.52
  -1  -4  -9  642.83   25.27
  -2  -4  -9   29.52    7.51
  -2  -4  -9   31.36    7.55
   2  -4   9   20.15    4.21
  -2  -4  -9   24.53    4.38
   2  -4   9   30.52    7.03
   3  -4   9   52.15    9.28
  -3  -4  -9   40.17    8.88
  -3  -4  -9   58.77    7.58
   3  -4   9   53.06    8.93
  -3  -4  -9   41.75    9.12
   4  -4   9   -0.96    1.75
   4  -4   9   -0.89    1.47
  -4  -4  -9    0.48    1.88
  -4  -4  -9   -0.53    1.69
  -4  -4  -9    0.03    1.90
   5  -4   9    4.38    2.24
  -5  -4  -9    2.13    1.92
  -5  -4  -9    7.49    2.33
   5  -4   9    4.38    1.67
  -5  -4  -9    5.53    2.61
  -6  -4  -9    5.63    2.72
  -6  -4  -9    6.05    2.02
   6  -4   9    4.02    2.31
   6  -4   9    3.28    1.85
  -7  -4  -9   40.54    8.74
   7  -4   9   32.22    6.63
  -7  -4  -9   32.80    5.28
   7  -4   9   38.05    8.06
  -8  -4  -9    6.08    3.04
  -8  -4  -9    4.52    2.44
   8  -4   9    2.34    2.11
   8  -4   9    8.05    3.02
   9  -4   9  528.36   29.19
  -9  -4  -9  497.73   29.35
   9  -4   9  473.68   31.45
  -9  -4  -9  451.08   30.26
 -10  -4  -9   15.12    3.78
 -10  -4  -9   25.30    8.69
  10  -4   9   14.17    3.73
  10  -4   9   11.29    5.77
  11  -4   9  160.11   21.44
 -11  -4  -9  147.91   21.37
 -11  -4  -9  164.09   15.75
 -12  -4  -9   -6.05    5.27
 -12  -4  -9   -0.54    4.56
  12  -4   9    4.33    4.82
 -13  -4  -9   15.56    8.63
 -13  -4  -9   15.54    7.56
 -14  -4  -9    6.22    6.55
  12   5  -9   -3.65    4.21
 -11  -5   9    4.71    5.22
  11  -5  -9   -4.93    6.89
 -10  -5   9    3.48    5.14
 -10  -5   9    0.66    4.77
  10  -5  -9   -0.72    5.54
  -9  -5   9   32.52   10.03
  -9  -5   9   30.48   11.93
   9  -5  -9   51.01   12.68
   8  -5  -9   75.47   13.59
  -8  -5   9   49.62   12.52
  -8  -5   9   41.41   12.18
   8  -5  -9   56.55   10.20
   7  -5  -9  275.25   21.57
  -7  -5   9  281.54   26.52
  -7  -5   9  263.24   23.75
   7  -5  -9  250.70   20.84
  -6  -5   9   21.08    7.39
  -6  -5   9   28.10   10.48
   6  -5  -9   21.86    5.39
   6  -5  -9   16.88    4.22
   5  -5  -9   17.97    4.92
   5  -5  -9   14.00    3.92
  -5  -5   9   14.11    5.34
  -5  -5   9    8.46    5.65
  -4  -5   9   19.91    6.98
   4  -5  -9   26.87    5.39
   4  -5  -9   28.69    6.40
  -4  -5   9   18.14    5.33
   3  -5  -9  403.56   23.95
  -3  -5   9  380.96   28.88
  -3  -5   9  367.94   26.66
   3  -5  -9  400.55   27.48
  -2  -5   9  201.20   19.75
   2  -5  -9  212.98   19.01
   2  -5  -9  209.67   15.31
  -2  -5   9  201.62   18.79
   1  -5  -9  742.68   40.54
   1  -5  -9  744.35   38.98
  -1  -5   9  766.30   39.80
  -1  -5   9  774.69   34.04
   0  -5  -9  170.59   16.39
   0  -5  -9  181.46   17.76
   0  -5   9  147.49   18.55
   0  -5   9  152.29   13.07
  -1  -5  -9   16.52    6.16
   1  -5   9   10.08    2.99
  -1  -5  -9    5.16    3.07
   1  -5   9   18.58    4.08
   2  -5   9    4.49    2.75
  -2  -5  -9    1.94    2.55
   2  -5   9    0.77    2.10
  -2  -5  -9   10.03    3.48
  -3  -5  -9    3.22    2.75
  -3  -5  -9    3.26    2.77
   3  -5   9    4.75    3.01
   3  -5   9    4.09    2.20
   4  -5   9    1.12    2.47
   4  -5   9    3.09    2.32
  -4  -5  -9    2.53    2.87
  -5  -5  -9    3.78    3.23
   5  -5   9    0.58    2.61
   5  -5   9   -0.78    2.45
   6  -5   9    6.98    4.99
  -6  -5  -9    6.26    6.21
   6  -5   9    8.98    2.91
   7  -5   9   68.96   10.96
  -7  -5  -9   28.29    9.64
   7  -5   9   55.44   12.26
  -8  -5  -9   11.16    6.79
   8  -5   9   13.74    5.59
   8  -5   9   10.52    3.76
   9  -5   9   -0.35    4.61
  -9  -5  -9   -2.28    5.75
 -10  -5  -9   30.38   11.59
   7  -6  -9   -0.35    6.93
   6  -6  -9  313.99   27.32
   5  -6  -9   49.64   12.28
   4  -6  -9  351.76   29.19
  -4  -6   9  363.01   30.32
  -3  -6   9   34.14   11.16
   3  -6  -9   54.02   13.17
  -2  -6   9   66.22   14.99
   2  -6  -9   90.46   16.64
   1  -6  -9   15.81    5.19
  -1  -6   9   12.09    6.40
   0  -6   9  180.38   23.82
   1  -6   9   15.01    7.96
  -1  -6  -9    7.71    7.88
  -2  -6  -9  144.33   21.73
   2  -6   9  124.09   19.75
   3  -6   9    8.89    6.52
   3  -6   9   15.25    8.01
  -3  -6  -9    7.33    8.45
  -4  -6  -9   -0.30    8.02
   4  -6   9   -5.15    4.04
   4  -6   9   -3.47    5.79
   5  -6   9   -2.40    4.74
   5  -6   9    6.07    6.68
  -5  -6  -9   -0.48    6.88
   6  -6   9    3.07    6.88
  19   0 -10    7.42    4.42
 -19   0  10    1.40    4.06
  19   0 -10   -1.41    4.92
 -19   0  10    3.74    5.84
  18   0 -10   40.88   10.89
 -18   0  10   33.03    9.58
 -18   0  10   32.29    9.26
  18   0 -10   53.88   12.02
  17   0 -10    3.58    3.57
 -17   0  10    3.62    3.35
 -17   0  10    0.64    2.42
  17   0 -10    4.30    5.16
 -16   0  10  146.32   14.17
  16   0 -10  167.52   15.20
  16   0 -10  164.60   16.28
  15   0 -10   -0.64    1.82
 -15   0  10    0.61    1.77
  15   0 -10    0.86    2.30
 -14   0  10    5.10    2.27
  14   0 -10    5.67    2.28
  14   0 -10    1.19    2.08
  13   0 -10   -1.35    1.50
  13   0 -10    2.43    1.80
 -13   0  10    2.20    1.56
  12   0 -10 1427.97   52.92
 -12   0  10 1464.87   52.68
  12   0 -10 1383.79   52.97
  11   0 -10    1.23    1.40
 -11   0  10   -0.74    1.19
  11   0 -10    0.15    1.29
  10   0 -10 2092.98   68.24
 -10   0  10 2142.56   67.18
  10   0 -10 2072.00   67.80
 -10   0  10 2107.87   53.92
  -9   0  10    0.19    0.79
   9   0 -10   -1.16    0.93
   9   0 -10    1.34    1.02
  -9   0  10    3.25    1.71
   8   0 -10  313.16   18.36
   8   0 -10  276.12   17.58
  -8   0  10  273.51   12.51
   7   0 -10    0.41    1.12
  -7   0  10    3.00    1.19
   7   0 -10    1.36    1.19
   6   0 -10  113.15    9.72
   6   0 -10  114.64   10.22
  -6   0  10  132.35    9.44
  -6   0  10  127.05    7.79
   5   0 -10   -0.04    1.45
  -5   0  10    2.61    1.12
   5   0 -10   -0.21    0.98
   5   0 -10   -1.47    0.74
  -5   0  10    1.62    0.82
  -4   0  10   29.98    5.38
   4   0 -10   32.07    6.10
  -4   0  10   38.27    3.48
   4   0 -10   39.84    3.97
   3   0 -10   -1.17    0.67
   3   0 -10    0.12    1.11
   3   0 -10    0.83    0.90
  -3   0  10   -0.40    0.76
  -3   0  10   -0.45    0.64
   2   0 -10  360.79   18.24
   2   0 -10  359.60   17.69
  -2   0  10  370.99   18.00
   2   0 -10  395.11   15.71
   2   0 -10  393.11   14.19
  -1   0  10    1.46    0.76
   1   0 -10    1.87    1.04
   1   0 -10    0.06    0.72
   1   0 -10   -1.36    0.92
   0   0 -10   51.60    6.88
   0   0 -10   50.06    4.26
   0   0 -10   42.57    5.18
   0   0  10   48.46    7.02
  -1   0 -10    2.26    1.10
  -1   0 -10    0.15    1.31
  -2   0 -10 2082.91   57.80
   2   0  10 2036.17   64.37
   2   0  10 1914.28   58.86
  -2   0 -10 1987.67   54.82
   3   0  10   -0.97    0.73
   3   0  10    1.21    1.33
  -3   0 -10    0.62    0.93
  -3   0 -10    5.66    2.07
   4   0  10 3220.70   89.48
  -4   0 -10 3261.77   84.58
   4   0  10 3311.20   98.38
  -4   0 -10 3265.47   86.22
  -5   0 -10    1.71    1.44
  -5   0 -10    0.62    1.02
   5   0  10   -1.17    0.71
   5   0  10    0.84    1.14
  -6   0 -10  159.11   11.41
   6   0  10  145.89   11.74
  -6   0 -10  161.58   10.31
  -7   0 -10    1.19    1.51
  -7   0 -10    1.82    1.04
   7   0  10   -0.57    0.97
  -8   0 -10  359.31   16.95
  -8   0 -10  375.42   20.11
   8   0  10  370.36   20.66
   9   0  10   -0.30    1.10
  -9   0 -10    0.65    1.15
  -9   0 -10    1.37    1.30
 -10   0 -10  155.32   13.16
 -10   0 -10  170.10   14.81
  10   0  10  167.79   13.81
 -11   0 -10   -1.75    1.52
  11   0  10    1.60    1.32
  11   0  10    3.08    2.39
 -11   0 -10   -0.35    1.41
  12   0  10   46.66    9.23
 -12   0 -10   41.96    8.10
  12   0  10   50.00    8.98
 -12   0 -10   44.74    8.45
  13   0  10    1.13    1.66
  13   0  10   -0.09    1.84
 -13   0 -10    0.32    1.66
 -13   0 -10   -0.07    1.79
 -14   0 -10    6.59    2.66
  14   0  10    2.07    1.93
  14   0  10    5.30    2.07
 -14   0 -10    5.68    2.81
  15   0  10    2.37    2.24
  15   0  10   -1.26    2.38
 -15   0 -10    0.05    3.93
 -15   0 -10   -0.85    3.34
 -16   0 -10  253.51   25.13
  16   0  10  235.42   19.77
 -16   0 -10  244.28   22.29
 -17   0 -10   -1.42    5.26
 -17   0 -10   -0.90    3.60
 -19  -1  10    4.19    6.30
 -19  -1  10    0.50    4.23
  19   1 -10    0.45    5.11
  18  -1 -10    4.80    5.15
  18  -1 -10    0.15    4.09
 -18  -1  10   -2.35    3.73
  18   1 -10    1.87    3.36
  18   1 -10    0.32    4.56
 -18  -1  10    3.07    4.63
  17  -1 -10    6.09    3.22
 -17  -1  10    8.97    6.12
  17   1 -10   12.09    5.42
 -17  -1  10    9.64    3.01
  17   1 -10   10.39    6.30
  16   1 -10   68.54   11.31
 -16  -1  10   88.71   11.44
 -16   1  10   56.72    9.89
  16  -1 -10   54.50   11.69
  16   1 -10   69.46   12.97
  16  -1 -10   51.98    9.24
 -16  -1  10   59.16   11.62
  15  -1 -10  244.90   19.09
  15  -1 -10  222.43   19.58
 -15  -1  10  258.99   20.89
 -15  -1  10  244.51   17.58
  15   1 -10  211.20   17.01
  15   1 -10  233.46   18.37
 -15   1  10  256.46   18.26
 -14  -1  10  688.30   32.14
  14   1 -10  616.62   31.40
 -14   1  10  626.87   30.76
  14  -1 -10  656.36   34.32
  14  -1 -10  602.68   34.35
 -14  -1  10  671.36   35.74
  14   1 -10  599.41   32.12
  13   1 -10  518.69   28.47
 -13  -1  10  543.60   27.30
  13  -1 -10  506.83   29.98
 -13   1  10  524.44   26.14
  13   1 -10  512.07   27.26
 -13  -1  10  503.08   29.45
  13  -1 -10  486.21   28.64
  12  -1 -10  448.40   27.08
  12   1 -10  395.25   24.06
  12   1 -10  449.59   24.91
  12  -1 -10  458.78   26.79
 -12  -1  10  468.65   19.44
 -12   1  10  433.13   22.40
  11  -1 -10   44.68    8.58
 -11  -1  10   41.91    7.51
 -11  -1  10   32.17    5.07
 -11   1  10   37.39    6.14
  11   1 -10   36.16    7.21
  11  -1 -10   23.16    5.25
  11   1 -10   46.98    8.57
  10  -1 -10  156.35   13.79
 -10   1  10  139.12   10.10
  10  -1 -10  144.32   13.28
 -10  -1  10  154.35   12.18
 -10  -1  10  150.43   10.07
  10   1 -10  144.45   12.30
  10   1 -10  128.66   11.96
   9   1 -10  346.29   20.45
  -9  -1  10  361.82   19.50
   9  -1 -10  364.04   22.06
   9   1 -10  349.23   20.23
  -9   1  10  372.50   17.14
  -9  -1  10  345.85   16.93
  -9   1  10  352.09   11.13
   9  -1 -10  380.85   22.03
   8   1 -10  604.73   27.74
   8  -1 -10  588.50   29.00
  -8  -1  10  561.46   23.24
  -8   1  10  569.81   17.58
  -8  -1  10  634.21   26.36
   8  -1 -10  625.50   28.99
  -8   1  10  578.21   22.12
   8   1 -10  604.56   27.77
  -7  -1  10  690.77   26.01
   7   1 -10  664.87   29.35
   7   1 -10  634.47   28.48
  -7   1  10  665.38   23.67
   7  -1 -10  690.84   31.11
  -7  -1  10  663.85   26.89
   7  -1 -10  678.73   30.09
  -7   1  10  704.50   23.36
  -6   1  10  436.11   17.37
   6  -1 -10  424.81   22.73
  -6  -1  10  423.29   19.08
   6   1 -10  407.42   21.30
  -6  -1  10  409.88   19.20
   6  -1 -10  441.40   22.10
   6   1 -10  422.51   21.15
  -6   1  10  420.95   15.19
  -5  -1  10   16.66    4.46
  -5  -1  10   19.58    4.09
   5   1 -10   15.21    3.89
  -5   1  10   10.99    2.31
   5  -1 -10    8.18    2.71
   5  -1 -10   13.60    3.80
  -5   1  10   13.45    1.32
  -4  -1  10    1.74    0.94
  -4  -1  10    1.33    1.01
  -4   1  10    1.97    0.85
   4  -1 -10    2.07    1.23
   4   1 -10    2.26    1.40
   4  -1 -10    0.58    1.08
  -4  -1  10   -0.52    0.86
   3  -1 -10   10.75    3.41
  -3  -1  10   12.02    2.27
  -3  -1  10    8.52    2.51
  -3  -1  10    5.81    2.18
   3   1 -10    6.73    2.29
  -3   1  10    8.13    2.29
   3  -1 -10    9.81    3.05
   2   1 -10  132.25    9.72
  -2  -1  10  135.32    8.93
  -2  -1  10  132.26   11.08
   2  -1 -10  119.94    9.13
   2  -1 -10  113.41   10.06
   2  -1 -10  121.24    9.29
  -2   1  10  121.44    8.92
  -2  -1  10  124.87    9.57
  -2  -1  10  137.43    6.64
  -1  -1  10  474.79   21.61
   1  -1 -10  471.08   20.84
  -1  -1  10  478.17   24.00
   1   1 -10  509.70   21.32
  -1  -1  10  547.15   16.05
   1  -1 -10  520.33   23.64
   1  -1 -10  499.03   21.19
   0   1 -10 1099.14   35.70
   0  -1  10 1132.54   42.07
   0  -1 -10 1065.08   35.99
   0  -1  10 1100.20   29.56
   0  -1  10 1051.36   37.32
   0   1 -10 1113.03   29.54
   0  -1 -10 1012.07   35.51
   0  -1 -10 1128.59   38.68
  -1  -1 -10  828.52   31.45
   1  -1  10  816.93   31.22
   1  -1  10  794.24   33.86
  -1  -1 -10  723.16   27.41
  -1   1 -10  838.29   24.04
  -1  -1 -10  811.90   29.67
  -1   1 -10  813.40   28.04
   1  -1  10  828.70   24.02
  -1  -1 -10  851.41   24.23
  -2   1 -10  389.09   16.45
  -2  -1 -10  378.42   18.30
   2  -1  10  411.91   21.88
  -2   1 -10  377.72   14.08
   2  -1  10  441.07   20.84
  -2  -1 -10  387.76   19.44
  -2  -1 -10  307.09   14.76
  -2  -1 -10  400.81   15.23
  -3  -1 -10   39.71    5.34
  -3   1 -10   35.34    4.65
  -3  -1 -10   40.10    6.52
   3  -1  10   29.82    6.67
  -3  -1 -10   30.25    3.12
   3  -1  10   41.64    7.03
  -3  -1 -10   39.73    6.66
  -4  -1 -10  110.69    9.36
  -4   1 -10   99.70    6.64
  -4   1 -10   95.20    6.95
  -4  -1 -10  112.55    9.68
  -4  -1 -10  104.80    5.56
   4  -1  10  104.05   10.48
  -4  -1 -10  101.57    5.23
   4  -1  10  103.51    9.59
  -4  -1 -10  101.61    8.49
   5   1  10  856.22   32.80
  -5   1 -10  888.34   29.69
  -5  -1 -10  711.98   32.96
  -5   1 -10  859.95   27.16
  -5  -1 -10  922.44   33.86
  -5  -1 -10  887.24   33.74
   5  -1  10  885.42   38.19
   5  -1  10  859.62   34.39
   5  -1  10  994.79   30.36
  -6   1 -10 1201.35   35.02
   6   1  10 1169.79   41.69
  -6  -1 -10 1210.85   42.40
  -6   1 -10 1233.70   39.14
   6  -1  10 1286.86   49.37
  -6  -1 -10 1221.85   42.66
  -7  -1 -10  370.05   23.24
  -7   1 -10  419.85   15.23
  -7  -1 -10  418.74   21.20
  -7   1 -10  430.54   19.35
   7  -1  10  425.22   25.23
   7   1  10  427.28   21.59
   7  -1  10  424.91   23.17
  -7  -1 -10  423.84   22.70
  -8   1 -10  325.64   17.08
  -8  -1 -10  325.30   19.95
   8  -1  10  355.00   22.92
   8  -1  10  299.66   19.69
   8   1  10  337.72   19.07
  -8  -1 -10  284.01   20.65
  -8  -1 -10  326.02   18.43
   9  -1  10   42.02    8.27
   9  -1  10   39.73    8.39
  -9   1 -10   39.66    6.51
  -9  -1 -10   51.80    8.85
   9   1  10   45.76    7.75
  -9  -1 -10   28.19    6.95
 -10   1 -10   18.11    4.13
  10  -1  10   10.91    3.63
  10   1  10   21.16    5.07
  10  -1  10   12.40    4.02
 -10  -1 -10   16.32    4.29
 -10  -1 -10    5.23    2.36
 -11  -1 -10    5.25    1.93
  11  -1  10    5.83    2.07
  11   1  10    4.45    1.89
  11  -1  10    5.46    1.95
 -11   1 -10    3.27    1.76
 -11  -1 -10   -0.40    1.86
 -12   1 -10    6.15    2.10
  12  -1  10    0.45    1.53
  12  -1  10    5.58    2.14
 -12  -1 -10    4.59    2.71
  12   1  10    3.27    1.69
 -12  -1 -10    6.55    2.50
 -13  -1 -10   44.40    8.90
  13  -1  10   41.23    8.54
  13   1  10   51.75    8.20
 -13   1 -10   32.19    6.57
 -13  -1 -10   39.19    8.45
  13  -1  10   34.14    7.72
 -14   1 -10  114.85   11.63
 -14  -1 -10  118.48   16.26
 -14  -1 -10  133.12   19.05
  14   1  10  104.93   10.45
 -14   1 -10  109.99   16.11
  14  -1  10  126.69   16.30
  14  -1  10  123.07   13.13
  15  -1  10   93.71   14.82
 -15   1 -10  104.20   16.91
  15  -1  10  103.03   14.58
 -15  -1 -10   90.53   16.97
 -15  -1 -10   93.68   15.99
 -15   1 -10   88.46   13.65
  16  -1  10   39.09   10.36
 -16   1 -10   25.58    8.43
 -16  -1 -10   18.11    6.32
 -16  -1 -10   32.11   10.34
 -16   1 -10   34.19    8.99
 -17   1 -10   -3.09    4.45
 -17  -1 -10    2.43    4.00
  17  -1  10   -6.41    3.73
 -18  -2  10    0.56    4.66
  18   2 -10   -2.76    3.82
  17   2 -10  119.49   17.73
  17  -2 -10  139.66   20.05
 -17  -2  10  152.53   20.88
  17   2 -10  146.09   15.55
  16   2 -10    1.47    4.32
  16  -2 -10   12.87    3.42
 -16  -2  10    7.58    5.90
  16  -2 -10    8.69    6.63
  16   2 -10    7.46    4.44
 -15  -2  10  111.77   15.99
  15   2 -10   95.34   15.24
  15   2 -10   94.50   12.93
  15  -2 -10   85.47   14.64
  15  -2 -10   95.59   13.67
 -14  -2  10   -1.58    1.89
  14  -2 -10   -0.36    1.90
  14   2 -10    1.37    1.72
  14  -2 -10   -0.06    2.74
 -14  -2  10    0.97    2.33
  14   2 -10    1.43    2.02
  13   2 -10  259.69   19.70
 -13  -2  10  246.84   17.12
  13  -2 -10  292.04   22.21
  13   2 -10  285.32   19.59
  13  -2 -10  267.44   20.73
 -13  -2  10  261.31   20.21
 -13  -2  10  278.36   16.47
 -12  -2  10    5.66    2.00
  12   2 -10    7.56    3.04
 -12  -2  10    5.37    2.04
 -12   2  10   14.63    3.28
  12  -2 -10   10.15    2.38
 -12  -2  10    5.02    1.63
 -11  -2  10 1649.20   52.66
  11  -2 -10 1656.52   64.76
 -11   2  10 1698.78   52.96
  11  -2 -10 1604.42   62.83
 -11  -2  10 1662.67   60.17
 -11  -2  10 1545.95   53.33
  11   2 -10 1613.36   58.51
  10  -2 -10    5.73    2.16
 -10  -2  10    8.45    2.06
 -10  -2  10   10.53    3.53
 -10   2  10   12.74    2.70
  10   2 -10    8.67    2.84
 -10  -2  10   21.99    5.04
  10  -2 -10   24.88    6.40
  -9   2  10  977.62   32.35
  -9  -2  10  976.96   40.11
   9  -2 -10  971.44   43.41
  -9  -2  10  929.55   33.33
   9   2 -10  921.71   39.22
  -9  -2  10  960.32   36.35
   9  -2 -10  920.07   42.15
   8   2 -10   -1.82    1.14
  -8   2  10    1.24    0.77
  -8  -2  10    4.55    1.08
  -8  -2  10    1.13    1.36
  -8  -2  10    0.34    1.11
   8  -2 -10    0.50    1.39
  -8  -2  10    0.83    1.12
   8  -2 -10    3.74    1.73
  -7  -2  10    1.25    1.03
  -7   2  10    2.17    0.74
  -7  -2  10    1.68    0.96
   7  -2 -10    2.51    1.44
  -7   2  10    1.43    0.67
   7  -2 -10   -0.67    1.18
  -7  -2  10   -0.34    1.00
  -7  -2  10    0.36    1.21
  -6  -2  10    0.22    1.02
  -6  -2  10    2.75    1.70
   6  -2 -10   -0.56    1.29
  -6  -2  10   -0.42    0.93
  -6  -2  10    0.83    0.66
   6  -2 -10   -0.87    1.23
  -6   2  10    0.87    0.53
  -6   2  10    0.21    0.71
  -5  -2  10  268.58   16.51
  -5  -2  10  266.80    8.80
   5  -2 -10  273.81   17.79
  -5  -2  10  264.00    8.80
  -5   2  10  258.96   12.69
  -5  -2  10  263.40   14.29
  -5  -2  10  263.16   16.67
   4   2 -10   11.65    3.48
  -4  -2  10   12.44    3.31
  -4  -2  10    7.96    2.31
   4  -2 -10   11.99    3.91
  -4  -2  10    9.95    2.86
   4  -2 -10    9.26    2.96
   3  -2 -10  129.66   10.93
  -3  -2  10  125.19   10.66
   3   2 -10  144.43   10.56
  -3  -2  10  161.60   11.20
   3  -2 -10  154.48   11.64
   3  -2 -10  149.87   12.60
  -2  -2  10   14.63    3.97
   2   2 -10   10.15    3.12
  -2  -2  10   18.91    5.56
  -2  -2  10   19.08    4.19
   2  -2 -10   14.23    3.97
   2  -2 -10   19.95    4.94
   2  -2 -10   18.62    4.17
   1  -2 -10  167.63   12.39
  -1  -2  10  158.90   11.59
   1  -2 -10  148.00   12.46
  -1  -2  10  149.45   13.77
  -1  -2  10  157.58   11.88
   1  -2 -10  161.83   10.67
   1   2 -10  167.58   10.66
   0  -2  10    3.90    2.00
   0  -2 -10    1.96    1.53
   0   2 -10    0.56    1.03
   0  -2  10    2.08    1.48
   0  -2 -10    0.30    1.27
  -1  -2 -10  682.47   29.38
   1  -2  10  660.89   33.57
  -1  -2 -10  735.46   22.75
  -1  -2 -10  700.22   31.31
  -1  -2 -10  720.64   20.58
   1  -2  10  731.71   30.25
  -1   2 -10  692.05   25.04
  -2   2 -10    5.10    1.35
  -2   2 -10    5.83    0.88
  -2  -2 -10    5.81    1.12
   2  -2  10    4.39    1.68
   2  -2  10    9.32    3.81
  -2  -2 -10    6.27    1.15
  -2  -2 -10    2.86    1.40
  -2  -2 -10    7.05    2.74
  -3  -2 -10 2797.63   82.14
   3  -2  10 2536.91   78.66
   3  -2  10 2615.44   89.15
  -3   2 -10 2651.88   69.53
  -3   2 -10 2616.24   66.93
  -3  -2 -10 2810.95   63.46
  -3  -2 -10 2720.97   78.50
  -4  -2 -10   13.68    2.79
  -4   2 -10   12.47    2.24
   4  -2  10   17.72    5.32
  -4  -2 -10   18.92    5.12
  -4  -2 -10   15.36    4.47
  -4   2 -10   15.70    2.30
   4  -2  10   19.41    5.31
  -5  -2 -10  951.72   38.00
  -5   2 -10  944.65   29.31
   5  -2  10  944.65   38.92
  -5  -2 -10  922.72   38.59
   5  -2  10  909.54   43.18
  -5   2 -10  926.92   25.81
  -5  -2 -10  990.81   36.18
  -6  -2 -10   26.38    5.83
  -6  -2 -10   31.22    5.68
  -6  -2 -10   24.61    5.98
  -6   2 -10   23.77    3.64
   6  -2  10   21.35    5.39
   6  -2  10   15.93    5.47
   7  -2  10   72.00   11.21
  -7  -2 -10   64.84   10.08
   7  -2  10   68.53   12.48
  -7  -2 -10   44.40    8.05
  -7   2 -10   60.66    5.67
   7   2  10   68.13    8.92
  -7  -2 -10   69.49   10.25
   8   2  10   28.34    5.87
  -8  -2 -10   21.38    5.49
  -8  -2 -10   28.64    6.30
  -8  -2 -10   32.49    6.66
  -8   2 -10   31.22    5.01
   8  -2  10   23.23    6.94
   8  -2  10   20.61    5.47
  -9  -2 -10  208.05   18.10
   9  -2  10  180.43   17.96
   9  -2  10  242.79   18.78
  -9   2 -10  250.42   14.11
  -9  -2 -10  220.12   17.25
   9   2  10  217.13   14.75
 -10  -2 -10   -1.46    1.63
  10   2  10    2.88    1.42
 -10   2 -10    2.94    1.54
  10  -2  10    0.06    1.80
  10  -2  10   -2.23    1.99
 -10  -2 -10   -1.40    2.26
  11  -2  10    2.57    2.23
  11   2  10    1.94    1.61
 -11  -2 -10    5.01    2.46
 -11   2 -10    4.23    1.80
  11  -2  10    1.73    1.74
 -12  -2 -10    0.26    2.69
  12  -2  10    2.24    2.45
 -12  -2 -10    0.90    2.07
 -12   2 -10    0.48    1.72
  12   2  10   -1.77    1.59
 -13  -2 -10   26.63    7.09
  13  -2  10   13.18    5.04
 -13   2 -10   19.79    4.27
  13  -2  10   18.48    4.60
 -13  -2 -10   20.81    5.15
  14  -2  10    1.82    3.78
  14  -2  10    5.14    2.97
 -14  -2 -10   -2.79    4.87
 -14  -2 -10   -1.16    3.43
 -14   2 -10    0.60    2.24
 -15  -2 -10   95.60   17.17
 -15   2 -10  102.84   14.39
  15  -2  10   71.55   14.08
 -15  -2 -10   88.04   18.56
 -16  -2 -10   -0.73    5.42
  16  -2  10    1.32    4.64
 -16   2 -10    2.65    4.87
 -16  -2 -10   11.86    6.49
 -17   2 -10  336.05   24.71
  17   3 -10    1.48    4.37
  16   3 -10   33.25    9.27
 -16  -3  10   44.39   12.33
  16  -3 -10   28.91    9.72
  15  -3 -10  321.66   28.04
  15   3 -10  293.50   22.57
 -15  -3  10  317.63   27.53
  14  -3 -10  246.91   23.67
 -14  -3  10  273.09   24.53
  14   3 -10  248.03   18.53
  14  -3 -10  147.45   19.24
 -14  -3  10  244.49   17.24
 -13  -3  10  472.03   31.39
  13   3 -10  450.60   26.72
  13  -3 -10  507.88   32.73
 -13  -3  10  481.16   25.91
 -12  -3  10  182.81   17.81
  12  -3 -10  193.91   18.44
 -12  -3  10  201.85   15.52
  12   3 -10  159.95   14.40
  12  -3 -10  164.74   16.15
  11  -3 -10   41.51    7.98
  11   3 -10   36.52    7.35
  11  -3 -10   39.03    8.03
 -11  -3  10   48.21   10.33
 -11  -3  10   39.39    7.27
 -10  -3  10   50.18    9.99
  10  -3 -10   68.69   11.64
 -10  -3  10   63.27   10.44
  10   3 -10   67.02   10.50
  10  -3 -10   48.03    9.45
   9  -3 -10  378.84   25.46
   9  -3 -10  394.89   25.21
  -9  -3  10  376.92   22.91
  -9  -3  10  366.80   24.92
  -8  -3  10  244.27   18.00
   8  -3 -10  277.53   20.03
  -8  -3  10  278.27   20.70
   8  -3 -10  283.84   21.02
   7  -3 -10  527.79   28.16
  -7  -3  10  571.81   29.09
  -7  -3  10  529.42   29.85
   7  -3 -10  519.84   29.85
   6  -3 -10  101.58   14.07
  -6  -3  10   89.17   12.20
  -6  -3  10  114.96   14.35
   6  -3 -10  122.09   11.46
  -6  -3  10  123.72    7.87
  -5  -3  10    9.58    3.34
   5  -3 -10   16.65    3.57
  -5  -3  10   20.64    3.47
  -5  -3  10   32.94    6.91
   5  -3 -10   22.31    5.32
  -4  -3  10   -0.59    1.08
   4  -3 -10    0.78    1.54
  -4  -3  10   -1.07    1.14
  -4  -3  10   -1.76    1.51
   4  -3 -10    2.42    1.28
   3  -3 -10    6.28    1.77
  -3  -3  10    5.61    1.36
  -3  -3  10    9.99    3.49
   3  -3 -10   13.12    4.51
   3  -3 -10   11.46    3.97
  -3  -3  10    4.24    2.18
   2  -3 -10   49.08    6.88
  -2  -3  10   35.11    6.98
  -2  -3  10   58.63    8.14
   2  -3 -10   44.33    8.31
  -2  -3  10   42.48    8.04
   2  -3 -10   68.66   11.20
   1  -3 -10  512.50   28.66
  -1  -3  10  537.87   25.32
  -1  -3  10  516.39   27.11
   1  -3 -10  564.81   22.77
  -1  -3  10  517.93   27.31
   1  -3 -10  572.80   28.18
   0  -3 -10  484.83   19.97
   0  -3  10  464.88   25.37
   0  -3  10  499.60   24.66
   0  -3 -10  487.02   25.90
   0   3 -10  481.89   20.45
   0  -3 -10  482.93   27.39
  -1   3 -10  742.28   26.85
  -1  -3 -10  793.36   24.91
  -1  -3 -10  714.39   33.52
  -1  -3 -10  805.40   26.29
  -1  -3 -10  723.22   35.46
   1  -3  10  744.71   32.89
  -2   3 -10  151.41    8.96
   2  -3  10  123.57   11.80
  -2  -3 -10  155.19   14.45
  -2  -3 -10  154.80    8.34
  -2  -3 -10  165.40    9.52
   2  -3  10  146.21   15.41
  -2  -3 -10  132.39   12.76
   3  -3  10    5.00    2.22
   3  -3  10   10.76    2.84
  -3  -3 -10   10.92    2.16
  -3   3 -10   10.69    1.90
  -3  -3 -10    5.42    2.72
  -3  -3 -10    9.89    3.29
   4  -3  10  106.77   13.36
  -4  -3 -10   97.77   13.44
   4  -3  10  117.25   16.80
  -4  -3 -10   90.54    7.58
  -4  -3 -10   78.05   12.17
   5  -3  10  682.88   38.61
   5  -3  10  611.28   32.15
  -5  -3 -10  692.70   34.81
  -5  -3 -10  667.02   27.65
  -5  -3 -10  683.53   33.39
  -6  -3 -10  366.95   23.72
   6  -3  10  339.72   22.95
  -6  -3 -10  371.72   24.39
  -6  -3 -10  327.91   18.75
   6  -3  10  368.86   27.35
  -7  -3 -10  532.67   26.01
  -7  -3 -10  491.19   28.83
  -7  -3 -10  479.31   28.68
   7  -3  10  513.39   29.69
   7  -3  10  488.59   32.99
   8  -3  10   53.39   12.14
  -8  -3 -10  118.37   15.36
   8   3  10   78.01    7.91
   9  -3  10    4.43    3.75
   9   3  10   10.62    2.15
  -9  -3 -10   11.14    2.96
  -9  -3 -10    9.69    3.62
   9  -3  10    5.94    2.01
  10  -3  10    2.94    2.05
 -10  -3 -10   -1.23    2.65
  10  -3  10    0.31    2.64
  10   3  10    4.76    1.76
 -10  -3 -10    1.75    2.12
  11  -3  10    1.85    2.91
 -11  -3 -10    7.39    3.61
  11  -3  10   -1.30    2.97
 -11  -3 -10    4.05    3.09
 -12  -3 -10    3.67    3.38
  12  -3  10    9.81    5.77
  12  -3  10    2.05    3.40
 -12  -3 -10    9.74    5.78
 -13  -3 -10   17.05    6.55
 -13  -3 -10   17.24    8.55
  13  -3  10   17.94    8.32
 -14  -3 -10   71.94   15.41
  14  -3  10   82.77   15.61
 -14  -3 -10  102.21   20.86
 -15  -3 -10   72.89   17.33
  15   4 -10    5.93    5.45
  14  -4 -10   -2.79    5.91
 -14  -4  10   -0.19    3.75
 -14  -4  10    1.09    4.39
  14   4 -10   -2.66    4.29
  13   4 -10    3.40    5.01
 -13  -4  10    3.77    4.66
  13  -4 -10   -2.24    4.48
 -13  -4  10   -0.47    4.32
 -12  -4  10  574.19   33.20
 -12  -4  10  544.87   37.70
  12   4 -10  518.53   30.88
  12  -4 -10  559.50   38.24
 -11  -4  10   22.93    6.39
  11  -4 -10   48.23   11.89
  11   4 -10   49.95    9.15
  11  -4 -10   43.13    7.52
 -11  -4  10   27.19    9.28
  10  -4 -10 1061.89   50.31
 -10  -4  10 1063.43   47.15
  10  -4 -10 1092.05   51.76
 -10  -4  10  998.01   51.64
  -9  -4  10   32.58    8.65
   9  -4 -10   34.69    7.87
  -9  -4  10   30.36    7.01
   9  -4 -10   27.83    6.90
   8  -4 -10   24.42    6.52
  -8  -4  10   38.82    9.17
  -8  -4  10   38.65    8.25
   8  -4 -10   39.62    8.20
   7  -4 -10    1.27    1.83
  -7  -4  10    3.31    2.21
  -7  -4  10   -1.03    2.21
   7  -4 -10    2.29    2.39
   6  -4 -10   40.01    8.86
  -6  -4  10   40.79    9.34
   6  -4 -10   41.40    8.40
  -6  -4  10   46.02    9.53
  -5  -4  10   24.35    6.80
   5  -4 -10   13.37    3.58
   5  -4 -10   23.49    5.71
  -5  -4  10   16.45    5.72
   4  -4 -10    9.64    2.61
  -4  -4  10   10.41    3.71
  -4  -4  10    2.30    1.69
   4  -4 -10    8.19    2.01
  -3  -4  10   16.81    5.07
   3  -4 -10   11.55    3.56
  -3  -4  10    7.90    2.01
   3  -4 -10   12.01    2.75
  -3  -4  10   12.12    4.49
  -2  -4  10  150.46   17.30
   2  -4 -10  181.83   13.15
   2  -4 -10  140.76   17.03
  -2  -4  10  155.74   11.83
  -2  -4  10  140.01   16.67
   2  -4 -10  123.66   15.39
  -1  -4  10    6.38    2.44
   1  -4 -10    4.44    1.57
  -1  -4  10    6.62    2.08
   1  -4 -10    5.40    2.53
   1  -4 -10    5.44    2.27
   0  -4  10    6.97    1.77
   0  -4 -10   11.06    4.46
   0  -4 -10   11.33    2.41
   0  -4  10    9.69    3.54
   0  -4 -10    7.02    2.90
  -1  -4 -10    3.07    1.85
  -1   4 -10    4.73    1.40
  -1  -4 -10    3.12    1.71
   1  -4  10    2.07    1.61
   1  -4  10    3.65    1.93
  -2  -4 -10  890.87   43.18
  -2  -4 -10  841.40   39.78
   2  -4  10  793.95   36.52
   2  -4  10  842.22   39.84
   3  -4  10   82.75   12.38
   3  -4  10   64.14   10.04
  -3  -4 -10   77.87   12.29
  -3  -4 -10   47.56    9.48
   4  -4  10 1053.32   46.34
  -4  -4 -10 1083.06   47.56
   4  -4  10 1036.27   44.98
  -4  -4 -10 1067.26   49.34
  -5  -4 -10   15.16    5.89
   5  -4  10   23.20    5.35
  -5  -4 -10   16.17    5.26
   5  -4  10   20.44    5.35
  -6  -4 -10   58.49   11.21
   6  -4  10   33.67    6.22
  -6  -4 -10   29.27    7.81
   6  -4  10   33.21    6.89
   7  -4  10    7.44    3.08
   7  -4  10   20.54    5.77
  -7  -4 -10    4.92    2.95
  -7  -4 -10    4.49    2.36
  -8  -4 -10  154.33   13.81
   8  -4  10  151.52   18.81
   8  -4  10  146.05   17.65
  -8  -4 -10  189.85   21.38
  -9  -4 -10    3.42    4.19
   9  -4  10    0.87    2.55
  -9  -4 -10    1.50    2.69
   9  -4  10    1.63    4.18
  10  -4  10   18.14    7.70
  10  -4  10   31.81    6.14
 -10  -4 -10   35.65   10.96
 -11  -4 -10   -1.05    6.01
  11  -4  10    1.21    3.96
 -12  -4 -10   13.98    9.44
  12   5 -10  246.15   21.40
 -11  -5  10   24.13    9.03
  11  -5 -10   15.34    9.69
 -10  -5  10   87.43   16.26
 -10  -5  10   61.39   15.67
  10  -5 -10   81.56   17.50
  -9  -5  10  108.80   18.53
   9  -5 -10  106.51   17.99
  -9  -5  10   76.78   17.00
   9  -5 -10  115.29   19.76
  -8  -5  10  324.69   29.49
   8  -5 -10  281.96   24.34
  -8  -5  10  349.70   27.95
   8  -5 -10  298.61   26.01
  -7  -5  10   66.88   14.78
   7  -5 -10   51.62   10.11
   7  -5 -10   66.90   11.55
  -7  -5  10   62.73   14.49
  -6  -5  10   67.46   14.35
   6  -5 -10   58.10   10.07
  -6  -5  10   50.43   12.83
   6  -5 -10   71.92   11.90
  -5  -5  10   11.31    6.31
   5  -5 -10    6.58    2.74
   5  -5 -10   11.50    3.37
  -5  -5  10   11.38    6.53
   4  -5 -10    3.22    2.67
   4  -5 -10   11.15    2.64
  -4  -5  10    3.97    4.49
  -4  -5  10    3.25    4.83
   3  -5 -10    3.42    2.57
  -3  -5  10    3.63    2.92
  -3  -5  10    1.29    3.48
   3  -5 -10    6.27    2.34
   2  -5 -10   24.44    6.00
  -2  -5  10   37.75    9.90
   1  -5 -10   35.88    7.84
  -1  -5  10   37.54    8.40
   1  -5 -10   43.00    8.50
   0  -5  10  368.37   26.73
   0  -5 -10  326.64   26.16
   0  -5  10  333.24   21.24
   0  -5 -10  391.27   26.94
  -1  -5 -10   90.21   15.98
  -1  -5 -10   95.17   14.59
   1  -5  10   88.04   11.27
   1  -5  10  100.17   15.63
   2  -5  10  161.68   19.61
  -2  -5 -10  176.29   20.81
  -2  -5 -10  149.88   21.36
   2  -5  10  171.93   15.00
  -3  -5 -10    5.51    5.03
   3  -5  10    0.90    2.53
   3  -5  10    4.26    2.24
  -3  -5 -10   -0.24    3.13
  -4  -5 -10   79.74   15.96
   4  -5  10   59.04   11.11
   4  -5  10   56.35    9.91
  -4  -5 -10   66.95   13.27
   5  -5  10   84.07   14.17
   5  -5  10   66.22   13.13
  -5  -5 -10   64.90   13.52
  -6  -5 -10  435.04   31.92
   6  -5  10  467.76   32.16
   6  -5  10  390.28   27.61
   7  -5  10   56.68   12.74
   7  -5  10   70.85   12.79
  -7  -5 -10   56.87   13.77
  -8  -5 -10   60.98   14.68
   8  -5  10   71.33   14.35
   8  -5  10   55.91   12.57
  -9  -5 -10    8.30    8.65
   7  -6 -10    2.75    9.27
   5  -6 -10   25.03    7.03
   4  -6 -10   -2.15    4.21
   3  -6 -10    6.55    5.49
  -2  -6  10   20.05    8.92
   2  -6 -10   28.24    8.89
  -1  -6  10   17.22    9.06
   1  -6 -10   10.56    5.83
   0  -6 -10   -1.35    3.92
   0  -6  10    5.30    7.45
  -1  -6 -10   51.28   14.04
   1  -6  10   67.45   15.77
  -2  -6 -10   26.63   11.19
   2  -6  10   35.18   12.47
   3  -6  10  482.05   35.58
  -3  -6 -10  485.82   35.91
   4  -6  10   25.08   10.94
   4  -6  10   53.69   11.74
   5  -6  10  139.27   21.58
   6  -6  10   -2.71    6.88
 -19   0  11  161.42   20.52
 -18   0  11    2.06    4.53
  18   0 -11    0.47    4.40
  18   0 -11   -1.27    3.31
  17   0 -11  485.35   31.38
 -17   0  11  527.83   31.73
  17   0 -11  493.78   32.88
  16   0 -11    0.73    4.13
 -16   0  11   -1.15    2.18
  16   0 -11    4.88    3.29
 -15   0  11  147.39   13.91
  15   0 -11  161.90   14.91
  15   0 -11  133.37   16.84
  14   0 -11   -2.57    1.84
  14   0 -11    2.44    1.81
 -14   0  11   -0.17    1.68
  13   0 -11    8.00    2.21
 -13   0  11    3.85    1.72
  13   0 -11   10.35    3.54
  12   0 -11    2.61    1.59
 -12   0  11   -0.97    1.46
  12   0 -11    1.74    1.45
  11   0 -11  374.44   22.89
  11   0 -11  379.78   22.45
 -11   0  11  381.82   21.12
 -10   0  11    1.23    1.13
  10   0 -11    1.17    1.32
 -10   0  11    1.02    0.91
  10   0 -11    0.77    1.57
   9   0 -11  915.11   37.29
   9   0 -11  897.74   37.67
  -9   0  11  883.15   28.19
  -8   0  11   -0.14    0.82
   8   0 -11    1.01    1.00
   8   0 -11    6.92    2.58
  -8   0  11    0.55    0.87
   7   0 -11  307.91   18.19
   7   0 -11  293.18   18.34
  -7   0  11  308.73   16.46
  -7   0  11  302.59   13.98
   6   0 -11    2.21    1.28
  -6   0  11   -0.02    0.70
   6   0 -11    0.30    1.04
  -6   0  11    1.76    1.08
   5   0 -11  928.58   28.82
  -5   0  11  877.46   33.29
   5   0 -11  883.65   34.21
   5   0 -11  834.05   34.24
  -5   0  11  866.34   26.89
   4   0 -11   -1.66    0.89
   4   0 -11    0.27    0.89
  -4   0  11    0.22    0.99
   4   0 -11    0.34    1.17
  -4   0  11   -0.12    0.59
   3   0 -11 2852.73   81.80
   3   0 -11 2967.56   75.42
   3   0 -11 2763.68   80.76
  -3   0  11 2705.23   83.11
   2   0 -11    0.55    0.89
   2   0 -11    0.91    1.05
   2   0 -11    0.49    0.93
  -2   0  11    1.47    0.90
   2   0 -11    0.31    1.09
  -1   0  11  901.04   34.50
   1   0 -11  949.54   34.48
   1   0 -11  866.17   32.58
   1   0 -11  908.77   29.62
   1   0 -11  982.75   26.92
   0   0 -11    0.39    0.84
   0   0  11    1.06    1.10
   0   0 -11    1.36    1.56
   0   0 -11   -0.04    0.75
  -1   0 -11   32.18    4.46
  -1   0 -11   33.08    5.66
   1   0  11   24.06    5.42
  -1   0 -11   31.28    4.79
  -2   0 -11   -0.90    0.80
   2   0  11   -0.43    0.72
   2   0  11    2.15    1.55
  -2   0 -11    0.14    1.05
  -3   0 -11  141.84    9.91
   3   0  11  125.17   11.09
   3   0  11  122.69   10.40
  -3   0 -11  129.09    9.00
  -4   0 -11    2.15    1.00
   4   0  11    1.47    0.97
   4   0  11    1.20    1.19
  -4   0 -11    1.58    1.08
   5   0  11  300.90   18.01
  -5   0 -11  281.04   15.31
  -5   0 -11  289.21   15.47
   5   0  11  336.97   20.17
  -6   0 -11   -1.24    1.01
  -6   0 -11   -0.17    1.38
   6   0  11   -0.55    1.01
   6   0  11   -0.93    0.93
  -7   0 -11  129.35   10.72
   7   0  11  130.34   11.61
  -7   0 -11  118.39    9.06
   7   0  11  140.18   12.99
   8   0  11   -0.26    1.08
  -8   0 -11   -0.46    1.21
   8   0  11   -1.13    1.14
  -8   0 -11   -1.57    1.30
  -9   0 -11  485.70   26.84
  -9   0 -11  484.97   25.04
   9   0  11  486.27   28.08
   9   0  11  478.52   25.76
  10   0  11   -0.02    1.31
 -10   0 -11    1.48    1.77
  10   0  11   -0.04    1.34
 -10   0 -11    7.51    2.66
  11   0  11 1028.66   43.58
  11   0  11 1035.25   47.26
 -11   0 -11 1082.99   43.68
 -11   0 -11 1081.31   47.22
  12   0  11    0.87    1.62
 -12   0 -11    2.33    2.25
  12   0  11   -0.84    1.85
 -12   0 -11    0.31    1.62
  13   0  11  129.48   13.05
  13   0  11  131.77   13.95
 -13   0 -11  156.11   15.23
 -13   0 -11  130.07   13.10
  14   0  11   -0.76    2.21
 -14   0 -11    1.12    2.25
  14   0  11   -3.86    2.07
 -14   0 -11   -2.35    2.18
  15   0  11    2.97    2.66
  15   0  11   -0.37    2.48
 -15   0 -11    3.19    3.65
 -15   0 -11   -0.33    4.44
 -16   0 -11    0.67    5.29
 -16   0 -11    1.66    3.43
  16   0  11   -1.16    3.34
  16   0  11    4.72    4.34
  18   1 -11  111.26   16.93
 -18  -1  11  120.48   16.79
  18  -1 -11  123.70   17.38
  18   1 -11  119.02   17.95
  17  -1 -11    3.34    4.33
  17   1 -11    8.55    4.77
  17   1 -11    6.19    5.68
  17  -1 -11   15.71    7.89
 -17  -1  11   10.42    3.50
  16   1 -11   10.67    5.51
  16  -1 -11    8.43    6.52
  16   1 -11    5.41    5.04
 -16  -1  11   11.15    2.79
  16  -1 -11    7.13    2.83
  15   1 -11   59.06    9.93
 -15  -1  11   52.17    7.98
  15  -1 -11   45.39    7.48
  15  -1 -11   43.78    9.85
  15   1 -11   53.88   10.28
 -14  -1  11   40.99    7.98
 -14   1  11   55.47    8.61
 -14  -1  11   48.81    8.27
  14  -1 -11   44.75    9.20
  14   1 -11   41.77    7.84
  14   1 -11   48.19    9.11
  14  -1 -11   34.76    8.41
 -13   1  11    4.06    2.21
  13   1 -11    2.09    1.84
  13  -1 -11    1.00    2.61
 -13  -1  11    6.34    1.98
 -13  -1  11    4.40    1.87
  13  -1 -11    2.38    1.74
  13   1 -11   -0.91    1.64
 -12  -1  11   27.07    4.52
 -12   1  11   25.63    5.01
  12  -1 -11   43.05    8.98
  12   1 -11   27.13    6.79
  12  -1 -11   19.03    4.87
 -12  -1  11   22.07    5.02
  12   1 -11   21.52    5.42
  11  -1 -11   80.15   12.28
 -11  -1  11   79.31    6.97
 -11   1  11   79.26    7.53
  11   1 -11   54.84    9.11
  11   1 -11   74.12   10.72
  11  -1 -11   78.58   12.15
 -11  -1  11   75.72   10.32
  10   1 -11    2.10    1.50
 -10  -1  11   -1.11    1.10
 -10   1  11   -0.01    1.00
  10  -1 -11    1.78    1.73
  10  -1 -11   -0.09    1.39
 -10  -1  11    1.00    1.20
  10   1 -11    1.81    1.36
  -9   1  11  139.98    9.05
   9  -1 -11  136.39   12.55
   9   1 -11  124.46   11.49
  -9  -1  11  130.25    9.69
   9   1 -11  125.32   11.57
  -9  -1  11  123.49   10.61
   9  -1 -11  127.19   12.38
  -8  -1  11  266.35   14.66
   8  -1 -11  261.05   18.15
  -8  -1  11  250.38   15.26
   8   1 -11  236.26   16.37
   8   1 -11  219.33   15.78
   8  -1 -11  247.60   17.23
  -8   1  11  243.80   12.02
  -7   1  11 1102.69   35.67
  -7  -1  11 1093.97   37.73
  -7  -1  11 1100.16   36.65
   7   1 -11 1074.46   41.37
   7  -1 -11 1083.60   42.93
   7  -1 -11 1150.56   42.87
   7   1 -11  992.64   39.87
  -6   1  11 1668.22   50.78
   6   1 -11 1594.02   54.02
  -6   1  11 1609.45   41.71
  -6  -1  11 1669.25   50.70
   6  -1 -11 1688.16   56.40
   6   1 -11 1654.11   55.81
  -6  -1  11 1698.88   50.17
   6  -1 -11 1693.77   57.37
   5   1 -11 1146.36   41.24
  -5  -1  11 1176.56   44.47
   5  -1 -11 1121.33   41.83
   5  -1 -11 1167.93   44.02
  -5  -1  11 1125.26   37.44
  -5   1  11 1131.41   37.60
  -4  -1  11  271.80   14.26
   4  -1 -11  281.98   16.43
   4  -1 -11  299.73   18.25
  -4  -1  11  280.42   11.59
  -4   1  11  261.08   13.75
  -4  -1  11  278.40   17.76
   4   1 -11  246.30   15.55
   3  -1 -11   52.93    7.52
  -3  -1  11   67.04    4.76
  -3  -1  11   60.89    9.04
  -3   1  11   61.54    6.20
   3  -1 -11   58.41    8.88
   3   1 -11   51.35    7.57
  -3  -1  11   56.87    5.72
   2  -1 -11   79.49    7.37
  -2  -1  11   87.72    5.35
   2   1 -11   73.09    7.33
   2  -1 -11   80.50    7.62
  -2  -1  11   71.98    8.71
  -2  -1  11   79.18    8.73
   2  -1 -11   67.37    9.33
  -2   1  11   71.03    7.00
   1  -1 -11  481.77   21.75
  -1  -1  11  464.92   24.46
   1  -1 -11  523.90   22.05
  -1  -1  11  531.17   16.42
  -1   1  11  487.93   22.38
  -1  -1  11  478.13   22.54
   1   1 -11  494.02   21.77
   0  -1 -11  295.93   15.83
   0  -1  11  295.40   18.62
   0  -1 -11  277.16   14.96
   0  -1  11  297.81   17.03
   0   1 -11  307.49   11.51
   0  -1  11  302.21   11.30
   0   1 -11  293.92   15.40
   0  -1 -11  301.90   17.38
   1  -1  11  144.18   12.41
  -1   1 -11  138.55    7.30
  -1   1 -11  142.15    9.62
  -1  -1 -11  138.76    6.20
  -1  -1 -11  154.48   10.86
   1  -1  11  157.11   11.99
  -1  -1 -11  143.79    5.87
  -1  -1 -11  110.11    8.48
   1  -1  11  153.66    7.67
  -1  -1 -11  138.60   11.16
  -2   1 -11    9.47    2.41
  -2  -1 -11   11.62    3.12
   2  -1  11   14.56    4.19
  -2   1 -11   12.10    2.35
  -2  -1 -11   12.97    2.19
   2  -1  11   16.32    4.57
  -2  -1 -11   19.20    4.60
  -2  -1 -11    9.69    1.96
   3  -1  11   14.03    4.32
  -3  -1 -11   15.66    3.09
  -3  -1 -11   11.81    3.18
  -3  -1 -11   10.46    2.12
  -3   1 -11   13.52    2.73
  -3   1 -11   18.43    3.48
  -3  -1 -11   12.39    3.47
   3  -1  11   11.24    4.02
  -4  -1 -11    0.87    1.02
  -4  -1 -11    1.82    1.27
   4  -1  11    1.57    1.40
   4  -1  11    4.26    1.60
  -4  -1 -11    5.10    0.95
  -4   1 -11    0.28    0.88
  -4  -1 -11    1.53    1.32
  -5   1 -11   94.58    7.58
  -5  -1 -11   95.67    4.75
  -5  -1 -11   79.36    9.89
   5   1  11   93.61    9.09
  -5  -1 -11   89.92    8.70
   5  -1  11   94.87   11.25
  -5  -1 -11   87.97    8.86
   5  -1  11  105.48   11.13
  -5   1 -11  105.41    6.97
  -6   1 -11  131.85    7.87
  -6  -1 -11  124.90   10.79
   6  -1  11  121.02   12.44
   6   1  11  124.16   10.72
  -6  -1 -11  141.30   11.68
   6  -1  11  146.53   12.65
  -6   1 -11  121.20    9.21
  -6  -1 -11  124.23   11.37
  -7  -1 -11  407.47   24.20
  -7  -1 -11  393.69   21.35
   7   1  11  410.14   22.12
   7  -1  11  425.75   24.03
   7  -1  11  465.52   26.90
  -7   1 -11  445.09   16.45
  -7   1 -11  435.93   20.16
  -7  -1 -11  438.50   22.91
  -8   1 -11  645.29   27.23
   8  -1  11  676.86   34.84
   8  -1  11  675.21   32.15
  -8  -1 -11  669.86   29.16
  -8  -1 -11  618.29   32.89
   8   1  11  655.05   29.95
   9   1  11  527.10   26.45
  -9  -1 -11  509.93   27.79
  -9   1 -11  560.17   25.26
  -9  -1 -11  513.85   30.03
   9  -1  11  551.25   29.28
   9  -1  11  534.71   30.93
  10   1  11  112.57   10.90
 -10  -1 -11  116.10   14.44
  10  -1  11  101.28   13.56
  10  -1  11  135.92   14.19
 -10   1 -11  115.77   10.33
 -10  -1 -11  123.87   13.41
 -11  -1 -11    1.27    1.86
 -11   1 -11   -2.81    1.43
  11  -1  11    0.18    2.00
  11  -1  11   -0.23    1.65
  11   1  11    0.49    1.53
 -11  -1 -11   -0.52    1.78
 -12  -1 -11   63.02   11.62
  12  -1  11   67.66   11.58
  12  -1  11   52.65    9.85
 -12  -1 -11   67.39   11.68
 -12   1 -11   63.99    9.72
  12   1  11   64.72    9.93
 -13   1 -11  144.16   14.83
 -13   1 -11  128.52   12.02
  13  -1  11  146.97   17.49
 -13  -1 -11  147.81   15.05
  13   1  11  130.43   12.37
 -13  -1 -11  135.22   18.04
  13  -1  11  126.00   14.13
 -14  -1 -11   93.65   15.77
  14  -1  11  101.18   14.57
 -14   1 -11   91.48   15.46
 -14  -1 -11   81.39   13.32
 -14   1 -11  104.20   13.68
  14   1  11   79.72   10.94
  14  -1  11  102.66   15.97
 -15   1 -11   73.19   13.90
  15  -1  11   75.77   13.13
 -15  -1 -11   53.68   12.50
 -15  -1 -11   81.84   15.53
 -15   1 -11   95.09   14.79
 -16  -1 -11   21.38    8.68
 -16   1 -11   15.53    6.72
 -16  -1 -11   16.10    7.12
 -16   1 -11   24.54    8.04
  16  -1  11   11.17    6.33
 -17   1 -11   -1.90    4.62
  17  -1  11   -0.21    4.02
  18   2 -11  283.60   23.16
  17   2 -11    2.81    5.26
  17   2 -11    2.01    4.41
  17  -2 -11    6.19    5.27
 -17  -2  11    1.15    4.53
  16   2 -11  376.18   25.68
  16  -2 -11  411.84   30.09
  16   2 -11  374.18   27.56
  16  -2 -11  394.17   29.69
 -16  -2  11  417.92   29.80
  15  -2 -11    5.38    5.19
  15   2 -11    3.82    3.81
 -15  -2  11   -0.81    2.61
  15  -2 -11    4.30    2.91
  15   2 -11    0.46    2.85
  14   2 -11   19.63    6.55
  14  -2 -11   17.89    4.16
  14   2 -11   19.69    5.57
  14  -2 -11   25.79    6.99
 -14  -2  11   12.18    3.69
  13   2 -11   -0.03    1.87
 -13  -2  11    1.50    1.66
 -13  -2  11   -0.63    1.95
  13  -2 -11    3.77    2.37
  13   2 -11    2.38    1.87
 -12  -2  11    2.28    1.89
  12  -2 -11    2.58    2.34
  12   2 -11    5.00    2.23
  12  -2 -11    8.94    2.68
 -12  -2  11    9.85    2.13
  12   2 -11    8.56    2.64
  11   2 -11    0.36    1.75
  11  -2 -11    1.48    2.02
 -11  -2  11    0.00    1.60
 -11  -2  11    0.62    1.57
  11   2 -11    2.07    1.47
  11  -2 -11    3.96    1.95
  10   2 -11  495.73   27.09
  10  -2 -11  521.09   30.88
  10   2 -11  519.65   27.76
 -10  -2  11  500.79   24.43
 -10  -2  11  523.63   27.99
  10  -2 -11  519.32   30.43
 -10  -2  11  438.21   21.42
  -9  -2  11   29.81    6.46
   9   2 -11   31.77    6.91
   9  -2 -11   36.82    7.83
   9  -2 -11   31.22    7.28
   9   2 -11   38.53    7.57
  -9  -2  11   35.48    6.52
  -9  -2  11   20.39    2.99
   8  -2 -11  833.93   39.55
  -8  -2  11  819.44   29.84
  -8  -2  11  842.09   35.86
   8   2 -11  822.98   35.56
   8  -2 -11  906.43   40.78
  -8  -2  11  750.46   27.63
  -8  -2  11  859.08   34.16
   8   2 -11  829.85   36.53
   7  -2 -11    1.53    1.92
  -7   2  11    2.40    0.88
  -7  -2  11    0.54    1.20
  -7  -2  11    3.30    1.02
   7   2 -11    5.67    2.21
   7  -2 -11    3.21    2.96
  -7  -2  11    2.41    1.38
  -7  -2  11    4.70    2.37
   6  -2 -11   23.56    5.96
  -6  -2  11   24.87    5.53
   6   2 -11   21.92    5.23
  -6  -2  11   26.38    6.04
   6  -2 -11   24.11    6.74
  -6  -2  11   22.47    2.21
  -6   2  11   26.49    2.87
  -6  -2  11   19.01    3.93
  -5  -2  11    0.34    1.10
  -5  -2  11    0.62    1.16
   5  -2 -11    1.71    1.26
  -5  -2  11   -1.64    1.07
   5   2 -11    0.87    1.11
  -5   2  11    2.26    0.97
   4   2 -11 1907.37   60.13
   4  -2 -11 1975.83   65.44
  -4  -2  11 1910.08   59.75
  -4  -2  11 1983.21   59.94
   4  -2 -11 1947.55   64.61
  -4  -2  11 1894.52   60.47
  -3  -2  11   40.81    8.52
  -3  -2  11   39.41    6.78
   3  -2 -11   39.78    7.02
   3  -2 -11   46.06    7.64
   3   2 -11   36.91    6.28
  -3  -2  11   37.71    6.73
   3  -2 -11   40.16    7.87
   2   2 -11 1395.90   45.80
   2  -2 -11 1474.77   48.72
   2  -2 -11 1372.10   50.61
   2  -2 -11 1443.96   48.29
  -2  -2  11 1441.84   48.17
  -2  -2  11 1373.98   55.16
  -2  -2  11 1415.43   47.46
  -1  -2  11    2.86    1.10
   1  -2 -11    2.08    1.18
  -1  -2  11    3.39    1.78
   1  -2 -11    5.90    2.80
   1  -2 -11    6.10    1.61
   1   2 -11    2.21    1.18
   0  -2  11  102.42   13.80
   0  -2 -11  117.00    8.37
   0  -2 -11  102.21    9.94
   0   2 -11  114.21    8.64
   0  -2 -11  103.59   10.55
   0  -2  11  105.67   10.00
   1  -2  11    3.00    2.15
   1  -2  11   -1.13    1.00
  -1  -2 -11    3.86    2.05
  -1  -2 -11    0.89    1.39
  -1   2 -11    0.73    0.84
  -2  -2 -11   17.93    4.56
  -2  -2 -11   17.85    2.44
  -2   2 -11   16.64    1.57
  -2  -2 -11   18.05    2.42
   2  -2  11   19.37    4.93
  -2  -2 -11   17.47    4.84
  -2   2 -11   20.00    3.56
   2  -2  11   17.35    5.68
  -3   2 -11    0.95    0.86
   3  -2  11    0.01    1.38
  -3  -2 -11    0.71    1.46
   3  -2  11    0.08    1.03
  -3   2 -11    1.96    0.77
  -3  -2 -11    0.98    0.61
  -3  -2 -11    0.15    1.32
  -4  -2 -11  198.80   15.63
  -4   2 -11  204.56    9.64
  -4   2 -11  188.70    9.37
   4  -2  11  209.89   15.87
  -4  -2 -11  208.01   15.34
   4  -2  11  197.15   17.55
  -4  -2 -11  212.57   12.25
  -5   2 -11    4.46    1.03
   5  -2  11    2.92    1.72
  -5  -2 -11    2.42    1.42
  -5   2 -11    2.38    0.90
  -5  -2 -11    3.93    2.38
  -5  -2 -11    3.68    1.23
   5  -2  11   11.76    3.76
  -6  -2 -11  317.97   18.25
  -6  -2 -11  301.36   19.98
  -6  -2 -11  278.04   18.95
   6  -2  11  277.48   19.68
  -6   2 -11  293.79   13.88
   6  -2  11  256.09   21.48
   7  -2  11    6.00    2.13
   7  -2  11    1.46    1.23
  -7  -2 -11    1.62    1.76
  -7  -2 -11   -1.65    1.54
  -7  -2 -11   -0.53    1.64
   7   2  11    1.82    1.18
  -7   2 -11   -0.79    1.13
  -8  -2 -11    9.05    1.83
  -8   2 -11   10.64    2.31
  -8  -2 -11    7.50    3.20
   8   2  11    8.18    2.42
  -8  -2 -11   11.43    3.78
   8  -2  11    3.66    1.77
   8  -2  11    5.04    2.89
  -9  -2 -11    0.63    2.09
   9  -2  11    6.28    2.68
   9   2  11    0.47    1.34
   9  -2  11   -1.43    1.41
  -9  -2 -11   -0.41    1.71
  -9   2 -11    1.51    1.36
  10  -2  11  676.15   41.32
 -10  -2 -11  728.36   40.27
  10  -2  11  785.58   39.24
 -10   2 -11  844.54   32.12
 -10  -2 -11  829.69   38.47
  10   2  11  786.58   33.69
  11  -2  11    5.41    3.03
 -11  -2 -11    5.18    2.21
 -11   2 -11    9.00    2.25
 -11  -2 -11    9.63    3.74
  11   2  11    8.80    2.30
  11  -2  11   15.85    5.38
 -12  -2 -11  486.24   33.83
 -12   2 -11  544.81   26.21
  12  -2  11  540.30   32.99
  12   2  11  502.58   25.79
 -12  -2 -11  540.39   31.68
  12  -2  11  477.69   33.30
 -13   2 -11    1.96    2.28
 -13  -2 -11    8.63    3.98
  13  -2  11    0.81    2.93
 -14  -2 -11    5.32    4.69
  14  -2  11   -0.63    3.62
  14  -2  11    4.14    3.41
 -14   2 -11    2.42    2.44
  15  -2  11    4.13    4.30
 -15  -2 -11    1.76    4.97
 -15   2 -11   -1.92    4.23
 -16  -2 -11   16.94    8.62
 -16   2 -11   25.69    8.22
  17   3 -11    8.88    5.28
 -16  -3  11    2.81    4.71
  16   3 -11    0.70    4.24
  15  -3 -11   12.24    8.27
  15   3 -11   10.38    6.04
 -15  -3  11   17.41    8.03
  14   3 -11   62.29   11.87
  14  -3 -11   26.45    6.00
 -14  -3  11   48.96    8.09
  14  -3 -11   69.21   14.74
 -14  -3  11   43.34   11.10
  13  -3 -11    8.67    3.23
  13  -3 -11   -0.17    4.78
 -13  -3  11    3.17    3.15
  13   3 -11    7.53    2.72
 -13  -3  11    4.49    2.40
  12  -3 -11   10.91    3.28
 -12  -3  11   23.01    5.50
 -12  -3  11   22.25    5.84
  12   3 -11   19.57    4.28
  12  -3 -11   14.08    4.17
  11  -3 -11    1.05    2.05
 -11  -3  11    1.48    1.89
  11   3 -11    4.85    2.38
 -11  -3  11    0.88    2.10
  11  -3 -11    1.58    2.57
 -10  -3  11    8.73    2.35
 -10  -3  11   19.77    5.44
  10  -3 -11   14.09    3.93
  10   3 -11   11.27    4.09
  10  -3 -11    9.76    2.73
  -9  -3  11   12.49    4.10
   9  -3 -11   11.40    3.61
   9  -3 -11   13.98    4.95
  -9  -3  11   25.93    6.36
  -8  -3  11  342.52   21.89
   8  -3 -11  334.74   22.98
  -8  -3  11  336.65   23.45
   8  -3 -11  286.66   22.23
  -7  -3  11  435.15   26.71
   7  -3 -11  462.71   26.75
  -7  -3  11  443.38   25.72
   7  -3 -11  485.39   29.26
   6  -3 -11 1343.05   54.24
  -6  -3  11 1302.04   41.19
  -6  -3  11 1234.22   50.51
   6  -3 -11 1307.34   49.43
  -6  -3  11 1281.49   49.12
  -5  -3  11  404.54   24.32
  -5  -3  11  430.83   25.66
   5  -3 -11  461.02   24.52
   5  -3 -11  456.71   27.46
  -5  -3  11  456.11   20.61
   4  -3 -11  389.39   21.10
  -4  -3  11  357.06   22.44
  -4  -3  11  388.69   19.40
   4  -3 -11  331.36   22.84
  -4  -3  11  356.13   22.36
  -3  -3  11   19.13    4.95
   3  -3 -11   21.08    4.61
  -3  -3  11   14.75    4.87
   3  -3 -11    7.38    3.13
   3  -3 -11   14.36    4.18
  -3  -3  11   15.10    2.73
  -2  -3  11  117.95   10.43
   2   3 -11  129.71   10.19
  -2  -3  11  116.72   11.66
   2  -3 -11  106.88   13.28
   2  -3 -11  133.67   13.35
   2  -3 -11  122.20    9.81
  -2  -3  11  105.46   13.41
  -1  -3  11  121.41   11.08
  -1  -3  11  138.36   13.27
   1  -3 -11  131.49   12.50
   1   3 -11  139.20   10.20
   1  -3 -11  142.32    9.97
   1  -3 -11  150.00   14.57
   0  -3  11  240.70   16.92
   0   3 -11  255.70   14.07
   0  -3 -11  291.85   14.31
   0  -3 -11  234.47   18.84
   0  -3 -11  279.67   19.10
  -1  -3 -11   96.89    6.91
  -1  -3 -11   91.80   12.70
  -1  -3 -11   91.44   13.45
   1  -3  11  100.80   12.27
   1  -3  11  102.39   15.89
  -1   3 -11  100.09    7.63
   2  -3  11   11.36    3.44
   2  -3  11   18.23    6.54
  -2   3 -11   15.81    2.83
  -2  -3 -11   12.97    3.64
  -2  -3 -11   17.81    5.16
  -3  -3 -11   12.63    3.62
  -3  -3 -11   10.82    2.09
  -3  -3 -11    8.77    3.35
   3  -3  11    8.98    3.00
   3  -3  11   10.45    4.52
  -4  -3 -11    4.16    1.43
   4  -3  11    7.24    3.69
   4  -3  11    5.76    2.31
  -4  -3 -11    4.37    2.12
  -4  -3 -11    1.49    2.72
   5  -3  11   30.82    7.07
   5  -3  11   38.06    9.48
  -5  -3 -11   35.80    5.24
  -5  -3 -11   23.20    5.35
  -5  -3 -11   16.34    4.46
  -6  -3 -11  163.54   15.42
   6  -3  11  145.53   14.60
  -6  -3 -11  163.38   12.01
   6  -3  11  152.88   20.90
  -6  -3 -11  171.53   15.98
  -7  -3 -11  233.94   19.21
   7  -3  11  211.45   21.54
   7  -3  11  199.50   17.71
  -7  -3 -11  221.98   18.69
  -7  -3 -11  230.57   15.19
   8  -3  11  430.00   32.85
  -8  -3 -11  520.04   30.56
  -8  -3 -11  501.12   30.05
   8   3  11  486.61   24.25
   8  -3  11  509.25   30.86
  -9  -3 -11  144.55   17.78
   9  -3  11  135.57   20.48
   9   3  11  178.24   13.01
  -9  -3 -11  185.27   16.26
 -10  -3 -11  124.14   12.92
  10  -3  11  125.37   19.33
  10   3  11  129.55   10.57
  10  -3  11  126.79   17.58
 -10  -3 -11  163.34   19.25
  11  -3  11    0.67    3.96
 -11  -3 -11    1.56    4.57
 -11  -3 -11    2.60    3.20
  11  -3  11    2.09    3.41
  12  -3  11   85.24   15.66
 -12  -3 -11   65.64   11.17
 -12  -3 -11   68.60   14.26
  12  -3  11   77.40   14.53
  13  -3  11   61.37   13.56
 -13  -3 -11   67.72   14.01
 -13  -3 -11   61.26   15.18
 -14  -3 -11  129.67   20.01
 -14  -3 -11  105.49   20.45
 -15  -3 -11   43.78   13.25
  14   4 -11   -2.17    3.91
 -14  -4  11    0.17    4.55
  13  -4 -11   -3.16    6.71
 -13  -4  11   -3.77    3.78
  13   4 -11   -1.17    4.39
 -13  -4  11    2.38    4.72
 -12  -4  11   -4.46    4.05
  12  -4 -11    1.78    4.75
  12  -4 -11    2.75    4.15
  12   4 -11   -1.49    4.26
 -12  -4  11   -0.15    4.22
  11   4 -11   76.52   13.14
 -11  -4  11   61.95   12.31
  11  -4 -11   74.93   16.29
  11  -4 -11   63.37   11.49
 -11  -4  11   74.10   15.39
  10  -4 -11   12.07    3.31
 -10  -4  11   13.52    4.84
  10  -4 -11   17.09    6.22
 -10  -4  11   13.62    6.84
  -9  -4  11  344.15   24.70
   9  -4 -11  430.37   29.41
   9  -4 -11  394.13   27.95
  -9  -4  11  359.31   27.63
  -8  -4  11   13.10    4.42
   8  -4 -11   30.81    6.60
  -8  -4  11   19.66    5.45
   8  -4 -11   26.82    6.02
   7  -4 -11  134.99   17.27
  -7  -4  11  130.25   16.72
  -7  -4  11  111.33   16.35
   7  -4 -11  157.02   19.45
   6  -4 -11    6.74    2.68
  -6  -4  11    1.04    1.95
   6  -4 -11    1.61    2.28
  -6  -4  11   -0.74    1.75
  -5  -4  11  272.13   21.37
   5  -4 -11  251.53   18.48
   5  -4 -11  254.77   21.09
  -5  -4  11  216.34   19.21
   4  -4 -11   88.22   11.95
  -4  -4  11   87.26   13.58
   4  -4 -11   70.97   12.29
  -4  -4  11   63.42   11.94
   3  -4 -11 1150.21   43.42
   3  -4 -11 1061.90   50.06
  -3  -4  11 1077.30   48.43
  -3  -4  11 1151.36   40.69
  -3  -4  11 1043.50   47.19
   2  -4 -11   21.13    5.27
   2  -4 -11   37.49    8.32
   2  -4 -11   28.81    5.60
  -2  -4  11   26.94    6.50
  -2  -4  11   25.21    4.97
  -2  -4  11   22.32    5.73
   1  -4 -11  309.74   17.30
  -1  -4  11  322.30   19.59
   1  -4 -11  316.55   22.46
   1  -4 -11  312.05   23.78
  -1  -4  11  285.95   21.96
   0  -4 -11    0.54    2.03
   0   4 -11    2.97    1.38
   0  -4 -11   -0.87    1.84
   0  -4  11    4.01    2.47
   0  -4  11   -0.84    1.64
   1  -4  11    7.44    1.97
  -1  -4 -11    1.86    2.04
   1  -4  11    6.22    3.49
  -1  -4 -11    7.02    2.68
  -2  -4 -11   -0.51    1.87
   2  -4  11    8.41    2.54
  -2  -4 -11   -0.05    2.21
   2  -4  11   -2.03    1.88
   3  -4  11    9.36    3.90
   3  -4  11    9.93    3.00
  -3  -4 -11    5.36    2.68
  -3  -4 -11    7.27    2.50
   4  -4  11    0.14    2.06
  -4  -4 -11   -0.63    2.17
   4  -4  11   -0.36    1.74
  -4  -4 -11    1.04    2.28
   5  -4  11  240.49   20.10
  -5  -4 -11  223.00   19.40
   5  -4  11  237.85   19.34
  -5  -4 -11  236.68   21.00
  -6  -4 -11    7.20    2.72
   6  -4  11   10.44    2.84
  -6  -4 -11   12.96    4.32
   6  -4  11   23.31    6.62
   7  -4  11   21.12    6.59
   7  -4  11   28.92    7.29
  -7  -4 -11   42.33    9.33
   8  -4  11    3.11    4.30
   8  -4  11    3.68    2.64
  -8  -4 -11    0.69    4.04
  -9  -4 -11  219.25   24.53
   9  -4  11  130.67   19.28
   9  -4  11  200.69   18.01
  10  -4  11   35.34    8.04
 -10  -4 -11   24.96    9.50
  10  -4  11   49.22   11.66
  11  -4  11  436.59   33.02
 -11  -4 -11  486.87   35.24
  10  -5 -11    1.17    6.34
 -10  -5  11    7.54    5.16
  -9  -5  11   11.63    6.27
   9  -5 -11   10.03    6.15
  -9  -5  11   13.80    7.45
   9  -5 -11   14.77    6.94
   8  -5 -11   39.71   11.89
  -8  -5  11   38.75   11.22
   8  -5 -11   58.66   13.77
  -8  -5  11   67.90   15.01
   7  -5 -11  359.59   30.02
   7  -5 -11  369.15   27.40
  -7  -5  11  363.46   30.82
  -7  -5  11  344.02   28.43
  -6  -5  11  173.58   23.54
  -6  -5  11  213.83   24.71
   6  -5 -11  220.83   18.92
   6  -5 -11  203.43   24.80
  -5  -5  11  526.59   36.40
   5  -5 -11  565.59   31.76
  -5  -5  11  601.61   37.47
   5  -5 -11  490.84   35.17
  -4  -5  11   19.27    8.37
  -4  -5  11   57.70   13.59
   4  -5 -11   28.68    5.57
   4  -5 -11   30.96    9.77
   3  -5 -11    5.84    6.40
  -3  -5  11   12.53    6.06
  -3  -5  11    8.98    5.45
   2  -5 -11    8.08    5.44
  -2  -5  11    4.52    4.38
  -1  -5  11  200.02   22.94
   1  -5 -11  205.34   24.43
   0  -5  11    2.84    2.43
   0  -5 -11   10.45    6.00
   0  -5 -11    4.05    4.01
   0  -5  11    7.16    4.04
  -1  -5 -11   58.15   13.04
   1  -5  11   73.57   14.17
  -1  -5 -11   76.66   15.90
   1  -5  11   51.88    8.24
   2  -5  11    9.07    2.66
   2  -5  11   15.90    5.15
  -2  -5 -11    1.23    4.48
  -2  -5 -11   19.93    8.42
   3  -5  11   32.20    8.70
  -3  -5 -11   12.05    6.65
  -3  -5 -11   10.88    6.44
   3  -5  11   17.57    4.16
  -4  -5 -11   -3.41    4.61
  -4  -5 -11    5.57    5.31
   4  -5  11    0.43    4.06
   4  -5  11   -2.47    3.33
  -5  -5 -11   -1.57    5.75
   5  -5  11    7.24    5.56
   5  -5  11    5.49    4.80
   6  -5  11   41.09   11.24
  -6  -5 -11   43.97   12.07
   6  -5  11   56.01   12.94
   7  -5  11  207.05   23.89
   7  -5  11  189.95   23.74
  -7  -5 -11  200.03   25.35
   8  -5  11   68.18   14.22
  -8  -5 -11   79.39   17.54
   8  -5  11   84.51   16.26
  18   0 -12   57.18   13.35
 -18   0  12   70.54   14.02
  18   0 -12   64.54   12.86
  17   0 -12   -1.12    2.98
  17   0 -12    2.43    5.21
  16   0 -12  845.30   43.33
  15   0 -12    1.28    2.62
  15   0 -12   -0.18    2.11
 -15   0  12    0.62    2.07
 -14   0  12  899.55   39.95
  14   0 -12  863.13   41.03
  14   0 -12  803.63   39.92
  13   0 -12    4.04    1.68
  13   0 -12    0.42    1.59
 -13   0  12   -1.31    1.60
  12   0 -12    2.92    1.49
  12   0 -12    2.99    1.84
  11   0 -12    0.21    1.40
  11   0 -12    3.11    1.42
 -10   0  12 1180.41   34.98
  10   0 -12 1191.62   46.79
  10   0 -12 1152.74   45.46
 -10   0  12 1131.84   38.57
  -9   0  12    1.84    1.04
  -9   0  12    2.47    1.03
   9   0 -12   -1.52    1.22
   9   0 -12   -1.54    1.10
   8   0 -12  158.00   13.22
  -8   0  12  147.45    9.36
  -8   0  12  137.16    8.99
   8   0 -12  136.59   12.46
  -7   0  12   -0.32    1.07
   7   0 -12    3.18    1.87
  -7   0  12    0.50    0.89
   7   0 -12    2.83    1.41
  -6   0  12    1.97    1.29
  -6   0  12    2.70    0.97
   6   0 -12    3.30    1.80
   6   0 -12    2.76    1.36
   5   0 -12    1.20    1.45
  -5   0  12    0.59    0.71
   5   0 -12   -0.68    1.59
  -5   0  12    0.07    0.99
   5   0 -12    1.86    1.19
   4   0 -12  181.77   12.97
   4   0 -12  198.92    9.54
  -4   0  12  185.86    8.55
  -4   0  12  166.44   12.15
   4   0 -12  180.95   13.52
   3   0 -12    4.22    1.75
   3   0 -12   -1.28    1.30
   3   0 -12    2.00    1.43
  -3   0  12   -0.35    0.73
  -2   0  12 1943.11   64.44
   2   0 -12 2027.48   63.02
   2   0 -12 2060.42   63.03
   2   0 -12 2068.46   56.39
   2   0 -12 2127.31   56.42
   1   0 -12    4.19    1.88
   1   0 -12   -0.82    1.26
   1   0 -12    2.73    1.29
  -1   0  12    1.83    1.38
   1   0 -12    2.54    1.09
   0   0  12 1762.77   60.37
   0   0 -12 1960.78   49.53
   0   0 -12 1799.90   51.92
   0   0 -12 1913.07   58.14
  -1   0 -12    1.37    0.97
   1   0  12   -0.53    0.90
  -1   0 -12    6.00    2.56
  -1   0 -12    1.04    0.97
  -2   0 -12  320.38   16.98
  -2   0 -12  317.40   15.47
   2   0  12  322.10   19.39
   2   0  12  321.04   18.35
  -3   0 -12   -0.72    1.01
   3   0  12   -0.19    0.98
  -3   0 -12   -1.90    0.95
   3   0  12   -0.33    0.92
   4   0  12  962.81   40.33
  -4   0 -12 1029.71   35.46
  -4   0 -12  980.48   33.95
   4   0  12  956.41   37.72
  -5   0 -12   -0.84    1.02
   5   0  12    0.12    1.17
  -5   0 -12   -0.45    1.10
   5   0  12    0.07    1.05
  -6   0 -12  500.46   22.77
  -6   0 -12  498.89   22.04
   6   0  12  500.68   27.35
   6   0  12  466.84   24.95
   7   0  12    0.80    1.02
  -7   0 -12   -0.30    1.22
  -7   0 -12   -1.67    1.29
   7   0  12   -1.21    1.20
  -8   0 -12    1.09    1.33
  -8   0 -12    1.60    1.39
   8   0  12    0.38    1.24
  -8   0 -12    2.61    1.69
   8   0  12    1.68    1.29
  -9   0 -12   -0.07    1.37
   9   0  12    1.44    1.44
  -9   0 -12    0.10    1.58
   9   0  12    0.75    1.44
 -10   0 -12   18.06    4.88
 -10   0 -12   13.05    3.73
  10   0  12   10.20    4.03
  10   0  12   20.02    5.66
 -11   0 -12    0.71    1.65
  11   0  12    0.13    1.60
 -11   0 -12    2.29    1.82
  11   0  12    2.06    1.94
  12   0  12  339.68   24.54
 -12   0 -12  342.05   22.70
 -12   0 -12  314.72   23.25
  12   0  12  286.38   20.98
 -13   0 -12   -2.35    2.29
  13   0  12   -3.33    1.97
  13   0  12    1.66    2.22
 -13   0 -12    0.69    2.13
 -14   0 -12  233.72   20.28
  14   0  12  237.58   20.12
  14   0  12  208.84   18.52
 -14   0 -12  198.92   20.60
  15   0  12    1.68    4.19
  15   0  12    0.60    4.01
 -15   0 -12   -2.71    4.78
 -15   0 -12   -0.21    3.53
  16   0  12   57.36   12.56
  16   0  12   59.76   12.16
 -16   0 -12   78.38   15.89
 -16   0 -12   55.44   12.25
  18  -1 -12  154.65   19.72
  18   1 -12  171.99   21.03
  17   1 -12  114.02   16.97
  17   1 -12  107.16   17.09
 -17  -1  12  139.09   17.93
  17  -1 -12  107.46   17.11
  17  -1 -12  155.67   21.87
  16  -1 -12   28.98    9.81
  16   1 -12   18.11    7.28
 -16  -1  12   21.75    5.45
  16   1 -12   24.58    7.80
  16  -1 -12   13.57    5.64
 -16  -1  12   26.16    3.66
  15   1 -12   33.86    7.91
  15  -1 -12   42.21    7.82
  15  -1 -12   33.27   10.00
 -15  -1  12   34.47    5.95
  15   1 -12   36.81    9.82
 -15  -1  12   45.79    8.27
  14   1 -12  274.84   19.84
 -14  -1  12  249.89   17.57
 -14  -1  12  246.90   18.26
  14  -1 -12  256.62   20.32
  14  -1 -12  261.13   21.49
  14   1 -12  241.45   19.66
 -13  -1  12  566.79   28.39
 -13  -1  12  555.77   28.83
  13   1 -12  516.80   28.96
  13  -1 -12  607.06   33.08
  13   1 -12  501.42   29.42
  13  -1 -12  577.58   33.24
  12  -1 -12 1068.34   46.86
  12   1 -12  933.32   42.57
  12  -1 -12 1005.37   45.21
  12   1 -12  944.92   42.34
 -12  -1  12 1033.31   41.04
  11   1 -12  449.42   26.33
  11   1 -12  448.04   25.89
 -11  -1  12  456.27   20.72
 -11  -1  12  492.81   25.09
  11  -1 -12  489.91   28.42
  11  -1 -12  491.94   28.51
 -10  -1  12  189.41   12.26
  10   1 -12  224.60   16.45
 -10  -1  12  202.95   14.37
 -10   1  12  210.83   12.31
  10  -1 -12  212.93   17.05
  10   1 -12  184.01   15.37
  10  -1 -12  205.89   16.94
  -9  -1  12    2.40    1.28
   9   1 -12    0.05    1.43
   9  -1 -12   -0.92    1.48
  -9  -1  12   -0.52    1.23
   9  -1 -12    2.33    1.50
  -9   1  12   -0.14    0.95
   9   1 -12   -0.13    1.13
  -8  -1  12   99.30    8.55
  -8   1  12   91.62    5.77
  -8  -1  12   77.75    7.81
   8   1 -12   77.73   10.79
   8  -1 -12   76.41   11.57
   8   1 -12   74.06   10.52
  -8   1  12   74.55    6.11
   8  -1 -12   83.77   11.38
  -7  -1  12    0.64    1.11
   7   1 -12    1.52    1.30
   7  -1 -12    1.31    1.89
   7   1 -12   -1.23    1.24
  -7   1  12    2.80    0.97
  -7   1  12    2.47    0.84
  -7  -1  12    1.73    1.32
   7  -1 -12    0.11    1.18
  -6   1  12   28.77    4.53
   6   1 -12   29.71    6.28
  -6  -1  12   29.90    5.36
   6  -1 -12   22.18    5.30
   6  -1 -12   28.96    6.52
   6   1 -12   27.36    5.89
   5  -1 -12   67.60    9.56
   5   1 -12   73.72    9.95
   5   1 -12   68.98    9.60
  -5  -1  12   85.39    7.52
  -5   1  12   69.61    6.44
  -5  -1  12   71.95   10.41
   5  -1 -12   81.70   11.42
   4  -1 -12  285.95   17.11
  -4   1  12  271.82   14.62
   4  -1 -12  267.82   17.88
  -4  -1  12  267.16   14.12
  -4  -1  12  289.93   18.74
   4   1 -12  255.83   16.18
  -3  -1  12  145.96   12.76
  -3  -1  12  170.16   10.59
   3  -1 -12  181.80   14.07
  -3   1  12  177.13   11.62
   3  -1 -12  153.57   11.72
   3   1 -12  161.21   12.12
  -3  -1  12  173.71   12.52
   2  -1 -12   48.76    7.19
  -2  -1  12   43.97    8.20
   2  -1 -12   32.74    5.64
  -2  -1  12   42.21    7.28
   2  -1 -12   47.95    8.11
  -2   1  12   41.60    6.55
  -2  -1  12   41.99    3.91
   2   1 -12   38.18    6.60
  -1  -1  12   85.29   10.05
   1  -1 -12   81.27    7.89
  -1   1  12   83.90    8.19
  -1  -1  12   90.08    5.66
   1  -1 -12   92.69    8.34
  -1  -1  12   91.25    9.65
   1   1 -12   87.78    8.20
   0  -1 -12 1016.85   38.89
   0   1 -12 1059.62   29.65
   0  -1  12 1072.43   29.75
   0  -1  12 1025.81   42.22
   0  -1 -12  951.73   35.87
   0   1 -12 1039.08   36.17
   0  -1 -12 1027.85   36.22
   0  -1  12 1034.28   38.77
  -1   1 -12 1404.93   44.32
   1  -1  12 1323.68   51.32
  -1  -1 -12 1415.12   37.69
  -1  -1 -12 1368.62   47.55
   1  -1  12 1349.71   47.53
  -1  -1 -12 1377.12   44.82
  -1  -1 -12 1233.68   43.40
  -1   1 -12 1375.70   37.92
  -1  -1 -12 1444.70   34.72
  -2   1 -12 1393.14   38.89
   2  -1  12 1390.65   52.52
  -2   1 -12 1389.13   43.38
  -2  -1 -12 1179.18   42.03
  -2  -1 -12 1436.95   40.62
   2  -1  12 1396.27   48.87
  -2  -1 -12 1417.97   48.17
  -2  -1 -12 1434.63   46.10
  -3   1 -12  537.50   19.45
  -3  -1 -12  556.09   21.10
  -3  -1 -12  461.07   19.39
   3  -1  12  533.47   26.19
   3  -1  12  547.62   28.40
  -3  -1 -12  517.46   25.02
  -3  -1 -12  495.61   23.41
  -4   1 -12  115.81    8.16
  -4  -1 -12  110.76    6.88
  -4  -1 -12  146.76   12.09
  -4  -1 -12  114.06   10.22
  -4   1 -12  126.34    8.22
  -4  -1 -12  128.75    9.41
   4  -1  12  124.20   11.57
   4  -1  12  129.93   12.69
  -5  -1 -12    1.37    1.38
  -5  -1 -12    5.20    0.96
  -5  -1 -12    1.89    1.43
   5  -1  12    1.78    1.70
   5  -1  12    7.32    2.60
  -5  -1 -12    1.63    1.89
  -5   1 -12    4.30    1.48
   5   1  12    7.04    2.84
  -6  -1 -12   40.52    7.06
   6  -1  12   37.77    8.26
  -6   1 -12   51.05    6.88
   6   1  12   54.11    8.57
  -6   1 -12   40.16    4.07
  -6  -1 -12   31.82    6.14
   6  -1  12   47.37    8.73
  -6  -1 -12   37.89    7.08
  -7  -1 -12   90.39    9.67
   7   1  12   81.81   10.82
  -7   1 -12   94.99    8.41
   7  -1  12  107.24   13.41
   7  -1  12   87.76   13.12
  -7  -1 -12   97.40   12.02
  -7   1 -12   85.59    6.28
  -7  -1 -12   68.82    9.57
  -8   1 -12   21.30    4.24
   8   1  12   25.25    5.62
  -8  -1 -12   25.34    5.14
  -8  -1 -12   17.14    4.67
   8  -1  12   27.72    7.38
   8  -1  12   16.38    5.08
  -8  -1 -12   26.77    5.95
  -9  -1 -12   11.72    2.66
   9  -1  12   13.13    4.29
   9  -1  12    9.85    2.95
  -9  -1 -12    6.94    2.17
   9   1  12    3.94    1.55
  -9   1 -12    7.22    2.13
 -10  -1 -12   24.20    6.15
  10  -1  12   37.70    8.12
 -10  -1 -12   29.67    6.48
  10  -1  12   18.22    6.20
 -10   1 -12   23.82    4.98
  10   1  12   33.77    6.98
 -11  -1 -12   12.47    4.06
 -11  -1 -12    9.16    2.63
  11  -1  12    3.69    2.24
 -11   1 -12   12.00    3.21
  11   1  12    7.55    2.50
  11  -1  12    5.74    2.20
  12  -1  12    4.06    2.29
  12   1  12    1.15    1.94
 -12   1 -12   -1.76    2.10
 -12  -1 -12    0.38    2.29
  12  -1  12   -0.54    1.75
 -12  -1 -12    4.15    2.56
 -13  -1 -12   12.36    4.55
 -13  -1 -12   25.14    6.35
 -13   1 -12   15.42    4.88
  13  -1  12   18.23    6.29
  13  -1  12   17.31    3.85
  13   1  12   16.24    3.64
 -13   1 -12   23.36    5.32
  14   1  12  156.67   14.06
 -14  -1 -12  162.50   20.85
 -14  -1 -12  172.48   22.26
 -14   1 -12  169.67   18.24
 -14   1 -12  159.47   14.71
  14  -1  12  164.04   16.51
  14  -1  12  178.69   20.75
 -15   1 -12  214.17   21.12
 -15   1 -12  214.68   19.72
 -15  -1 -12  180.42   23.80
  15  -1  12  199.82   20.68
 -15  -1 -12  238.47   22.57
  15  -1  12  184.41   21.99
  16  -1  12  163.93   20.30
 -16   1 -12  209.45   19.68
 -16  -1 -12  141.22   21.82
 -17  -2  12  295.56   25.33
  17   2 -12  288.50   23.00
  16  -2 -12    9.43    6.15
  16   2 -12    3.73    3.39
 -16  -2  12    0.46    4.15
  16   2 -12    8.91    5.64
  16  -2 -12    5.55    5.80
  15   2 -12 1061.58   47.61
  15  -2 -12 1012.72   50.08
 -15  -2  12 1027.48   49.20
  15   2 -12 1031.92   49.59
  15  -2 -12 1126.45   53.78
  14   2 -12   14.21    6.92
  14  -2 -12   29.52    6.19
 -14  -2  12   12.78    4.04
  14   2 -12   20.01    5.78
  14  -2 -12   13.09    6.32
  13   2 -12  121.96   16.02
  13  -2 -12  148.42   15.08
 -13  -2  12  149.10   14.37
  13   2 -12  131.61   13.46
 -13  -2  12  121.03   10.50
  12   2 -12   -3.07    1.63
  12  -2 -12   -0.83    2.19
  12  -2 -12   -0.05    2.26
  12   2 -12    0.25    1.90
 -12  -2  12    1.90    2.05
 -12  -2  12    0.54    1.64
  11   2 -12  234.32   18.25
  11  -2 -12  236.84   20.02
  11  -2 -12  211.46   19.40
 -11  -2  12  224.47   15.46
  11   2 -12  230.58   17.82
 -11  -2  12  235.17   18.09
  10  -2 -12   23.34    5.64
  10   2 -12   12.20    3.96
  10   2 -12    7.51    2.40
  10  -2 -12   22.47    6.36
 -10  -2  12   15.42    4.09
 -10  -2  12   16.04    3.59
   9  -2 -12  571.76   32.85
   9  -2 -12  560.84   32.34
   9   2 -12  592.32   29.96
  -9  -2  12  561.25   27.18
  -9  -2  12  573.34   29.09
   9   2 -12  570.54   29.77
   8   2 -12   -0.42    1.78
   8   2 -12    1.83    1.47
   8  -2 -12    1.48    2.11
  -8  -2  12    1.32    1.50
  -8  -2  12    1.94    1.39
  -8  -2  12    0.09    1.33
   8  -2 -12   -0.78    1.69
  -7  -2  12    5.99    1.86
  -7  -2  12    7.56    2.60
   7  -2 -12    9.89    3.66
   7  -2 -12    9.98    3.48
   7   2 -12    9.53    3.06
  -7  -2  12   10.38    2.75
  -7   2  12   10.29    1.74
   6  -2 -12    7.64    3.01
   6   2 -12    3.64    1.60
  -6  -2  12   12.87    3.61
  -6   2  12    5.29    1.43
  -6  -2  12   11.31    2.63
  -6  -2  12   11.43    3.31
   6  -2 -12    7.04    2.70
  -5   2  12    7.89    2.16
   5   2 -12    2.31    1.58
  -5  -2  12    1.20    1.43
  -5  -2  12    3.97    1.57
   5  -2 -12   -2.80    1.29
  -5  -2  12    0.31    1.30
   4   2 -12    3.07    1.33
  -4  -2  12    0.67    1.05
   4  -2 -12   -2.14    1.26
  -4  -2  12   -0.31    1.09
  -4  -2  12    1.49    1.21
   4  -2 -12    2.40    1.48
  -4   2  12    1.05    0.93
  -3  -2  12  692.12   30.32
   3  -2 -12  688.02   31.21
   3  -2 -12  714.09   33.34
   3  -2 -12  705.16   30.51
   3   2 -12  641.85   28.34
  -3  -2  12  713.86   35.95
  -3  -2  12  697.83   29.43
  -2  -2  12   34.09    6.60
   2   2 -12   18.13    4.16
   2  -2 -12   22.19    4.52
  -2  -2  12   26.23    7.08
   2  -2 -12   29.85    6.53
   2  -2 -12   23.48    5.43
   1  -2 -12 1773.32   61.75
   1  -2 -12 1838.13   57.48
   1  -2 -12 1724.42   57.51
   1   2 -12 1786.98   55.35
  -1  -2  12 1842.86   59.63
  -1  -2  12 1785.62   67.53
   0   2 -12   13.28    3.21
   0  -2  12   12.57    3.61
   0  -2 -12   19.55    3.90
   0  -2 -12   18.51    5.07
   0  -2 -12    6.52    2.76
   0  -2  12   24.08    6.90
  -1  -2 -12  234.26   17.19
   1  -2  12  234.93   16.60
  -1  -2 -12  237.99   12.33
   1  -2  12  194.31   17.51
  -1   2 -12  234.67   13.12
  -1  -2 -12  221.90   15.78
  -2  -2 -12    2.40    1.77
  -2  -2 -12    3.96    0.97
  -2   2 -12    4.98    1.65
  -2  -2 -12    4.95    2.52
   2  -2  12    4.40    2.52
  -2  -2 -12    5.53    0.94
   2  -2  12    5.34    2.68
  -3   2 -12  573.70   18.04
  -3  -2 -12  613.98   17.62
   3  -2  12  583.59   33.46
  -3  -2 -12  584.05   29.97
  -3  -2 -12  573.18   19.67
   3  -2  12  546.93   28.59
  -3   2 -12  538.62   20.98
  -3  -2 -12  620.65   29.12
  -4  -2 -12   22.88    4.09
  -4  -2 -12   19.36    5.10
  -4   2 -12   21.71    3.19
   4  -2  12   30.39    8.12
  -4  -2 -12   25.96    5.85
   4  -2  12   32.56    7.09
  -5  -2 -12 1056.64   37.74
  -5   2 -12  998.72   31.98
   5  -2  12 1030.03   49.00
  -5  -2 -12 1073.59   43.77
   5  -2  12 1006.84   43.01
  -5  -2 -12 1003.10   41.59
  -6   2 -12   -0.23    1.14
  -6  -2 -12   -0.64    1.55
   6  -2  12    6.33    2.08
   6  -2  12   -0.31    1.75
  -6  -2 -12    2.12    1.39
  -6  -2 -12    0.19    1.59
   7   2  12   33.65    6.73
  -7  -2 -12   15.64    4.47
   7  -2  12   14.97    5.42
   7  -2  12   32.44    7.85
  -7  -2 -12   18.34    4.21
  -7   2 -12   29.34    4.16
  -7  -2 -12   19.47    4.16
   8  -2  12    3.17    1.87
  -8  -2 -12   -1.75    2.12
  -8   2 -12    0.76    1.41
  -8  -2 -12    1.44    1.92
   8  -2  12   -0.05    1.42
   8   2  12   -0.25    1.28
  -8  -2 -12   -0.44    1.83
   9  -2  12   -1.02    1.62
   9   2  12    0.99    1.46
  -9   2 -12    1.83    1.49
  -9  -2 -12    1.23    1.91
   9  -2  12    2.29    2.20
  -9  -2 -12    0.88    2.21
  -9  -2 -12    0.49    2.04
 -10  -2 -12   -0.23    2.06
  10  -2  12    5.47    2.21
 -10   2 -12    1.08    1.70
 -10  -2 -12   -1.44    2.36
  10   2  12    2.08    1.60
  10  -2  12    6.66    2.65
  11   2  12  119.34   11.23
  11  -2  12  132.35   17.59
 -11   2 -12  132.06   10.87
  11  -2  12  124.36   18.86
 -11  -2 -12  136.29   17.39
 -11  -2 -12  123.28   13.50
 -12  -2 -12   10.29    3.42
 -12  -2 -12   -1.05    3.49
  12  -2  12    5.06    4.95
  12   2  12    9.44    2.23
 -12   2 -12    5.29    2.33
  12  -2  12    3.68    3.11
 -13  -2 -12  203.02   22.61
 -13   2 -12  240.89   16.45
  13  -2  12  209.85   20.73
 -13  -2 -12  198.02   19.98
  14  -2  12    1.93    3.67
 -14  -2 -12   -0.57    4.69
 -14  -2 -12   -4.41    4.50
  14  -2  12    2.86    4.30
 -14   2 -12   -5.21    2.72
 -15  -2 -12   15.70    7.13
  16   3 -12    2.06    4.36
  15   3 -12   21.04    7.31
  15  -3 -12    6.89    6.69
 -15  -3  12   15.54    7.71
  14   3 -12  138.53   18.88
 -14  -3  12  145.76   20.63
  14   3 -12  150.79   18.20
  14  -3 -12  117.92   19.63
  14  -3 -12  123.04   20.24
  13  -3 -12  547.64   36.66
  13  -3 -12  674.34   40.53
  13   3 -12  602.35   34.04
 -13  -3  12  616.69   30.73
  13   3 -12  560.25   34.52
 -13  -3  12  672.00   39.02
  12  -3 -12  240.37   22.18
 -12  -3  12  259.11   21.47
  12   3 -12  231.95   20.73
 -12  -3  12  259.43   18.58
  12   3 -12  277.01   20.66
  12  -3 -12  204.47   19.73
  11  -3 -12  342.30   26.21
 -11  -3  12  378.68   23.17
  11   3 -12  362.44   24.10
 -11  -3  12  350.53   25.23
  11  -3 -12  356.18   26.58
 -10  -3  12  116.34   15.87
  10  -3 -12   69.66   11.98
  10  -3 -12  135.17   18.08
  10   3 -12   96.11   13.91
 -10  -3  12  108.99   14.02
  -9  -3  12    9.50    3.12
   9  -3 -12   -0.22    2.23
   9  -3 -12    6.48    2.26
  -9  -3  12    0.31    2.05
   8  -3 -12    5.72    2.98
  -8  -3  12    8.25    2.82
   8  -3 -12    8.50    3.63
  -8  -3  12    2.84    2.44
   7  -3 -12   10.67    3.37
  -7  -3  12    6.30    2.70
   7  -3 -12   13.78    4.12
  -7  -3  12    5.19    1.87
  -6  -3  12    0.20    1.67
   6  -3 -12    1.15    2.05
   6  -3 -12    1.04    1.75
   6   3 -12   -1.27    1.42
  -6  -3  12   -1.58    1.52
  -5  -3  12  102.72    8.71
  -5  -3  12   83.19   12.54
   5  -3 -12   94.32   14.11
   5  -3 -12   76.02   11.20
  -5  -3  12   72.97   11.46
   5   3 -12   83.18   10.83
  -4  -3  12   86.17   12.09
   4  -3 -12  104.00    9.86
   4   3 -12   97.73    9.35
   4  -3 -12  112.37   15.10
  -4  -3  12  100.25   13.50
  -4  -3  12  116.73    9.80
   3  -3 -12  164.66   12.50
   3   3 -12  158.68   12.18
   3  -3 -12  146.77   14.47
  -3  -3  12  156.14   12.51
  -3  -3  12  160.08   14.39
  -3  -3  12  152.63   13.78
  -2  -3  12    1.37    1.52
   2   3 -12    1.99    1.35
   2  -3 -12    1.31    1.60
   2  -3 -12    0.98    1.70
   2  -3 -12   -0.67    1.26
  -2  -3  12    1.12    1.42
  -2  -3  12    1.84    1.52
  -1  -3  12   62.10   10.20
   1  -3 -12   58.06   10.95
   1  -3 -12   67.19   10.44
   1  -3 -12   60.88    7.56
  -1  -3  12   75.84   10.55
   1   3 -12   56.59    7.53
   0  -3 -12  281.47   21.31
   0  -3 -12  296.35   14.87
   0  -3  12  301.42   19.99
   0   3 -12  283.54   15.42
   0  -3 -12  255.48   18.80
   1  -3  12 1075.68   44.13
  -1  -3 -12 1037.52   46.60
  -1  -3 -12 1006.89   42.88
  -1   3 -12 1022.39   35.35
   1  -3  12 1071.46   52.00
  -1  -3 -12 1080.29   33.39
  -2  -3 -12  449.91   27.89
   2  -3  12  452.72   26.22
   2  -3  12  433.12   30.68
  -2   3 -12  428.99   18.41
  -2  -3 -12  454.03   26.53
  -3  -3 -12  653.90   34.85
  -3  -3 -12  621.97   32.37
   3  -3  12  626.33   38.66
   3  -3  12  629.32   32.71
  -4  -3 -12  105.28   14.74
  -4  -3 -12  116.25   15.50
   4  -3  12  122.80   18.88
   4  -3  12   87.66   13.13
   5  -3  12   -2.42    2.20
  -5  -3 -12   -1.76    1.99
   5  -3  12    5.57    2.17
  -5  -3 -12    1.02    1.83
   6  -3  12   18.61    6.18
  -6  -3 -12   18.21    5.00
  -6  -3 -12   26.52    6.80
   6  -3  12   24.48    6.12
   7  -3  12   82.51   13.35
  -7  -3 -12   87.44   13.43
   7  -3  12   63.56   13.76
  -7  -3 -12   81.89   12.72
   8  -3  12   11.21    4.19
   8   3  12    3.09    1.60
  -8  -3 -12    2.05    2.83
   8  -3  12    3.14    3.03
  -8  -3 -12    0.69    2.02
   9  -3  12    7.49    3.71
  -9  -3 -12    3.63    2.51
   9   3  12    3.44    1.75
   9  -3  12    2.43    1.82
  10  -3  12    6.44    4.18
 -10  -3 -12    2.85    4.71
  10   3  12   11.41    2.28
  11  -3  12   15.98    6.86
  11  -3  12   19.19    4.94
 -11  -3 -12   32.53   10.20
  12  -3  12   -0.60    4.33
  12  -3  12    2.62    3.92
 -12  -3 -12    4.79    5.77
 -13  -3 -12   12.44    7.66
  13  -3  12   24.79    9.13
  14   4 -12  363.45   26.19
 -14  -4  12  372.04   26.60
  13   4 -12    7.23    5.29
  13  -4 -12   13.26    8.65
 -13  -4  12   10.56    5.86
 -13  -4  12    9.04    5.41
  12  -4 -12   -5.16    4.56
 -12  -4  12    3.99    5.90
  12   4 -12    1.99    4.98
 -12  -4  12    5.51    5.20
  12  -4 -12    0.54    5.71
  11   4 -12   10.62    6.58
  11  -4 -12    6.23    6.10
  11  -4 -12    7.09    6.39
 -11  -4  12    8.45    6.60
 -11  -4  12    9.60    6.64
 -10  -4  12  344.29   28.55
  10  -4 -12  277.32   24.46
  10  -4 -12  308.13   27.34
 -10  -4  12  291.70   23.80
  -9  -4  12    2.77    4.55
   9  -4 -12    5.36    3.38
  -9  -4  12   10.23    4.45
   9  -4 -12   15.99    5.21
  -8  -4  12  120.43   17.64
   8  -4 -12   96.91   15.59
  -8  -4  12  138.29   17.57
   8  -4 -12  129.05   17.83
  -7  -4  12    0.41    2.20
   7  -4 -12    4.80    2.67
   7  -4 -12   -2.47    2.46
  -7  -4  12    1.23    2.27
  -6  -4  12    0.02    2.34
   6  -4 -12    2.64    2.58
  -6  -4  12    3.33    3.17
   6  -4 -12    4.75    2.64
  -5  -4  12   -2.70    1.97
   5  -4 -12    0.30    2.19
   5  -4 -12    3.16    2.39
  -5  -4  12    1.94    2.15
   4  -4 -12   51.22   10.31
   4  -4 -12   44.34    8.03
  -4  -4  12   72.44   12.46
  -4  -4  12   45.28    9.31
   3  -4 -12    2.99    1.93
  -3  -4  12    0.80    1.88
   3  -4 -12    2.06    2.18
  -3  -4  12   -2.51    1.84
  -3  -4  12    0.45    1.96
   2  -4 -12  718.85   39.72
   2  -4 -12  740.45   31.45
  -2  -4  12  685.52   36.84
   2  -4 -12  696.56   36.42
  -2  -4  12  697.84   31.57
   2   4 -12  668.78   29.40
  -1  -4  12   75.24   12.96
   1  -4 -12   67.09   11.90
   1  -4 -12   39.10    8.86
   1   4 -12   60.19    6.18
   0  -4  12  531.12   31.96
   0  -4 -12  523.38   33.11
   0  -4 -12  577.29   32.68
  -1  -4 -12   12.63    4.30
  -1  -4 -12   10.11    3.31
   1  -4  12    7.51    3.68
   2  -4  12   19.97    6.49
  -2  -4 -12   31.00    7.36
  -2  -4 -12   41.15    9.31
  -3  -4 -12   22.34    6.20
   3  -4  12   37.77    7.40
   3  -4  12   22.69    6.54
  -3  -4 -12   20.82    6.23
   4  -4  12  445.22   29.58
   4  -4  12  454.71   28.18
  -4  -4 -12  427.56   28.44
  -4  -4 -12  435.83   30.04
  -5  -4 -12   11.45    4.99
   5  -4  12   27.08    6.84
   5  -4  12   35.62    7.89
  -6  -4 -12  197.07   19.24
   6  -4  12  185.43   21.18
  -6  -4 -12  162.18   21.39
   6  -4  12  190.68   18.46
   7  -4  12   -1.23    3.36
  -7  -4 -12   -1.74    3.75
   7  -4  12    6.49    2.91
   8  -4  12    6.78    5.24
  -8  -4 -12    0.25    5.47
  -9  -4 -12    7.84    6.66
   9  -4  12    0.66    3.25
 -10  -4 -12   -1.49    7.18
  10  -4  12    2.67    3.98
 -11  -4 -12   -5.02    8.25
  10  -5 -12  112.91   21.96
   9  -5 -12    4.11    4.95
   9  -5 -12   -0.68    6.20
  -9  -5  12    9.58    6.76
   8  -5 -12   26.66    9.99
  -8  -5  12   15.98    6.99
   8  -5 -12   29.50   10.33
  -8  -5  12   34.75   10.87
  -7  -5  12    0.88    4.95
  -7  -5  12    4.84    5.45
   7  -5 -12   -2.49    4.61
   7  -5 -12    6.44    5.07
   6  -5 -12    0.53    4.52
   6  -5 -12   -1.13    3.16
  -6  -5  12    4.53    6.09
  -6  -5  12   -4.03    4.89
  -5  -5  12    8.20    6.67
  -5  -5  12    9.72    6.89
   5  -5 -12   21.37    4.96
   5  -5 -12   21.98    9.10
  -4  -5  12   71.01   15.16
   4  -5 -12   80.21   16.92
  -4  -5  12   78.97   15.96
   3  -5 -12   14.24    7.40
  -3  -5  12   23.85    9.53
  -2  -5  12   19.76    8.50
   2  -5 -12   23.39    9.78
  -1  -5  12   44.96   12.79
   1  -5 -12   33.61   10.59
   1  -5 -12   29.63   10.72
   0  -5 -12  303.19   26.13
   0  -5  12  286.09   25.72
   0  -5 -12  310.45   28.02
   0  -5  12  335.57   21.82
  -1  -5 -12  151.32   22.40
  -1  -5 -12  121.93   18.79
   1  -5  12  143.89   13.34
   1  -5  12  137.96   20.81
  -2  -5 -12  429.73   33.55
  -2  -5 -12  511.33   34.44
   2  -5  12  430.30   32.66
   2  -5  12  492.03   29.96
   3  -5  12   71.59   14.86
  -3  -5 -12   71.81   15.28
  -3  -5 -12   77.01   15.41
   3  -5  12   63.12   12.59
   4  -5  12   47.93   12.68
   4  -5  12   54.62   12.47
  -4  -5 -12   51.01   13.64
  -4  -5 -12   61.59   14.15
  -5  -5 -12   -5.99    5.61
   5  -5  12   -5.37    3.44
   5  -5  12    5.43    5.60
  -6  -5 -12   12.55    8.98
   6  -5  12   22.07    8.21
   6  -5  12   16.58    7.66
  -7  -5 -12   -0.29    7.04
   7  -5  12   -2.12    3.77
   7  -5  12    8.86    6.42
   8  -5  12   15.85    9.01
 -18   0  13   -2.47    6.07
  17   0 -13   29.00    9.07
  17   0 -13   25.06    7.34
  16   0 -13    4.41    5.18
  16   0 -13    3.00    3.61
  15   0 -13    1.79    4.87
  15   0 -13    6.34    4.33
  14   0 -13   -0.37    1.99
  14   0 -13    0.22    2.06
  13   0 -13   63.53   10.78
  13   0 -13   48.39    8.78
  12   0 -13    1.18    1.87
  12   0 -13    2.23    1.73
 -12   0  13   -1.55    1.55
  11   0 -13   29.33    6.37
 -11   0  13   45.77    6.40
  11   0 -13   42.22    8.02
 -10   0  13    0.99    1.23
  10   0 -13    1.66    1.72
  10   0 -13    0.63    1.43
   9   0 -13 1504.27   56.24
   9   0 -13 1540.31   55.94
  -9   0  13 1571.43   45.02
  -9   0  13 1528.80   46.44
   8   0 -13    0.82    1.15
  -8   0  13    1.67    1.16
   8   0 -13    2.15    1.59
  -7   0  13 2266.46   61.48
  -7   0  13 2354.88   73.07
   7   0 -13 2238.97   73.57
   7   0 -13 2301.53   73.68
  -6   0  13   -1.18    1.12
   6   0 -13    0.50    1.03
  -6   0  13    3.57    1.07
   6   0 -13    0.16    1.22
  -5   0  13  316.48   12.60
   5   0 -13  287.91   18.85
   5   0 -13  329.29   18.94
  -5   0  13  310.59   18.10
   4   0 -13    1.41    1.08
  -4   0  13   -0.68    0.98
   4   0 -13   -0.98    0.92
   3   0 -13  325.32   18.01
   3   0 -13  300.99   18.46
  -3   0  13  290.31   17.60
   2   0 -13    0.79    1.11
  -2   0  13    1.20    1.04
   2   0 -13    0.43    0.93
   1   0 -13  246.65   13.10
  -1   0  13  242.05   15.90
   1   0 -13  266.86   15.42
   1   0 -13  264.38   16.45
   0   0 -13    7.65    2.74
   0   0 -13   11.38    2.79
   0   0  13    7.58    2.42
   1   0  13   21.01    5.16
  -1   0 -13   28.44    4.89
  -2   0 -13    0.63    1.08
  -2   0 -13    0.41    1.02
   2   0  13    1.00    1.15
   2   0  13   -0.29    0.94
  -3   0 -13   38.61    6.37
  -3   0 -13   39.00    5.97
   3   0  13   50.29    8.85
   3   0  13   36.24    6.91
   4   0  13   -0.04    1.22
   4   0  13   -0.57    0.93
  -4   0 -13   -0.53    1.08
  -4   0 -13    0.91    1.12
   5   0  13 1385.46   50.12
  -5   0 -13 1333.48   44.61
  -5   0 -13 1400.58   46.18
   5   0  13 1362.75   53.09
   6   0  13    0.56    1.18
  -6   0 -13    1.42    1.33
  -6   0 -13    0.07    1.27
   6   0  13    1.62    1.72
   7   0  13 1256.14   51.58
  -7   0 -13 1214.05   42.17
   7   0  13 1224.10   47.87
  -7   0 -13 1308.92   44.59
   8   0  13    0.11    1.44
  -8   0 -13    1.37    1.42
   8   0  13    2.98    1.35
  -8   0 -13    1.28    1.62
  -9   0 -13   87.93   11.88
   9   0  13   69.58   11.74
   9   0  13   83.34   12.34
  -9   0 -13   64.41    9.99
  10   0  13    0.66    1.57
  10   0  13    1.02    1.77
 -10   0 -13   -2.75    1.90
 -10   0 -13   -0.96    1.65
 -11   0 -13  254.15   19.79
  11   0  13  267.59   20.04
  11   0  13  249.25   20.69
 -11   0 -13  261.34   19.12
 -12   0 -13    0.66    2.05
  12   0  13   -0.82    1.93
 -12   0 -13    2.38    2.52
  12   0  13   -4.27    2.03
  13   0  13  171.43   16.82
 -13   0 -13  170.38   16.18
 -13   0 -13  179.61   17.42
  13   0  13  175.82   17.53
 -14   0 -13    4.15    5.62
  14   0  13    1.18    3.49
 -14   0 -13    2.72    3.89
  14   0  13    5.40    4.63
  15   0  13   14.84    7.25
 -15   0 -13   14.54    6.40
  15   0  13    6.62    5.13
 -15   0 -13   13.22    6.54
  16   0  13   -0.34    4.41
  16   0  13    4.00    5.99
 -16   0 -13    4.59    5.03
  17  -1 -13   61.42   12.45
  17   1 -13   56.06   11.96
  17  -1 -13   85.23   16.30
  17   1 -13   56.53   12.44
  16   1 -13    2.64    5.03
  16  -1 -13    6.98    5.27
  16  -1 -13   15.83    7.87
  16   1 -13    2.63    3.01
 -15  -1  13    7.97    2.50
  15  -1 -13    4.79    5.89
  15  -1 -13    2.19    3.63
  15   1 -13    4.13    4.81
  15   1 -13    0.01    3.70
 -14  -1  13    9.79    3.20
  14   1 -13    8.39    3.01
  14  -1 -13    9.08    3.06
  14  -1 -13    3.95    3.43
 -14  -1  13    6.63    2.42
  14   1 -13    7.67    4.72
 -13  -1  13   10.89    2.69
  13   1 -13    9.36    3.33
  13  -1 -13   11.99    2.44
  13  -1 -13   10.52    2.96
  13   1 -13   12.28    3.51
  12   1 -13  129.99   13.05
  12   1 -13  100.81   14.27
  12  -1 -13  129.51   13.84
  12  -1 -13  133.28   16.35
 -12  -1  13  125.45   11.52
  11  -1 -13  568.20   31.43
  11   1 -13  475.84   28.47
 -11  -1  13  538.78   23.29
  11   1 -13  533.55   29.16
 -11  -1  13  532.07   26.22
  11  -1 -13  557.76   31.14
  10   1 -13  561.82   30.11
 -10  -1  13  565.76   26.50
 -10  -1  13  558.87   24.21
  10   1 -13  553.30   28.99
  10  -1 -13  538.94   30.20
  10  -1 -13  542.83   30.49
  -9  -1  13  475.04   22.88
   9   1 -13  444.52   25.88
  -9  -1  13  471.10   21.91
   9  -1 -13  446.39   26.84
   9   1 -13  440.13   25.18
   9  -1 -13  506.55   27.75
   8   1 -13   18.75    4.44
   8  -1 -13   29.03    6.45
  -8   1  13   28.71    4.67
   8  -1 -13   31.36    7.19
   8   1 -13   21.59    5.42
  -8  -1  13   35.97    6.22
  -8  -1  13   27.53    5.07
  -7  -1  13  125.12   10.14
  -7  -1  13  116.80    9.39
   7   1 -13   87.60   11.90
   7  -1 -13  123.44   12.45
   7   1 -13  136.46   12.27
  -7   1  13  125.35    8.97
   7  -1 -13  123.54   11.85
   6   1 -13  392.58   22.55
  -6  -1  13  406.30   19.37
  -6   1  13  446.18   20.08
   6  -1 -13  426.97   25.24
   6  -1 -13  388.21   22.56
   6   1 -13  442.90   23.67
  -6  -1  13  417.19   24.26
   5   1 -13  926.90   37.82
   5   1 -13  995.25   39.16
  -5  -1  13  949.41   33.22
  -5  -1  13  946.21   40.86
   5  -1 -13  957.13   38.57
   5  -1 -13  954.09   40.38
  -5   1  13  947.16   34.85
  -4  -1  13  865.72   38.11
  -4  -1  13  866.62   30.13
  -4   1  13  820.65   31.91
   4  -1 -13  832.80   36.62
   4   1 -13  837.64   34.55
   4  -1 -13  815.30   34.45
   3  -1 -13  451.21   25.22
  -3  -1  13  492.04   26.59
  -3  -1  13  499.80   24.39
  -3   1  13  509.88   22.88
   3  -1 -13  490.27   24.09
   3   1 -13  484.55   23.92
   2  -1 -13   32.16    6.08
  -2  -1  13   35.22    6.68
   2   1 -13   21.69    4.95
  -2   1  13   42.53    6.92
   2  -1 -13   33.11    5.81
   2  -1 -13   37.07    7.50
  -2  -1  13   27.40    6.52
   1  -1 -13    1.39    1.08
   1   1 -13    1.36    1.19
  -1  -1  13   -1.23    0.86
  -1  -1  13   -1.61    1.05
   1  -1 -13    1.98    1.28
  -1   1  13    0.00    0.96
   1  -1 -13   -0.27    1.19
   0   1  13    1.29    1.12
   0  -1  13    2.00    1.84
   0  -1 -13    1.09    1.34
   0  -1  13    0.08    0.97
   0   1 -13    1.76    0.85
   0   1 -13    1.58    1.20
   0  -1 -13    0.99    1.35
   0  -1 -13    0.21    1.08
  -1   1 -13    1.13    0.83
   1   1  13    0.99    1.02
  -1  -1 -13    3.17    1.51
   1  -1  13    2.54    1.45
  -1   1 -13    0.26    0.95
   1  -1  13    0.55    1.43
  -1  -1 -13    2.75    1.85
  -1  -1 -13    0.90    1.05
   2  -1  13   54.34    9.67
   2  -1  13   69.66   10.30
  -2   1 -13   60.57    4.98
  -2  -1 -13   67.54    4.63
  -2  -1 -13   53.22    8.03
  -2  -1 -13   60.76    9.28
  -2  -1 -13   68.83    6.18
  -2   1 -13   65.28    6.54
   3  -1  13  375.05   22.53
  -3  -1 -13  413.21   22.51
   3  -1  13  419.17   25.20
  -3  -1 -13  384.39   17.39
  -3   1 -13  422.59   18.90
  -3   1 -13  418.67   17.08
  -3  -1 -13  445.07   17.85
  -3  -1 -13  446.99   22.07
  -4   1 -13  432.54   18.29
   4  -1  13  421.03   24.19
  -4   1 -13  442.18   19.13
  -4  -1 -13  455.97   20.31
   4  -1  13  458.34   26.88
  -4  -1 -13  453.64   17.56
  -4  -1 -13  438.37   22.73
  -4  -1 -13  461.96   24.31
  -5   1 -13  269.49   14.06
  -5  -1 -13  252.01   17.26
   5  -1  13  269.88   20.20
   5   1  13  277.53   18.05
  -5  -1 -13  305.47   16.91
   5  -1  13  254.34   18.21
  -5  -1 -13  278.86   17.69
  -5   1 -13  280.52   13.94
   6   1  13    0.41    1.01
  -6  -1 -13    0.73    1.42
   6  -1  13    0.82    1.42
  -6   1 -13    0.00    1.24
  -6  -1 -13    0.97    1.49
  -6  -1 -13   -1.18    1.30
   6  -1  13   -0.70    1.29
   7  -1  13  115.32   14.29
   7  -1  13  131.30   13.95
  -7  -1 -13  126.93   11.41
  -7  -1 -13  135.39   11.94
  -7   1 -13  141.00   10.51
  -7  -1 -13  129.60   12.01
   7   1  13  136.91   12.44
  -8  -1 -13  324.60   19.61
  -8  -1 -13  309.34   20.68
   8   1  13  282.08   19.63
   8  -1  13  303.76   21.55
   8  -1  13  347.20   24.34
  -8  -1 -13  310.64   20.31
  -8   1 -13  321.92   18.24
  -9  -1 -13  595.77   30.26
  -9  -1 -13  579.01   28.11
  -9  -1 -13  607.73   32.24
   9   1  13  562.88   29.54
  -9   1 -13  603.06   27.85
   9  -1  13  571.60   31.91
   9  -1  13  659.18   36.10
  10  -1  13  295.78   22.16
 -10   1 -13  307.92   19.11
  10  -1  13  288.00   23.03
 -10  -1 -13  322.81   22.67
 -10  -1 -13  313.17   21.42
  10   1  13  310.25   20.65
  11  -1  13  198.39   18.89
 -11   1 -13  204.09   15.45
 -11  -1 -13  217.80   18.68
  11   1  13  190.99   16.09
  11  -1  13  189.00   17.43
  12   1  13   26.60    5.92
 -12   1 -13   37.16    6.24
  12  -1  13   30.63    6.94
 -12  -1 -13   26.82    6.74
  12  -1  13   27.67    7.27
 -13   1 -13   25.15    8.34
  13   1  13   21.46    5.15
  13  -1  13   12.24    5.59
  13  -1  13    6.41    2.88
 -13   1 -13   13.77    3.91
 -13  -1 -13   14.70    3.68
 -13  -1 -13   20.38    7.90
 -14  -1 -13   22.91    7.60
  14  -1  13   10.82    6.69
  14   1  13   13.19    5.57
 -14  -1 -13    8.88    6.73
 -14   1 -13   12.79    6.11
  14  -1  13   13.39    7.14
 -14   1 -13   21.80    7.61
 -15   1 -13    2.17    3.71
  15   1  13   -2.60    4.92
  15  -1  13    5.26    5.26
 -15   1 -13    4.62    5.05
 -15  -1 -13   -2.66    5.08
  15  -1  13    0.98    3.67
 -15  -1 -13    4.36    4.50
 -16   1 -13   14.02    6.79
  17  -2 -13    3.48    5.17
 -17  -2  13    4.23    5.06
  16   2 -13   24.99    7.65
  16  -2 -13   18.86    7.97
  16  -2 -13   22.67    7.62
 -16  -2  13    8.23    5.72
 -15  -2  13    0.52    4.00
  15   2 -13    5.02    5.36
  15   2 -13   -1.75    2.52
  15  -2 -13    4.35    6.69
  15  -2 -13   -2.00    3.74
  14   2 -13   32.83    9.23
  14  -2 -13   28.18    8.22
 -14  -2  13   27.51    5.63
  14   2 -13   14.74    6.91
  13   2 -13    2.69    3.41
  13  -2 -13    3.42    2.84
  13   2 -13    2.37    2.56
  13  -2 -13    1.57    3.69
 -13  -2  13    7.33    2.28
  12   2 -13   89.39   12.76
  12   2 -13   91.01   13.66
  12  -2 -13   99.26   16.29
 -12  -2  13   80.48   10.00
  12  -2 -13   83.66   13.85
 -12  -2  13   92.32   12.92
  11   2 -13    0.03    1.71
  11  -2 -13    1.80    2.54
  11   2 -13    0.10    1.67
  11  -2 -13    3.95    2.27
 -11  -2  13    5.17    1.93
 -11  -2  13    3.63    2.25
  10  -2 -13  247.01   21.14
 -10  -2  13  242.27   16.70
  10   2 -13  270.78   19.61
  10  -2 -13  252.69   20.73
 -10  -2  13  240.92   17.98
  10   2 -13  201.41   16.97
  -9  -2  13    9.07    2.80
   9  -2 -13    8.78    3.02
   9   2 -13    4.91    2.23
   9   2 -13    3.48    1.84
   9  -2 -13    6.53    3.16
  -9  -2  13    6.01    2.35
   8   2 -13 1459.25   55.16
  -8  -2  13 1584.24   53.49
  -8  -2  13 1598.41   55.22
   8  -2 -13 1565.73   61.56
   8  -2 -13 1466.72   60.60
   8   2 -13 1514.79   57.28
   7   2 -13   48.62    8.31
   7  -2 -13   62.07   11.09
   7  -2 -13   46.72    9.92
  -7  -2  13   32.54    6.71
  -7  -2  13   52.70    8.64
  -7  -2  13   37.31    6.42
  -6  -2  13 1332.40   46.93
   6  -2 -13 1298.23   52.68
   6   2 -13 1280.90   47.33
   6  -2 -13 1247.40   51.71
  -6  -2  13 1238.11   45.85
  -6   2  13 1258.29   41.18
  -6  -2  13 1146.62   44.60
  -5  -2  13   -0.36    1.25
   5  -2 -13   -0.38    1.68
  -5  -2  13    1.80    1.40
  -5  -2  13   -0.69    1.16
   5   2 -13   -0.57    1.14
  -5   2  13    0.67    1.10
  -4  -2  13   12.93    3.94
   4   2 -13   21.74    4.78
   4  -2 -13   15.74    4.56
  -4  -2  13   21.00    4.89
   4  -2 -13   31.29    7.15
  -4   2  13   18.95    3.74
  -3  -2  13    0.86    1.98
   3  -2 -13    1.52    1.82
   3  -2 -13    0.85    1.44
  -3  -2  13    0.06    1.20
   3  -2 -13    4.43    2.36
  -3  -2  13    0.40    1.29
   3   2 -13    1.90    1.36
  -2  -2  13  383.22   25.88
  -2  -2  13  404.63   22.99
   2  -2 -13  384.33   21.46
   2   2 -13  406.51   20.83
   2  -2 -13  404.38   24.36
   2  -2 -13  403.09   22.12
   1  -2 -13   10.78    3.69
   1   2 -13   17.92    4.24
  -1  -2  13   24.35    7.04
   1  -2 -13   28.05    5.22
  -1  -2  13   16.03    4.31
   1  -2 -13   16.33    4.36
   0  -2  13    1.00    1.60
   0  -2 -13    2.70    2.03
   0   2 -13    2.10    1.51
   0  -2 -13    3.17    1.28
   0  -2 -13    1.71    1.51
   0  -2  13    1.15    1.30
  -1  -2 -13    5.40    2.74
  -1  -2 -13    7.17    3.00
   1  -2  13    5.05    2.76
  -1   2 -13    7.64    1.91
   1  -2  13    7.22    3.06
  -1  -2 -13    5.92    1.45
  -2   2 -13   35.55    5.04
  -2  -2 -13   36.12    7.29
   2  -2  13   36.21    7.34
   2  -2  13   35.13    9.03
  -2  -2 -13   26.84    6.38
  -3  -2 -13    1.58    1.67
   3  -2  13    0.14    1.23
  -3  -2 -13    1.14    1.85
   3  -2  13    1.40    1.92
  -3   2 -13   -0.15    1.06
  -4  -2 -13  194.05   16.33
   4  -2  13  210.09   19.44
  -4   2 -13  199.94   10.41
  -4  -2 -13  218.54   16.61
   4  -2  13  202.46   16.77
  -5  -2 -13    5.11    2.05
  -5  -2 -13    7.82    2.67
   5  -2  13    4.23    1.82
   5  -2  13    8.90    4.05
  -6  -2 -13 1245.59   44.87
  -6  -2 -13 1248.72   50.12
   6  -2  13 1234.89   50.98
  -6  -2 -13 1239.15   49.15
   6  -2  13 1214.55   57.29
   7   2  13   10.52    3.20
  -7  -2 -13   16.14    3.45
   7  -2  13   13.55    5.33
  -7  -2 -13   14.53    4.06
  -7  -2 -13   17.89    5.22
   7  -2  13   21.23    6.28
   8   2  13  451.49   24.72
  -8  -2 -13  449.86   27.16
   8  -2  13  450.11   32.15
  -8  -2 -13  443.40   26.33
  -8  -2 -13  437.07   25.27
   8  -2  13  435.12   27.83
  -9  -2 -13    2.28    2.34
   9  -2  13    2.52    2.01
  -9  -2 -13    0.98    2.17
   9  -2  13    4.76    2.60
  -9  -2 -13    3.38    2.26
   9   2  13    1.61    1.60
  10  -2  13   31.94    7.80
 -10  -2 -13   26.37    4.69
  10   2  13   18.99    3.87
 -10  -2 -13   16.65    4.71
  10  -2  13   13.66    4.81
  11  -2  13   19.35    5.48
 -11  -2 -13   12.00    3.30
  11  -2  13   12.54    6.36
  11   2  13   13.32    2.85
 -11  -2 -13   20.32    5.97
 -12  -2 -13  259.01   23.20
  12   2  13  228.31   16.85
  12  -2  13  258.63   24.01
  12  -2  13  255.40   23.35
 -12  -2 -13  234.69   21.22
 -13  -2 -13   10.00    6.91
 -13  -2 -13   -0.34    3.53
  13  -2  13    0.38    3.98
  13  -2  13    2.43    4.32
 -14  -2 -13   10.86    6.70
  14  -2  13   13.25    7.44
  14  -2  13   13.05    6.60
  15  -3 -13   -3.53    4.94
  15   3 -13   -0.66    4.73
 -15  -3  13   -1.83    3.78
  14  -3 -13    2.99    6.27
  14   3 -13    1.22    4.56
  14  -3 -13    1.88    5.51
  14   3 -13    4.11    4.75
 -14  -3  13   -0.01    4.37
  13   3 -13   15.36    7.17
 -13  -3  13   18.28    4.72
 -13  -3  13    9.39    6.74
  13   3 -13   10.86    5.75
  13  -3 -13   13.87    7.16
  13  -3 -13   23.06    9.30
 -12  -3  13  165.73   19.95
  12  -3 -13  154.43   21.37
  12   3 -13  163.62   19.27
  12   3 -13  194.47   18.62
  12  -3 -13  149.07   21.55
 -12  -3  13  132.69   12.66
 -11  -3  13  245.93   18.48
  11  -3 -13  227.47   21.16
  11   3 -13  259.36   21.32
  11   3 -13  281.34   21.08
 -11  -3  13  256.47   21.19
  11  -3 -13  241.88   21.84
 -10  -3  13  469.43   29.34
 -10  -3  13  473.25   27.24
  10  -3 -13  426.29   30.38
  10   3 -13  444.01   27.29
  10  -3 -13  524.20   32.56
  10   3 -13  440.64   27.75
  -9  -3  13   75.05   11.60
   9   3 -13   77.75   11.32
  -9  -3  13   81.79   12.99
   9  -3 -13   62.74   11.58
   9  -3 -13   75.20   13.41
   8  -3 -13   50.44   10.54
   8   3 -13   40.24    7.24
  -8  -3  13   53.08    9.53
  -8  -3  13   52.08    9.86
   8  -3 -13   54.04   10.35
   7  -3 -13   26.25    6.35
  -7  -3  13   20.71    5.85
   7  -3 -13   26.97    6.53
  -7  -3  13   29.56    6.52
   7   3 -13   13.10    3.53
   6  -3 -13  455.34   27.02
   6  -3 -13  419.35   28.59
  -6  -3  13  450.88   26.80
  -6  -3  13  467.68   27.26
   6   3 -13  430.31   24.38
  -5  -3  13  282.51   20.51
  -5  -3  13  346.88   23.08
   5   3 -13  349.27   20.76
  -5  -3  13  346.79   19.70
   5  -3 -13  351.51   22.24
   5  -3 -13  345.85   24.92
  -4  -3  13  751.20   36.18
  -4  -3  13  696.91   34.07
  -4  -3  13  758.74   33.05
   4  -3 -13  745.36   33.39
   4  -3 -13  700.77   37.75
   4   3 -13  731.12   32.32
  -3  -3  13  174.12   15.66
   3  -3 -13  179.32   13.33
   3   3 -13  148.75   12.18
   3  -3 -13  171.71   16.45
  -3  -3  13  182.09   15.35
  -3  -3  13  167.71   13.77
   2   3 -13   33.97    5.60
  -2  -3  13   30.22    5.81
   2  -3 -13   30.98    5.38
  -2  -3  13   38.59    8.47
   2  -3 -13   27.84    6.89
   2  -3 -13   25.47    6.22
   1  -3 -13    0.80    1.54
   1  -3 -13    0.24    1.60
  -1  -3  13    0.93    1.58
   1  -3 -13    0.84    2.01
   1   3 -13    0.03    1.34
  -1  -3  13    1.53    1.81
   0  -3 -13    8.98    3.28
   0  -3  13    7.97    4.13
   0  -3 -13    7.83    3.42
   0  -3 -13   11.08    2.35
   0   3 -13    6.14    2.12
   0  -3  13    7.80    2.63
   1  -3  13    9.89    2.95
   1  -3  13   14.98    6.03
  -1  -3 -13   16.64    5.12
  -1   3 -13   14.57    2.99
  -1  -3 -13   19.83    5.07
   2  -3  13  109.57   14.51
  -2  -3 -13   98.66   13.84
  -2  -3 -13   98.28   14.85
   2  -3  13  109.38   17.98
   3  -3  13  109.40   14.56
  -3  -3 -13   99.99   14.10
   3  -3  13  113.80   18.46
  -3  -3 -13   94.36   14.34
   4  -3  13  317.88   27.39
  -4  -3 -13  336.35   23.20
   4  -3  13  362.44   24.43
  -4  -3 -13  288.89   22.58
  -5  -3 -13   59.55   10.93
  -5  -3 -13   68.75   12.59
   5  -3  13   58.14   11.57
   5  -3  13   49.18   12.06
   6  -3  13   -1.28    2.78
  -6  -3 -13    0.54    2.24
  -6  -3 -13    6.57    2.66
   6  -3  13    2.24    1.83
  -7  -3 -13   40.08    9.27
   7  -3  13   21.31    5.83
   7  -3  13   31.85    6.92
  -7  -3 -13   26.34    6.13
  -8  -3 -13  280.77   22.22
   8  -3  13  282.94   23.30
   8  -3  13  227.51   24.06
   8   3  13  273.01   18.08
  -8  -3 -13  250.04   20.57
   9  -3  13  143.73   22.59
   9  -3  13  220.01   21.58
   9   3  13  212.94   15.68
  -9  -3 -13  216.30   20.51
 -10  -3 -13  354.20   28.09
  10   3  13  318.29   19.70
  10  -3  13  206.00   22.82
  11  -3  13   69.18   14.96
 -11  -3 -13   79.86   15.43
 -12  -3 -13   25.46    9.28
  12  -3  13   15.64    9.91
  12  -3  13    7.27    5.62
 -13  -4  13   42.81   10.74
  13   4 -13   60.83   12.19
  12  -4 -13    2.62    5.77
 -12  -4  13    4.42    4.95
 -12  -4  13    4.42    5.43
  12   4 -13    5.73    5.12
  12  -4 -13    6.04    9.08
  11  -4 -13    1.54    5.63
 -11  -4  13    0.65    5.52
  11   4 -13   -0.70    4.58
 -11  -4  13   -3.61    3.91
  11  -4 -13   -1.79    5.74
 -10  -4  13    2.93    5.31
 -10  -4  13    0.82    4.92
  10  -4 -13    0.61    5.89
  10  -4 -13   -4.62    4.41
  -9  -4  13  538.24   36.40
   9  -4 -13  613.11   38.15
   9  -4 -13  571.40   39.54
  -9  -4  13  592.47   35.56
  -8  -4  13   46.39   10.04
   8  -4 -13   29.35    6.14
  -8  -4  13   45.82   11.67
   8  -4 -13   43.82   10.03
   7  -4 -13  865.11   44.03
  -7  -4  13  851.86   43.28
   7  -4 -13  912.08   49.00
  -7  -4  13  882.19   44.89
   6  -4 -13   40.84    8.48
   6   4 -13   26.05    5.88
  -6  -4  13   19.89    6.37
   6  -4 -13   15.64    4.86
  -6  -4  13   27.59    6.38
  -5  -4  13   97.70   14.97
   5  -4 -13   63.74   10.24
  -5  -4  13   76.66   12.24
   5  -4 -13   91.90   15.59
   5   4 -13   76.82   10.28
   4  -4 -13    6.69    3.52
   4  -4 -13    2.13    2.12
  -4  -4  13    4.19    2.33
  -4  -4  13    2.52    2.81
   4   4 -13    2.54    2.01
  -3  -4  13   60.37   11.78
   3   4 -13   77.88    7.98
   3  -4 -13   74.98   10.05
   3  -4 -13   73.85   13.07
   2  -4 -13   17.17    5.59
  -2  -4  13    2.75    2.74
   2  -4 -13    0.95    2.13
   2   4 -13    2.75    1.82
   1   4 -13   71.03    7.12
   1  -4 -13   92.79   13.96
  -1  -4  13   70.27   12.74
   1  -4 -13   83.67   13.82
   0  -4 -13    5.81    2.66
   0  -4 -13   -1.26    2.56
   0  -4  13    1.94    2.04
   0  -4  13    0.81    2.64
   1  -4  13   16.99    6.57
  -1  -4 -13    6.23    3.05
  -1  -4 -13   17.10    5.61
  -2  -4 -13    4.83    3.06
   2  -4  13   12.67    4.66
  -2  -4 -13    7.77    2.96
  -3  -4 -13    1.32    2.64
   3  -4  13    0.87    2.39
  -3  -4 -13   -1.05    2.44
   4  -4  13    1.09    2.36
  -4  -4 -13    1.88    2.41
  -4  -4 -13   -2.56    2.52
  -5  -4 -13  400.31   30.91
  -5  -4 -13  410.45   29.11
   5  -4  13  393.10   29.20
   5  -4  13  434.51   29.10
  -6  -4 -13   23.84    8.39
   6  -4  13   59.51   12.70
  -6  -4 -13   46.23   11.72
   6  -4  13   41.31    9.59
   7  -4  13  574.73   36.91
  -7  -4 -13  522.59   36.47
  -7  -4 -13  566.29   36.81
  -8  -4 -13    4.41    6.00
   8  -4  13    1.37    3.70
   9  -4  13   41.44   10.78
  -9  -4 -13   36.47   11.67
 -10  -4 -13    0.48    6.27
   9  -5 -13  192.92   26.99
   9  -5 -13  151.94   24.29
   8  -5 -13   13.66    7.11
  -8  -5  13    9.33    5.90
   8  -5 -13    2.85    6.85
  -7  -5  13   54.56   13.19
   7  -5 -13   47.47   13.53
   7  -5 -13   64.75   15.17
  -7  -5  13   51.58   12.99
  -6  -5  13   68.35   14.52
   6  -5 -13   84.71   17.75
  -6  -5  13   54.23   13.23
  -5  -5  13  296.50   27.16
  -5  -5  13  299.51   27.13
   5  -5 -13  349.72   30.82
   4  -5 -13   66.00   15.04
  -4  -5  13  109.01   19.45
  -3  -5  13  145.93   21.84
   3  -5 -13  137.76   22.13
  -2  -5  13   14.30    8.11
   2  -5 -13    2.82    3.86
   1  -5 -13   -0.50    4.07
  -1  -5  13    2.21    4.71
   0  -5  13    0.86    4.48
   0  -5 -13   -3.70    4.93
   0  -5 -13    3.15    5.40
  -1  -5 -13    4.17    5.08
   1  -5  13    0.01    4.10
   1  -5  13    1.13    3.05
  -1  -5 -13    1.19    5.22
  -2  -5 -13   20.96    8.70
   2  -5  13   16.56    7.53
   2  -5  13   16.08    6.46
  -2  -5 -13   19.82    7.01
  -3  -5 -13  130.81   20.78
  -3  -5 -13  128.75   21.66
   3  -5  13  129.89   21.41
   3  -5  13   88.17   15.85
  -4  -5 -13   43.67   12.66
   4  -5  13   38.79   12.48
  -4  -5 -13   33.88   11.09
   4  -5  13   35.85   10.14
   5  -5  13   74.41   16.70
   5  -5  13  102.49   17.61
  -5  -5 -13   84.76   17.15
   6  -5  13    0.78    7.43
   6  -5  13    7.95    5.53
   7  -5  13   42.71   14.05
   8  -5  13   64.56   17.11
  16   0 -14  184.44   21.59
  16   0 -14  179.71   19.09
  15   0 -14    1.84    3.60
  15   0 -14    1.29    4.98
  14   0 -14  812.26   41.58
  14   0 -14  832.69   42.72
  13   0 -14   -0.08    2.01
  13   0 -14    1.99    2.52
  12   0 -14  278.81   20.37
  12   0 -14  287.71   21.38
  11   0 -14   -0.83    1.65
  11   0 -14    0.38    1.77
  10   0 -14   37.37    7.87
  10   0 -14   32.76    6.82
   9   0 -14    1.04    1.46
  -9   0  14   -0.37    1.20
   9   0 -14    1.49    1.43
   8   0 -14    5.20    2.67
   8   0 -14    3.14    1.77
   7   0 -14    2.29    1.60
   7   0 -14   -0.45    1.26
  -7   0  14    0.26    1.28
  -6   0  14  569.42   19.65
   6   0 -14  570.22   27.85
  -6   0  14  577.63   27.48
   6   0 -14  559.39   28.96
  -5   0  14    1.78    1.44
   5   0 -14   -0.69    1.21
   5   0 -14    0.96    1.28
  -4   0  14  199.86   14.42
   4   0 -14  203.06   15.24
   4   0 -14  186.66   13.92
   3   0 -14    0.17    1.21
   3   0 -14   -0.74    1.28
  -3   0  14    0.25    1.03
   2   0 -14  520.45   26.19
  -2   0  14  517.46   25.87
   2   0 -14  521.01   24.60
   1   0 -14    1.31    1.06
  -1   0  14    2.27    1.30
   1   0 -14    1.70    1.09
   1   0 -14    1.35    1.22
   0   0 -14 2029.92   57.53
   0   0 -14 2029.42   64.37
   0   0 -14 2090.04   63.21
   0   0  14 1904.25   66.65
   1   0  14    0.12    1.11
   1   0  14   -0.90    0.91
  -1   0 -14   -1.04    1.10
  -2   0 -14  891.30   34.89
   2   0  14  859.13   37.95
  -2   0 -14  943.61   32.62
  -3   0 -14    0.65    1.10
   3   0  14    0.20    1.20
  -3   0 -14   -0.84    1.20
   3   0  14    0.49    1.02
   4   0  14   47.34    8.57
  -4   0 -14   28.53    5.36
   4   0  14   28.60    6.98
  -4   0 -14   35.03    5.95
   5   0  14    3.60    2.02
  -5   0 -14    1.03    1.45
   5   0  14   -0.50    1.17
  -5   0 -14    0.70    1.28
   6   0  14   19.44    5.24
  -6   0 -14    9.96    2.53
  -6   0 -14   21.86    4.23
   6   0  14    9.61    3.28
  -7   0 -14    3.77    1.70
  -7   0 -14    1.84    1.62
   7   0  14    0.73    1.35
  -7   0 -14   -0.63    1.34
   7   0  14    0.99    1.55
  -8   0 -14   31.90    5.03
  -8   0 -14   48.97    8.36
   8   0  14   25.12    6.74
   8   0  14   44.69    8.59
  -8   0 -14   48.63    8.10
   9   0  14   -2.37    1.64
  -9   0 -14    0.12    1.60
   9   0  14    1.04    1.43
 -10   0 -14   64.67   10.47
  10   0  14   45.39    9.69
  10   0  14   30.31    7.75
  11   0  14   -1.49    1.79
 -11   0 -14    1.35    2.01
 -11   0 -14   -1.99    2.29
  11   0  14    4.15    2.00
 -12   0 -14  150.36   14.69
  12   0  14  141.18   15.65
  12   0  14  135.63   17.52
 -12   0 -14  135.86   16.46
 -13   0 -14   -1.03    3.88
  13   0  14   -0.78    3.95
 -13   0 -14    1.16    3.38
  13   0  14   -0.07    3.61
 -14   0 -14  385.32   28.43
  14   0  14  419.30   29.52
 -14   0 -14  436.82   31.95
  15   0  14    3.67    5.96
 -15   0 -14    2.44    4.93
  15   0  14    2.32    3.97
 -15   0 -14    1.01    4.18
  17  -1 -14  315.28   26.15
  16  -1 -14  364.04   27.77
  16  -1 -14  345.37   28.95
  16   1 -14  372.88   27.12
  16   1 -14  340.27   27.31
  15  -1 -14  227.48   21.48
  15  -1 -14  230.05   22.78
  15   1 -14  210.60   19.64
  15   1 -14  205.48   20.05
  14   1 -14   16.72    6.55
  14  -1 -14   17.92    7.89
  14   1 -14   13.51    6.47
  14  -1 -14   16.64    6.38
  13  -1 -14   50.73   10.40
  13   1 -14   60.29   12.14
  13  -1 -14   35.69    8.44
  13   1 -14   24.27    6.11
 -12  -1  14   65.54    9.51
  12  -1 -14   67.00   11.46
  12  -1 -14   72.62   12.38
  12   1 -14   62.12   10.54
  12   1 -14   59.28   10.60
 -11  -1  14   79.19   10.18
  11   1 -14   61.26   10.93
  11  -1 -14   75.07   12.36
  11   1 -14   75.06   11.20
  11  -1 -14   66.64   11.68
  10  -1 -14  114.25   15.01
 -10  -1  14  118.69    9.65
 -10  -1  14  114.41   10.24
  10  -1 -14  123.68   15.81
  10   1 -14  120.64   12.40
  10   1 -14  106.05   14.00
  -9  -1  14   25.54    4.99
   9   1 -14   31.87    7.00
   9  -1 -14   15.74    4.58
   9   1 -14   10.42    2.96
  -9  -1  14   30.73    5.49
   9  -1 -14   16.82    4.34
   8   1 -14    0.67    1.32
  -8  -1  14    1.30    1.28
   8  -1 -14   -0.87    1.49
   8   1 -14    3.82    2.22
  -8  -1  14    2.12    1.28
  -8   1  14    3.69    1.37
   8  -1 -14    5.72    2.00
  -7  -1  14    0.63    1.25
   7   1 -14    0.09    1.65
  -7  -1  14    4.38    1.82
   7   1 -14    2.89    1.67
   7  -1 -14    5.43    2.18
   7  -1 -14    6.18    2.70
  -7   1  14    4.27    1.33
   6  -1 -14    8.79    3.02
  -6   1  14   16.44    3.24
   6   1 -14   15.76    4.71
  -6  -1  14    6.86    1.70
  -6  -1  14   10.80    3.58
   6   1 -14   12.45    3.77
   6  -1 -14    7.50    3.12
  -5  -1  14  197.28   12.19
  -5   1  14  202.60   13.12
   5   1 -14  204.49   15.49
  -5  -1  14  202.22   16.35
   5  -1 -14  182.21   15.59
   5   1 -14  179.95   14.44
   5  -1 -14  206.41   15.28
   4   1 -14  635.86   30.22
   4  -1 -14  678.06   33.06
  -4  -1  14  671.12   33.73
   4  -1 -14  693.56   31.17
  -4   1  14  680.73   28.75
  -4  -1  14  722.02   26.72
  -4  -1  14  707.62   31.06
   3   1 -14 1013.38   38.79
   3  -1 -14  934.69   37.59
  -3  -1  14  952.98   38.18
   3  -1 -14  946.15   40.45
  -3  -1  14  919.23   41.13
  -3   1  14  897.74   35.83
  -2   1  14  777.80   32.82
   2   1 -14  777.98   32.93
   2  -1 -14  807.22   33.06
  -2  -1  14  805.20   34.15
   2  -1 -14  764.71   35.18
   2  -1 -14  828.31   31.79
  -2  -1  14  760.79   36.54
  -1   1  14  188.73   13.98
   1  -1 -14  204.75   13.85
   1  -1 -14  199.03   15.34
  -1  -1  14  200.29   16.36
   1  -1 -14  217.45   14.09
  -1  -1  14  188.54   14.68
   1   1 -14  214.08   14.27
   0  -1  14   91.86   12.72
   0   1  14   89.59    9.03
   0  -1 -14   80.74    7.52
   0  -1 -14   68.53   10.20
   0   1 -14   76.88    9.64
   0   1 -14   86.18    5.80
   0  -1 -14   75.66    9.47
   0  -1  14   75.11   10.82
  -1   1 -14   30.37    5.43
   1  -1  14   54.19    9.17
   1  -1  14   38.41    8.29
  -1   1 -14   35.78    4.41
   1   1  14   37.74    7.37
  -1  -1 -14   34.44    7.00
  -1  -1 -14   44.56    7.19
  -1  -1 -14   40.36    6.06
  -2  -1 -14  518.12   22.10
  -2   1 -14  505.64   22.84
  -2  -1 -14  516.76   26.47
   2   1  14  476.97   26.05
   2  -1  14  522.95   27.59
   2  -1  14  500.97   28.59
  -2   1 -14  497.62   19.02
  -2  -1 -14  487.34   23.79
   3  -1  14  319.46   21.22
  -3  -1 -14  363.32   16.70
  -3   1 -14  369.77   15.99
  -3  -1 -14  357.94   21.34
  -3   1 -14  356.74   17.66
  -3  -1 -14  363.68   15.53
  -3  -1 -14  358.76   20.11
   3  -1  14  363.45   23.93
  -4  -1 -14  237.80   17.27
   4  -1  14  253.52   18.47
  -4   1 -14  230.30   13.40
  -4  -1 -14  274.91   14.07
  -4  -1 -14  259.41   16.76
  -4   1 -14  249.16   13.13
   4   1  14  240.77   17.21
   4  -1  14  235.04   19.05
  -5   1 -14   61.10    7.19
  -5   1 -14   61.92    5.80
  -5  -1 -14   35.19    7.02
  -5  -1 -14   53.39    8.47
  -5  -1 -14   65.35    6.55
   5  -1  14   58.99   10.05
   5   1  14   67.23   10.29
   5  -1  14   57.24   10.95
  -6  -1 -14    1.83    2.14
  -6  -1 -14    1.39    1.68
  -6  -1 -14    0.64    1.60
   6  -1  14    0.55    1.23
  -6   1 -14    1.13    1.61
   6   1  14    1.69    1.21
   6  -1  14    1.18    1.54
   7  -1  14    0.07    1.53
  -7   1 -14   -0.04    1.41
  -7  -1 -14   -1.94    1.79
   7  -1  14   -0.61    1.54
  -7  -1 -14   -0.06    1.69
  -7  -1 -14    1.62    1.77
   7   1  14   -0.37    1.54
   8   1  14    2.56    1.42
  -8  -1 -14   -0.32    2.09
  -8  -1 -14   -0.19    1.97
   8  -1  14    3.05    2.66
   8  -1  14    2.43    1.41
  -8  -1 -14    7.17    2.07
  -8   1 -14    4.39    2.15
   9  -1  14   38.79    9.18
   9   1  14   19.11    5.14
  -9  -1 -14   20.83    4.13
  -9  -1 -14   19.20    5.21
  -9   1 -14   17.86    3.09
  -9  -1 -14   22.97    4.50
   9  -1  14   19.85    5.82
  10  -1  14   98.89   14.75
 -10  -1 -14   95.17   12.99
  10  -1  14  100.86   15.76
 -10  -1 -14  117.86   14.71
  10   1  14  110.01   13.84
 -10   1 -14  101.97   10.12
  11  -1  14  230.85   20.71
 -11  -1 -14  242.20   19.06
 -11   1 -14  217.52   16.43
  11   1  14  236.82   18.67
 -11  -1 -14  215.72   18.61
  11  -1  14  269.02   22.46
 -12   1 -14  180.17   17.35
 -12  -1 -14  213.26   18.63
 -12  -1 -14  183.93   17.83
  12  -1  14  203.49   20.14
 -12   1 -14  172.39   14.91
  12  -1  14  212.24   20.26
  12   1  14  203.39   17.17
  13   1  14   19.43    8.21
 -13  -1 -14   13.73    5.08
 -13   1 -14   30.95    9.39
 -13   1 -14   26.71    5.52
  13  -1  14   13.50    6.06
  13  -1  14   17.77    7.44
  13   1  14   38.25    9.79
 -13  -1 -14   28.92    9.30
  14   1  14    1.12    4.28
  14  -1  14    4.02    4.41
 -14   1 -14    4.52    5.32
  14   1  14    4.39    4.37
 -14   1 -14    3.26    3.86
 -14  -1 -14    7.08    5.10
  14  -1  14    4.07    5.53
  15  -1  14   -0.80    6.33
 -15  -1 -14    9.86    6.05
  15   1  14    3.42    6.10
 -15   1 -14    2.05    4.92
  16   2 -14    3.66    5.44
  16  -2 -14   -3.23    4.04
  15  -2 -14  490.56   34.63
 -15  -2  14  488.52   31.68
  15   2 -14  414.75   30.35
  15   2 -14  470.78   30.43
  15  -2 -14  492.45   34.57
  14  -2 -14   -1.23    3.76
  14   2 -14    0.85    4.74
  14   2 -14    0.24    3.30
 -14  -2  14   -3.86    2.64
  13   2 -14  718.76   39.48
 -13  -2  14  694.42   35.96
  13   2 -14  691.01   37.64
  13  -2 -14  723.74   43.68
  13  -2 -14  751.28   43.03
 -12  -2  14   12.74    3.25
 -12  -2  14    9.92    2.78
  12   2 -14   11.66    5.68
  12   2 -14    9.79    3.27
  12  -2 -14   12.02    3.93
  12  -2 -14    8.43    3.67
  11   2 -14   32.19    7.73
 -11  -2  14   28.79    5.96
  11   2 -14   28.71    6.85
 -11  -2  14   45.18    8.62
  11  -2 -14   40.53    9.12
  11  -2 -14   41.76    8.91
 -10  -2  14    2.38    1.84
  10  -2 -14    3.29    2.22
  10   2 -14    0.83    2.20
 -10  -2  14    0.89    1.84
  10  -2 -14   -0.77    2.50
  10   2 -14    1.42    2.87
   9  -2 -14    3.20    2.59
  -9  -2  14    3.43    1.73
  -9  -2  14   -0.37    1.64
   9   2 -14    0.54    1.58
   9  -2 -14    5.31    2.57
   9   2 -14    3.46    2.22
   8  -2 -14    2.94    1.82
   8  -2 -14    0.35    2.16
   8   2 -14   -0.71    1.61
  -8  -2  14    3.24    1.75
   8   2 -14    2.00    1.47
  -8  -2  14   -0.47    1.54
   7  -2 -14  171.22   16.16
   7  -2 -14  152.88   15.25
   7   2 -14  154.73   13.66
   7   2 -14  156.00   14.33
  -7  -2  14  168.58   13.73
  -7  -2  14  182.79   14.55
  -7  -2  14  127.55   11.32
  -6  -2  14    6.48    2.47
  -6   2  14    5.69    1.94
   6  -2 -14   -0.28    1.89
  -6  -2  14   10.29    2.43
  -6  -2  14    6.89    2.86
   6   2 -14    8.28    2.77
  -5   2  14  471.08   21.32
   5  -2 -14  419.81   26.35
  -5  -2  14  468.59   23.90
   5   2 -14  496.01   25.95
  -5  -2  14  360.60   22.51
  -5  -2  14  552.94   27.30
   5  -2 -14  481.79   28.73
   4  -2 -14    3.50    2.02
   4   2 -14    2.62    1.69
  -4  -2  14    2.21    2.28
  -4  -2  14    5.45    1.70
  -4  -2  14    0.26    1.28
  -4   2  14    0.91    1.13
   4  -2 -14    0.17    1.85
   3   2 -14   17.80    4.37
   3  -2 -14   21.46    5.25
  -3  -2  14   25.18    5.04
  -3   2  14   25.89    5.27
  -3  -2  14   10.60    4.77
   3  -2 -14   26.18    6.07
  -2  -2  14   -1.21    1.44
   2  -2 -14    1.65    1.74
   2  -2 -14    0.54    1.70
   2  -2 -14    0.25    1.57
   2   2 -14   -2.42    1.20
  -2  -2  14    0.82    1.26
   1  -2 -14 1107.09   46.48
  -1  -2  14 1081.21   50.35
  -1  -2  14 1073.02   44.49
   1  -2 -14 1094.74   41.53
   1  -2 -14 1126.49   42.94
   1   2 -14 1085.42   40.04
   0  -2  14   37.41    9.29
   0   2 -14   39.57    6.21
   0  -2 -14   36.43    5.60
   0  -2 -14   37.48    7.25
   0  -2 -14   37.19    7.89
   0  -2  14   24.29    5.87
  -1   2 -14 1381.63   44.52
  -1  -2 -14 1331.80   49.05
  -1  -2 -14 1372.74   43.99
   1  -2  14 1296.06   51.04
   1  -2  14 1332.22   58.04
  -1  -2 -14 1267.56   51.64
   2  -2  14    8.62    3.66
   2  -2  14   12.87    3.95
  -2  -2 -14   11.27    3.83
  -2  -2 -14   11.18    3.75
  -2   2 -14    8.20    2.16
  -3   2 -14   66.36    6.06
  -3  -2 -14   79.57   11.43
   3  -2  14   47.91   10.35
   3  -2  14   53.82    9.77
  -3  -2 -14   68.20   11.03
  -4  -2 -14    0.71    1.71
   4  -2  14    1.57    1.40
   4  -2  14   -1.16    1.60
  -4  -2 -14    0.51    2.16
   5  -2  14   31.91    7.91
   5  -2  14   41.80   10.35
  -5  -2 -14   43.59    7.89
  -5  -2 -14   61.04   10.55
   6  -2  14    6.73    2.52
   6   2  14    2.42    1.65
  -6  -2 -14    3.80    2.46
  -6  -2 -14    5.43    2.51
   6  -2  14    5.77    2.62
   7   2  14    3.18    1.53
  -7  -2 -14    5.50    2.11
  -7  -2 -14    4.79    2.14
   7  -2  14    1.63    2.23
   7  -2  14    1.22    1.74
   8   2  14    1.38    1.61
   8  -2  14    2.18    1.78
  -8  -2 -14    4.93    2.32
  -8  -2 -14    0.09    2.03
   8  -2  14    0.59    2.25
   9  -2  14  104.21   17.73
  -9  -2 -14   93.15   12.54
  -9  -2 -14   95.88   13.87
   9   2  14  103.19   13.09
   9  -2  14   94.73   14.84
  10   2  14    1.52    1.85
  10  -2  14   -2.86    2.81
 -10  -2 -14   -1.15    2.56
  10  -2  14    1.67    3.12
  11   2  14    6.91    2.71
  11  -2  14    1.70    3.10
 -11  -2 -14    8.59    6.39
  11  -2  14    4.83    5.20
 -12  -2 -14    1.48    4.83
  12  -2  14   -3.01    3.27
  12   2  14    1.74    2.32
  12  -2  14    2.01    4.76
  13  -2  14  293.23   28.98
  13  -2  14  291.36   26.31
 -13  -2 -14  301.28   25.99
  14  -2  14    7.07    7.39
  15  -3 -14  168.19   24.25
 -15  -3  14  183.70   22.79
 -14  -3  14    7.28    5.66
  14  -3 -14    8.13    6.45
  14   3 -14    6.34    5.35
  14  -3 -14    6.37    5.90
  13   3 -14   21.80    7.83
 -13  -3  14   25.17    8.37
  13   3 -14   27.78    8.69
  13  -3 -14   17.20    7.99
  13  -3 -14   13.36    8.74
  12   3 -14   59.14   13.10
  12  -3 -14   70.81   15.48
 -12  -3  14   76.04   14.45
  12  -3 -14   55.22   14.20
  12   3 -14   77.06   14.25
 -12  -3  14   65.64   10.95
 -11  -3  14  159.68   14.44
  11  -3 -14  141.18   21.70
  11   3 -14  140.24   18.38
  11   3 -14  152.96   18.87
  11  -3 -14  113.36   18.22
 -11  -3  14  141.74   17.63
  10   3 -14   24.65    7.70
 -10  -3  14   10.93    2.84
  10   3 -14   25.53    6.72
  10  -3 -14   20.95    6.35
 -10  -3  14   25.52    6.28
  10  -3 -14   16.68    5.68
   9  -3 -14    3.77    2.53
   9  -3 -14    5.84    2.68
   9   3 -14   13.87    4.56
  -9  -3  14    7.50    2.61
  -9  -3  14    9.02    3.43
   9   3 -14    4.41    2.28
   8  -3 -14    3.06    2.56
   8   3 -14    0.89    1.88
   8  -3 -14    2.71    2.27
  -8  -3  14    7.65    2.71
  -8  -3  14    2.55    2.26
  -7  -3  14   13.48    3.77
  -7  -3  14   17.56    4.17
   7  -3 -14   10.76    2.81
   7   3 -14   16.76    4.17
   7  -3 -14   12.74    3.12
  -6  -3  14   19.43    4.65
   6  -3 -14   11.33    3.78
  -6  -3  14   14.58    4.00
   6   3 -14   27.07    5.48
   6  -3 -14   20.04    5.52
  -5  -3  14  201.02   16.55
   5  -3 -14  233.10   20.33
   5   3 -14  190.88   14.96
   5  -3 -14  233.91   17.86
  -5  -3  14  203.44   14.85
  -5  -3  14  189.05   16.82
   4   3 -14  259.33   17.49
  -4  -3  14  265.62   19.26
   4  -3 -14  279.26   22.41
   4  -3 -14  262.42   18.32
  -4  -3  14  290.22   19.01
  -4  -3  14  269.18   20.38
   3  -3 -14  819.55   34.39
   3   3 -14  794.81   33.83
  -3  -3  14  772.90   38.20
   3  -3 -14  713.72   39.35
  -3  -3  14  824.88   37.30
   2  -3 -14  333.04   18.40
  -2  -3  14  295.28   20.71
  -2  -3  14  309.08   22.29
   2  -3 -14  290.79   20.80
   2   3 -14  303.81   18.38
   2  -3 -14  337.02   24.46
   1   3 -14  246.68   15.63
   1  -3 -14  273.88   15.42
   1  -3 -14  256.38   21.49
   1  -3 -14  272.66   19.86
  -1  -3  14  268.69   19.94
   0  -3 -14    7.73    2.74
   0  -3 -14    5.61    2.13
   0  -3  14    6.27    2.15
   0  -3  14   15.67    6.87
   0   3 -14   14.12    3.00
  -1  -3 -14   53.24    9.56
  -1  -3 -14   70.00   12.46
   1  -3  14   80.05   12.38
   1  -3  14   79.29   15.13
  -1   3 -14   53.83    5.50
  -2  -3 -14  184.71   16.40
  -2  -3 -14  194.57   17.97
   2  -3  14  180.31   16.95
   2  -3  14  186.87   20.16
   3  -3  14  299.46   26.97
   3  -3  14  307.23   22.92
  -3  -3 -14  290.84   23.06
  -3  -3 -14  346.37   23.71
  -4  -3 -14   62.89   11.26
  -4  -3 -14   40.25    8.92
   4  -3  14   43.18   10.69
   4  -3  14   37.33    8.31
   5  -3  14   66.46   11.84
   5  -3  14   83.50   16.93
  -5  -3 -14   62.04   10.87
  -5  -3 -14   53.92   10.23
  -6  -3 -14    7.87    3.62
   6  -3  14    2.78    2.53
  -6  -3 -14    3.57    2.39
   6  -3  14   13.25    5.07
   7  -3  14    4.26    3.34
   7  -3  14    7.23    3.33
  -7  -3 -14    4.98    2.54
  -7  -3 -14   11.30    3.45
   8  -3  14    5.86    4.87
   8   3  14    2.79    1.86
  -8  -3 -14    8.70    3.14
  -8  -3 -14    7.16    4.45
   8  -3  14    2.03    3.99
  -9  -3 -14   40.04   11.29
   9  -3  14   25.47    7.49
   9  -3  14   32.19   10.11
   9   3  14   29.09    4.69
 -10  -3 -14   54.22   13.65
  10  -3  14   56.12   12.90
  10  -3  14   48.72   14.32
  11  -3  14   72.01   18.12
 -11  -3 -14  183.19   23.58
  12  -3  14   56.73   16.04
 -13  -4  14    6.47    5.82
 -12  -4  14  105.17   18.40
  12  -4 -14  105.91   20.28
 -12  -4  14  144.53   19.50
  12  -4 -14  133.10   24.14
  11  -4 -14   -3.58    6.55
  11  -4 -14    5.34    5.72
 -11  -4  14    4.55    4.94
  11   4 -14    3.17    4.64
  11   4 -14   -1.62    3.39
 -11  -4  14   -0.02    4.46
  10   4 -14    5.63    5.39
 -10  -4  14   -0.73    4.25
 -10  -4  14    2.74    4.67
  10  -4 -14   -2.38    5.22
  10   4 -14    1.36    3.47
  10  -4 -14    3.40    6.31
  -9  -4  14    0.36    4.03
   9  -4 -14   -0.90    5.24
  -9  -4  14   -2.52    4.40
   9   4 -14    4.64    4.24
   9  -4 -14   10.32    6.24
  -8  -4  14    9.81    6.41
  -8  -4  14   -1.27    4.48
   8  -4 -14    2.00    3.23
   8  -4 -14   -1.04    4.61
   8   4 -14    5.33    4.73
   7  -4 -14   -0.70    4.50
  -7  -4  14    4.57    4.68
   7  -4 -14   -0.06    2.98
  -7  -4  14   -2.64    3.10
   7   4 -14    4.21    3.42
   6  -4 -14  222.99   18.74
  -6  -4  14  256.33   22.27
   6   4 -14  218.17   16.76
  -6  -4  14  189.86   18.44
   6  -4 -14  276.53   26.52
  -5  -4  14   30.93    7.55
  -5  -4  14   44.88    9.80
   5  -4 -14   48.51   11.83
   5  -4 -14   50.77    9.11
   5   4 -14   29.76    5.49
   4   4 -14   68.95    9.48
  -4  -4  14   70.51   13.43
  -4  -4  14   80.43   13.23
   4  -4 -14   87.54   12.02
   4  -4 -14   74.32   15.01
   3  -4 -14   10.04    4.14
  -3  -4  14   -1.13    2.06
   3   4 -14    3.57    1.87
   2  -4 -14  185.34   17.46
  -2  -4  14  181.76   14.92
   2  -4 -14  179.26   22.49
  -2  -4  14  167.24   20.42
   2   4 -14  186.74   13.34
   1  -4 -14   15.19    4.88
   1  -4 -14   28.73    6.97
  -1  -4  14   33.82    6.32
  -1  -4  14   11.79    4.86
   0  -4 -14  918.03   48.86
   0  -4 -14  913.80   44.61
   0  -4  14  895.72   43.50
   0  -4  14  924.61   46.56
  -1  -4 -14   20.67    8.36
  -1  -4 -14    9.87    3.76
   1  -4  14   28.14    7.04
   1  -4  14   14.71    4.32
   2  -4  14  190.63   17.79
  -2  -4 -14  189.38   18.30
   2  -4  14  188.57   22.32
  -2  -4 -14  194.04   23.70
   3  -4  14    2.15    2.48
  -3  -4 -14    0.61    4.68
   3  -4  14   12.05    4.28
  -3  -4 -14    3.07    3.22
  -4  -4 -14    1.40    5.00
   4  -4  14    4.58    3.18
  -4  -4 -14   -0.43    4.91
   5  -4  14   10.20    5.17
  -5  -4 -14    3.56    5.38
  -5  -4 -14   13.22    8.01
   6  -4  14    7.57    5.17
  -6  -4 -14   -3.75    4.75
  -6  -4 -14    1.65    5.66
   7  -4  14    2.55    4.24
  -7  -4 -14    2.10    5.94
  -7  -4 -14    3.72    6.31
   8  -4  14   36.61   10.47
  -8  -4 -14   15.08    8.16
  -9  -4 -14    4.89    6.31
   9  -5 -14   12.87   10.48
   8   5 -14    2.13    4.79
   8  -5 -14    4.75    8.09
   7   5 -14   -1.06    3.61
   7  -5 -14   11.15    7.52
  -6  -5  14   -6.04    4.18
  -6  -5  14    0.57    4.80
   6   5 -14    0.92    4.15
   6  -5 -14   -6.20    4.82
  -5  -5  14   23.98    9.44
   5  -5 -14   23.81    8.82
  -4  -5  14  327.70   29.01
   4  -5 -14  295.92   28.84
   3  -5 -14  122.29   20.94
  -3  -5  14  111.08   19.85
  -2  -5  14  313.83   28.95
   2  -5 -14  330.13   30.38
   1  -5 -14   29.88   10.74
  -1  -5  14   38.54   12.08
   0  -5 -14   13.91    6.94
   0  -5 -14   12.30    9.04
   0  -5  14    2.92    7.14
  -1  -5 -14   21.35   10.72
  -1  -5 -14   20.49    9.07
   1  -5  14   19.18    6.99
   1  -5  14    5.49    6.61
  -2  -5 -14  213.25   27.82
  -2  -5 -14  248.79   28.39
   2  -5  14  206.25   23.80
   2  -5  14  210.73   27.25
  -3  -5 -14   16.73   10.35
   3  -5  14   24.02   11.16
   3  -5  14    9.58    6.40
   4  -5  14   82.48   18.92
   4  -5  14   60.72   13.60
   5  -5  14   14.09   10.54
   5  -5  14   15.31    6.61
   6  -5  14    1.20    8.31
  16   0 -15   -2.07    3.67
  16   0 -15   -1.24    4.28
  15   0 -15   36.83    9.13
  15   0 -15   29.97    9.36
  14   0 -15   -0.07    3.29
  14   0 -15    0.10    3.96
  13   0 -15  761.52   40.81
  13   0 -15  741.73   38.69
  12   0 -15    1.77    2.05
  12   0 -15    0.96    2.24
  11   0 -15  677.31   36.33
  11   0 -15  724.37   35.58
  10   0 -15   -3.97    1.63
  10   0 -15    3.33    2.06
  -9   0  15    0.45    1.32
   9   0 -15    0.01    1.56
   9   0 -15    0.43    1.81
   8   0 -15    1.62    1.58
   8   0 -15    2.97    2.07
  -7   0  15 1178.25   45.71
   7   0 -15 1077.47   46.50
   7   0 -15 1240.83   47.50
  -6   0  15   -1.91    1.27
   6   0 -15    0.78    1.21
   6   0 -15   -1.70    1.35
   5   0 -15  438.81   23.66
   5   0 -15  407.90   24.28
  -5   0  15  436.99   23.87
   4   0 -15    0.59    1.23
  -4   0  15    0.30    1.25
   4   0 -15   -0.56    1.18
   3   0 -15    6.18    2.06
  -3   0  15    7.02    2.45
   3   0 -15   13.58    4.48
  -2   0  15    1.34    1.28
   2   0 -15    0.72    1.20
   2   0 -15    0.40    1.25
   1   0 -15   35.91    6.37
  -1   0  15   30.44    6.43
   1   0 -15   27.54    5.90
   1   0 -15   25.81    4.12
   0   0  15    6.09    2.61
  -1   0 -15  842.86   30.25
   1   0  15  775.23   35.79
  -1   0 -15  821.24   34.24
  -1   0 -15  804.76   31.92
   1   0  15  784.78   35.07
  -2   0 -15   -1.35    1.32
  -2   0 -15   -1.12    1.34
   2   0  15    0.88    1.35
   2   0  15    3.36    1.51
  -3   0 -15  464.27   21.58
   3   0  15  441.37   25.81
  -3   0 -15  457.21   23.40
   3   0  15  453.98   25.40
  -4   0 -15    0.61    1.41
   4   0  15   -1.09    1.10
   4   0  15    1.38    1.80
  -4   0 -15   -0.31    1.50
   5   0  15   14.53    4.83
  -5   0 -15   22.58    4.46
  -5   0 -15   18.03    3.95
  -6   0 -15   -0.62    1.62
   6   0  15    1.78    1.58
  -6   0 -15   -0.28    1.65
   6   0  15    1.93    2.00
  -7   0 -15  645.76   28.92
  -7   0 -15  774.07   33.22
   7   0  15  699.64   35.23
  -7   0 -15  687.24   30.76
   7   0  15  708.11   37.51
   8   0  15    0.31    1.38
  -8   0 -15    0.30    1.95
  -8   0 -15   -1.08    1.58
   8   0  15   -0.64    2.01
   9   0  15  374.28   26.30
  -9   0 -15  354.14   21.61
  -9   0 -15  363.92   22.51
   9   0  15  364.92   24.56
  10   0  15    0.79    1.78
 -10   0 -15    0.90    2.03
  10   0  15    3.34    2.56
 -10   0 -15    2.27    1.97
 -11   0 -15    1.19    2.38
  11   0  15    7.77    4.39
  11   0  15    0.37    2.88
 -11   0 -15    2.38    2.54
  12   0  15    1.57    4.38
 -12   0 -15    1.45    2.46
  12   0  15   -0.66    3.12
  13   0  15   -3.67    4.10
 -13   0 -15    3.57    3.89
  13   0  15    6.33    5.61
  14   0  15    1.63    5.25
 -14   0 -15    0.37    5.14
  14   0  15    0.29    4.04
 -14   0 -15   -0.49    3.99
  16  -1 -15   15.89    5.87
  16   1 -15   20.28    7.18
  15  -1 -15  167.58   21.02
  15  -1 -15  126.26   19.99
  15   1 -15  141.91   18.31
  15   1 -15  140.39   19.33
  14  -1 -15  131.06   19.58
  14   1 -15  111.78   16.04
  14   1 -15   93.16   16.00
  14  -1 -15   91.66   15.96
  13   1 -15   -0.33    3.51
  13  -1 -15    3.20    3.56
  13   1 -15    4.58    4.48
  13  -1 -15   -3.23    3.83
  12  -1 -15   52.26   10.74
  12   1 -15   30.99    8.46
  12   1 -15   41.73    8.19
  12  -1 -15   40.22    8.98
  11  -1 -15  248.07   20.33
  11   1 -15  241.78   19.10
  11  -1 -15  240.63   19.80
  11   1 -15  209.70   18.15
  10   1 -15  551.73   31.03
  10  -1 -15  559.43   31.85
  10  -1 -15  521.37   31.22
  10   1 -15  557.49   30.25
 -10  -1  15  591.11   26.10
   9   1 -15  971.62   42.40
  -9  -1  15  938.13   36.02
   9  -1 -15  932.19   43.06
   9  -1 -15 1002.72   45.35
   9   1 -15  935.25   42.55
  -9  -1  15  998.75   37.18
  -8  -1  15  512.70   24.59
   8   1 -15  449.83   26.46
  -8  -1  15  511.63   23.25
   8   1 -15  488.00   27.82
   8  -1 -15  539.08   29.28
   8  -1 -15  529.29   30.74
  -7  -1  15  233.62   13.91
   7   1 -15  191.34   16.12
   7   1 -15  215.04   16.74
   7  -1 -15  239.07   17.71
  -7  -1  15  224.61   15.20
   7  -1 -15  237.72   19.01
  -7   1  15  223.58   13.97
  -6  -1  15    5.50    1.70
  -6  -1  15    7.00    3.08
  -6   1  15   10.49    2.62
   6   1 -15    9.13    3.48
   6   1 -15    8.33    2.68
   6  -1 -15    6.16    2.77
   6  -1 -15    9.78    3.15
   5  -1 -15   70.55   10.46
  -5   1  15   63.53    6.95
  -5  -1  15   58.29   10.31
   5   1 -15   66.21   10.39
   5   1 -15   57.94    9.43
   5  -1 -15   68.71   11.25
  -5  -1  15   70.17    6.47
  -4  -1  15   55.31    9.25
  -4  -1  15   58.22   10.44
   4   1 -15   37.06    6.92
  -4   1  15   48.80    7.47
   4   1 -15   41.90    7.91
   4  -1 -15   38.63    6.91
   4  -1 -15   43.03    8.77
  -3  -1  15   10.69    3.50
   3  -1 -15    3.35    1.41
  -3  -1  15    4.43    1.63
   3  -1 -15    2.05    2.09
   3   1 -15   10.19    3.02
  -3   1  15    4.38    2.09
  -2  -1  15    4.23    1.43
  -2  -1  15    1.61    1.42
   2   1 -15    2.64    1.97
   2  -1 -15    1.74    1.32
  -2   1  15    2.88    1.40
   2  -1 -15    4.72    1.50
  -1   1  15   64.73    9.51
  -1  -1  15   66.02   10.30
  -1  -1  15   58.33   10.27
   1  -1 -15   50.52    7.68
   1  -1 -15   53.97    7.85
   1  -1 -15   62.44    9.89
   1   1 -15   61.27    9.00
   0  -1  15  117.40   12.71
   0   1 -15  117.95   10.53
   0   1 -15  117.74    7.14
   0  -1 -15  117.98   11.57
   0  -1 -15  120.72    9.90
   0  -1  15  120.00   12.03
   0   1  15  117.52   11.24
   0  -1 -15  146.01   11.45
  -1  -1 -15   -0.58    1.24
   1  -1  15    3.20    1.17
  -1  -1 -15   -0.66    1.43
  -1   1 -15    0.53    1.05
  -1  -1 -15   -1.74    1.28
   1   1  15    0.12    1.15
  -1   1 -15    0.30    1.30
   1  -1  15    1.97    1.68
  -2  -1 -15   97.71    8.08
   2  -1  15  100.28   13.25
   2  -1  15   95.82   13.86
  -2   1 -15  106.60    9.29
  -2  -1 -15  106.28   10.01
  -2  -1 -15   90.35   12.16
  -2   1 -15   97.51    6.89
   2   1  15   79.93   11.44
  -3   1 -15  251.60   14.77
   3  -1  15  235.35   18.15
  -3  -1 -15  252.35   17.93
  -3   1 -15  238.11   12.58
   3  -1  15  262.97   20.38
   3   1  15  239.58   18.07
  -3  -1 -15  245.00   16.46
   4   1  15  463.35   25.98
   4   1  15  468.18   27.38
  -4   1 -15  490.03   21.91
   4  -1  15  451.52   26.91
   4  -1  15  503.40   30.02
  -4  -1 -15  505.42   25.44
  -4  -1 -15  446.43   25.74
  -4   1 -15  491.21   20.34
   5   1  15  660.41   32.48
  -5  -1 -15  677.17   32.67
   5  -1  15  678.25   34.47
  -5   1 -15  680.71   26.49
   5   1  15  654.14   34.43
   5  -1  15  747.43   38.15
  -5  -1 -15  712.07   31.96
  -5   1 -15  663.59   26.59
  -6  -1 -15  370.25   22.12
   6   1  15  335.12   21.97
  -6   1 -15  335.10   17.31
   6  -1  15  353.03   25.20
  -6  -1 -15  318.23   20.74
   6  -1  15  324.39   22.75
  -7   1 -15   99.90    8.78
  -7  -1 -15  108.75   13.53
   7   1  15  107.68   13.75
   7  -1  15  103.25   15.48
  -7  -1 -15   92.04   11.87
   7  -1  15   75.90   12.54
  -8  -1 -15    0.45    2.24
  -8   1 -15    0.43    1.80
   8  -1  15    1.61    1.98
   8   1  15    0.94    1.48
   8  -1  15   -2.44    1.69
  -8  -1 -15   -2.46    1.88
   9  -1  15   25.92    6.36
  -9  -1 -15   38.04    6.66
   9  -1  15   33.77    8.20
  -9  -1 -15   30.88    6.73
   9   1  15   32.54    7.16
  10  -1  15   71.16   13.61
  10  -1  15   57.92   11.72
 -10   1 -15   56.38    8.52
 -10  -1 -15   55.24    9.49
  10   1  15   58.70   10.49
  10   1  15   63.10   11.97
 -11   1 -15   35.35    6.05
 -11  -1 -15   41.19    8.99
  11  -1  15   28.71    8.60
  11   1  15   37.25    8.70
  11   1  15   36.22    9.99
  11  -1  15   34.95    9.93
  12  -1  15   -0.90    4.35
  12   1  15    1.94    4.43
 -12   1 -15    4.96    2.81
  12  -1  15    1.37    4.89
 -12  -1 -15   -1.96    5.34
 -12   1 -15    0.81    3.09
  12   1  15   -0.49    3.86
  13  -1  15    0.92    4.57
 -13   1 -15    5.43    4.31
 -13  -1 -15   -1.90    4.32
  13   1  15    3.45    5.50
  13  -1  15    7.27    5.56
  13   1  15   -1.57    3.26
 -14   1 -15    4.79    4.17
 -14  -1 -15    0.99    5.30
  14   1  15    3.38    3.79
  14  -1  15   -0.83    5.50
  15  -2 -15    1.86    4.37
  15   2 -15    0.82    4.16
  14   2 -15  285.23   24.61
  14   2 -15  302.96   24.82
  14  -2 -15  327.36   27.90
  13   2 -15    5.91    5.67
  13   2 -15    5.56    5.79
  13  -2 -15    1.83    4.90
  13  -2 -15    7.80    7.37
  12   2 -15  775.23   41.62
  12  -2 -15  825.42   46.03
  12  -2 -15  811.55   46.35
  12   2 -15  814.93   41.13
 -12  -2  15  764.40   37.32
  11   2 -15   15.02    6.01
  11  -2 -15   -1.84    2.93
 -11  -2  15    2.23    2.14
  11   2 -15    4.64    2.79
  11  -2 -15    7.53    3.75
 -11  -2  15    9.06    2.26
  10   2 -15  197.56   17.32
 -10  -2  15  229.72   16.66
  10  -2 -15  195.66   19.48
 -10  -2  15  199.02   15.51
  10   2 -15  194.60   16.94
  10  -2 -15  210.61   19.80
  -9  -2  15   -1.33    1.79
   9   2 -15   -1.58    1.70
   9  -2 -15    0.36    2.50
  -9  -2  15    1.60    2.03
   9   2 -15    0.31    1.87
   9  -2 -15   -2.90    2.13
  -8  -2  15  279.49   19.20
   8  -2 -15  283.62   22.56
   8   2 -15  297.34   21.12
   8   2 -15  281.51   20.25
   8  -2 -15  267.97   22.02
  -8  -2  15  257.39   17.82
  -7  -2  15    6.48    2.13
   7  -2 -15    7.12    2.83
   7   2 -15    3.83    2.35
  -7  -2  15    6.75    2.25
  -7  -2  15    6.53    2.01
   7  -2 -15    5.14    3.01
   7   2 -15    8.21    2.63
  -6   2  15  801.53   30.45
  -6  -2  15  761.86   33.07
   6   2 -15  805.72   36.46
  -6  -2  15  752.53   35.20
   6  -2 -15  676.48   37.46
  -6  -2  15  774.71   35.43
   5  -2 -15    7.54    2.58
  -5  -2  15    7.39    2.38
   5  -2 -15    4.50    2.16
  -5   2  15    1.82    1.27
   5   2 -15    7.77    2.96
  -5  -2  15   10.17    2.39
  -5  -2  15    7.12    2.54
  -4  -2  15  130.79   12.51
  -4  -2  15  122.28   16.86
   4  -2 -15   85.26   12.66
   4  -2 -15  136.11   16.57
   4   2 -15  113.61   11.16
  -4   2  15  147.61   11.25
  -3  -2  15    9.44    2.57
   3  -2 -15    4.21    1.87
   3   2 -15    1.70    1.52
   3  -2 -15    2.66    2.07
  -3   2  15    2.63    1.39
  -3  -2  15    5.21    3.00
  -2  -2  15    8.04    3.40
   2  -2 -15    6.19    2.42
   2   2 -15    8.83    2.30
  -2   2  15    4.89    2.48
   2  -2 -15    1.92    1.78
   2  -2 -15   13.48    3.50
  -2  -2  15    2.04    1.52
   1  -2 -15    4.49    1.76
   1  -2 -15   10.75    2.89
  -1  -2  15    7.51    2.01
   1  -2 -15   10.48    2.03
  -1  -2  15    7.62    4.48
   1   2 -15    4.84    1.99
   0  -2  15  215.82   17.62
   0   2 -15  242.26   15.19
   0  -2 -15  232.23   14.59
   0  -2 -15  250.43   17.55
   0  -2  15  231.81   20.89
   0  -2 -15  227.88   18.70
  -1  -2 -15   -3.26    1.55
  -1   2 -15    0.33    1.39
  -1  -2 -15   -0.47    1.69
   1  -2  15   -2.41    1.61
   1  -2  15   -2.02    1.46
   2  -2  15  661.02   38.80
  -2  -2 -15  661.19   32.24
  -2   2 -15  694.70   27.35
   2  -2  15  656.06   34.58
  -2  -2 -15  674.78   35.54
  -3  -2 -15    3.38    2.43
   3  -2  15    1.02    2.05
  -3  -2 -15    3.64    2.28
   3  -2  15    2.39    1.68
  -4  -2 -15  144.95   13.84
   4  -2  15  121.64   18.21
  -4  -2 -15  108.64   14.66
   4  -2  15  133.89   16.66
   5  -2  15    0.07    1.68
  -5  -2 -15    4.15    2.50
   5  -2  15    1.94    2.10
  -5  -2 -15   -1.74    2.02
  -6  -2 -15  365.47   24.21
  -6  -2 -15  335.56   22.97
   6  -2  15  374.24   29.21
   6   2  15  323.57   21.63
   6  -2  15  357.19   25.30
   7   2  15   19.86    4.87
   7  -2  15   12.09    3.82
   7  -2  15   17.50    4.92
  -7  -2 -15    6.57    2.50
  -7  -2 -15    9.12    2.46
   8   2  15  605.07   31.74
   8  -2  15  596.83   35.68
  -8  -2 -15  589.99   32.52
   8  -2  15  614.65   40.28
  -8  -2 -15  604.70   33.83
   9   2  15    2.07    1.75
   9  -2  15    0.21    3.31
  -9  -2 -15    8.04    2.71
   9  -2  15   -0.74    2.98
  -9  -2 -15    7.06    3.30
  10   2  15   16.93    4.36
  10  -2  15   22.09    8.88
  10  -2  15   19.16    7.38
 -10  -2 -15   22.26    8.74
 -11  -2 -15    3.05    5.42
  11   2  15    3.86    3.48
  11  -2  15   -0.66    3.73
  11  -2  15    4.54    5.67
  12   2  15   -0.90    3.62
  12  -2  15    4.97    4.80
 -12  -2 -15    0.87    5.27
  12  -2  15    0.13    4.97
  13  -2  15    0.69    6.33
  14  -2  15   10.50    8.66
  14  -3 -15  100.71   19.15
 -14  -3  15  108.20   18.01
  13  -3 -15    1.14    7.55
  13   3 -15    2.42    5.19
  13  -3 -15    5.04    4.97
 -13  -3  15    2.13    4.91
  12   3 -15   22.87    8.51
  12  -3 -15   20.56    8.76
 -12  -3  15   33.24    9.97
 -12  -3  15   28.24    7.59
  12  -3 -15   33.65   11.72
  12   3 -15   22.04    7.56
  11  -3 -15   82.05   16.33
  11  -3 -15   96.99   18.45
  11   3 -15   86.48   15.03
 -11  -3  15   91.40   13.08
  11   3 -15   93.38   15.24
 -11  -3  15   83.24   13.86
  10  -3 -15  557.39   36.18
  10  -3 -15  543.56   38.36
 -10  -3  15  594.92   32.34
  10   3 -15  570.66   33.60
 -10  -3  15  580.14   33.21
  10   3 -15  546.49   33.72
   9  -3 -15  384.85   28.08
  -9  -3  15  438.55   27.74
   9  -3 -15  473.39   33.92
   9   3 -15  407.49   27.84
  -9  -3  15  419.62   26.86
   9   3 -15  450.35   28.18
   8  -3 -15  500.71   33.62
   8   3 -15  410.67   25.66
   8  -3 -15  389.61   27.76
  -8  -3  15  422.49   26.71
  -8  -3  15  444.18   27.56
   7  -3 -15   67.79   11.64
   7   3 -15  106.67   13.27
   7  -3 -15   89.42   15.51
  -7  -3  15   74.86   12.30
  -7  -3  15   75.24   11.31
   6  -3 -15   23.53    5.60
   6  -3 -15   27.58    6.85
  -6  -3  15   22.69    5.24
  -6  -3  15   31.89    6.96
   6   3 -15   15.57    3.62
   5   3 -15   21.98    4.90
   5  -3 -15   24.36    6.07
   5  -3 -15   15.49    4.19
  -5  -3  15   18.60    3.81
  -5  -3  15   15.39    4.37
  -5  -3  15   20.08    5.53
  -4  -3  15   98.01   14.29
  -4   3  15  111.38    9.38
   4  -3 -15  110.16   16.43
   4   3 -15  117.33   11.17
  -4  -3  15  113.72   10.87
   4  -3 -15  106.25   13.30
   3   3 -15    5.33    1.92
  -3  -3  15    9.77    4.64
   3  -3 -15    1.43    1.95
  -3  -3  15   10.23    2.31
   3  -3 -15    4.80    1.90
   2  -3 -15   -0.90    2.09
   2   3 -15    2.82    1.92
  -2  -3  15    0.01    2.02
   2  -3 -15   -0.08    2.01
  -2  -3  15    6.47    2.43
   2  -3 -15    2.91    1.77
   1   3 -15   18.90    3.60
   1  -3 -15   15.89    4.97
  -1  -3  15   19.12    4.07
   1  -3 -15   18.29    4.97
   0  -3 -15   82.56   13.87
   0  -3 -15   73.02   11.15
   0  -3  15   60.73   13.52
   0   3 -15   75.79    7.47
   0  -3  15   68.97   11.89
  -1  -3 -15    0.76    2.05
   1  -3  15    2.92    2.05
  -1  -3 -15   -0.65    2.00
   1  -3  15   -0.09    2.33
   2  -3  15   39.52   10.55
   2  -3  15   19.87    4.85
  -2  -3 -15   31.67    7.17
  -2  -3 -15   13.87    4.49
  -3  -3 -15  121.83   16.85
   3  -3  15  129.17   17.44
   3  -3  15  143.10   21.74
  -3  -3 -15  143.16   17.29
   4  -3  15  435.40   29.34
  -4  -3 -15  426.19   29.37
   4  -3  15  463.64   35.71
  -4  -3 -15  457.89   28.62
   5  -3  15  336.46   26.49
   5  -3  15  296.68   28.50
  -5  -3 -15  299.26   23.93
  -5  -3 -15  344.11   24.55
   6  -3  15  404.77   34.86
   6  -3  15  437.53   31.05
  -6  -3 -15  429.62   28.86
  -6  -3 -15  455.94   30.29
  -7  -3 -15   39.36   10.36
  -7  -3 -15   30.19    9.05
   7  -3  15   29.48   10.11
   7   3  15   28.81    5.80
   7  -3  15   31.44    9.55
   8   3  15    6.98    2.69
   8  -3  15    2.14    4.06
  -8  -3 -15    3.26    5.63
   8  -3  15    7.23    6.92
  -8  -3 -15    5.71    5.39
   9   3  15   21.67    5.60
   9  -3  15    9.79    8.35
  -9  -3 -15   16.99    8.70
   9  -3  15   25.13    8.85
 -10  -3 -15   47.91   12.00
  10  -3  15   49.28   13.23
  10  -3  15   28.80   11.97
  11  -3  15   11.90    9.86
 -11  -3 -15   12.07    7.45
  12  -3  15    5.59   11.18
 -12  -4  15   40.03   10.79
 -11  -4  15  466.31   31.50
  11  -4 -15  399.58   35.68
 -11  -4  15  382.67   30.78
  11  -4 -15  401.45   35.61
  10   4 -15    4.28    4.28
  10   4 -15    3.10    4.92
 -10  -4  15    4.51    5.07
  10  -4 -15   15.37    7.89
 -10  -4  15   13.00    6.63
  10  -4 -15    5.82    6.03
  -9  -4  15    1.04    5.02
   9   4 -15   -1.07    3.71
   9  -4 -15    3.30    4.55
  -9  -4  15    3.40    4.64
   9  -4 -15   12.51    7.61
   8   4 -15    1.46    4.20
  -8  -4  15    5.19    5.32
   8  -4 -15    6.80    6.00
  -8  -4  15   -0.92    3.89
   8  -4 -15    0.40    4.41
  -7  -4  15  418.24   30.51
   7  -4 -15  440.09   35.63
   7   4 -15  419.93   27.64
  -7  -4  15  484.58   33.19
   7  -4 -15  443.64   29.73
   6   4 -15   23.48    5.63
   6  -4 -15   25.28    5.64
  -6  -4  15   36.33   10.13
  -6  -4  15    9.98    6.04
   6  -4 -15   35.34   11.70
  -5  -4  15  218.89   23.88
   5  -4 -15  192.29   16.27
   5   4 -15  196.67   15.51
   5  -4 -15  196.78   26.20
  -5  -4  15  226.41   20.54
   4  -4 -15    3.94    5.50
  -4  -4  15    0.10    4.66
   4   4 -15    3.71    2.23
  -3  -4  15   -4.78    3.58
   3  -4 -15   -1.20    4.05
   3   4 -15    0.01    2.14
  -2  -4  15    5.63    4.80
   2  -4 -15    7.32    6.29
  -2  -4  15   12.74    3.23
  -1  -4  15    4.12    3.84
  -1  -4  15    5.83    2.81
   1  -4 -15    4.06    4.73
   1  -4 -15    6.54    5.92
   0  -4  15    7.60    2.69
   0  -4  15    4.87    4.26
   0  -4 -15    3.68    5.03
   0  -4 -15    0.80    4.42
  -1  -4 -15  320.40   25.90
   1  -4  15  291.71   26.06
  -1  -4 -15  281.83   26.44
   1  -4  15  307.49   23.67
   2  -4  15   14.20    3.58
  -2  -4 -15   24.30    9.15
  -2  -4 -15   21.81    8.52
   2  -4  15   21.71    8.43
  -3  -4 -15  282.24   25.12
   3  -4  15  294.48   25.58
  -3  -4 -15  233.74   27.32
   3  -4  15  237.47   26.74
  -4  -4 -15   18.15    8.33
   4  -4  15    0.88    4.93
  -4  -4 -15    5.84    5.87
   4  -4  15    3.37    4.93
   5  -4  15   10.40    7.73
  -5  -4 -15    9.56    7.55
  -5  -4 -15   10.91    7.98
  -6  -4 -15    6.31    5.44
  -6  -4 -15   23.69    8.81
   7  -4  15  329.16   28.61
  -7  -4 -15  350.41   29.35
  -7  -4 -15  364.13   30.69
  -8  -4 -15   23.40    9.77
   7   5 -15   63.37   11.95
  -3  -5  15    8.69    6.79
  -2  -5  15   -4.98    5.78
  -1  -5  15   33.93   11.60
   0  -5 -15   17.88    9.28
   0  -5  15    2.62    7.23
   1  -5  15   16.22    8.82
   2  -5  15   18.95    7.27
   2  -5  15   14.70    9.75
   3  -5  15  134.81   20.71
   4  -5  15   69.97   15.27
  15   0 -16   -2.41    3.73
  15   0 -16   -1.22    7.92
  14   0 -16   69.57   13.38
  14   0 -16   75.17   13.75
  13   0 -16   -0.86    4.44
  13   0 -16    0.48    3.23
  12   0 -16   94.20   13.92
  12   0 -16  116.12   17.29
  11   0 -16    1.26    2.12
  11   0 -16   -4.10    1.94
  10   0 -16   58.44   10.71
  10   0 -16   49.91    8.92
   9   0 -16    0.76    1.95
   9   0 -16    3.95    1.73
   8   0 -16   -1.60    1.65
  -8   0  16   -1.15    1.72
   8   0 -16    1.00    1.65
   7   0 -16    1.53    1.68
  -7   0  16    1.11    1.66
   7   0 -16    2.67    1.93
   6   0 -16  876.51   37.89
   6   0 -16  847.78   39.12
  -6   0  16  811.56   37.09
   5   0 -16    0.95    1.45
   5   0 -16   -0.01    1.43
  -5   0  16    0.74    1.40
   4   0 -16 1861.70   61.99
  -4   0  16 1769.43   63.73
   4   0 -16 1750.58   63.52
  -3   0  16   -1.20    1.36
   3   0 -16   -0.54    1.66
   3   0 -16   -0.60    1.37
  -2   0  16  215.41   16.34
   2   0 -16  199.96   15.72
   2   0 -16  190.08   13.97
   1   0 -16   -2.04    1.43
   1   0 -16   -0.58    1.30
  -1   0  16    3.38    1.61
   1   0 -16    2.07    1.39
   0   0 -16  303.37   15.93
   0   0  16  279.24   19.47
   0   0 -16  291.68   17.31
   1   0  16   -1.14    1.10
  -1   0 -16    4.03    1.47
   1   0  16    4.78    2.12
  -1   0 -16   -1.01    1.49
  -1   0 -16    3.02    1.41
   2   0  16  390.36   23.80
  -2   0 -16  391.48   22.03
  -2   0 -16  404.25   20.16
   2   0  16  352.28   23.05
  -2   0 -16  419.50   19.91
   3   0  16   -0.12    1.58
  -3   0 -16   -0.94    1.43
  -3   0 -16   -0.59    1.52
   3   0  16    2.43    1.27
  -3   0 -16    0.55    1.48
   4   0  16   -0.12    1.38
   4   0  16    4.02    1.74
  -4   0 -16   -0.64    1.63
  -4   0 -16    1.93    1.55
  -5   0 -16   -1.46    1.77
  -5   0 -16    0.88    1.64
   5   0  16   -0.06    1.58
   5   0  16    1.01    1.73
  -6   0 -16    5.79    2.08
  -6   0 -16    8.24    2.42
   6   0  16    7.83    2.76
   6   0  16   11.81    4.34
  -6   0 -16   17.95    3.66
   7   0  16    1.16    1.86
  -7   0 -16   -2.61    1.69
  -7   0 -16   -0.16    1.83
   7   0  16    0.46    1.58
  -8   0 -16  478.44   25.15
   8   0  16  411.63   28.20
   8   0  16  375.98   25.73
  -8   0 -16  435.70   24.02
  -9   0 -16   -0.27    2.25
  -9   0 -16    1.27    1.95
   9   0  16    0.03    1.95
   9   0  16    1.62    2.01
 -10   0 -16  446.99   25.55
 -10   0 -16  429.69   25.78
  10   0  16  398.79   28.54
  10   0  16  404.51   29.71
  11   0  16   -2.87    3.07
  11   0  16    2.23    4.49
 -11   0 -16   -2.39    2.79
  12   0  16   37.42   10.72
  12   0  16   34.61   10.05
 -12   0 -16   31.51    8.88
  13   0  16   -2.57    5.08
  13   0  16   -1.43    3.56
 -13   0 -16    0.43    4.78
 -14   0 -16  115.78   17.28
  15  -1 -16  199.70   25.35
  15  -1 -16  166.65   21.98
  15   1 -16  210.33   20.08
  14   1 -16  151.70   18.94
  14   1 -16  168.70   21.00
  14  -1 -16  148.94   20.64
  14  -1 -16  167.82   22.54
  13   1 -16   58.15   12.07
  13  -1 -16   56.27   12.97
  13   1 -16   72.29   12.91
  13  -1 -16   81.34   15.88
  12   1 -16   -0.18    3.51
  12   1 -16   -2.46    3.63
  12  -1 -16    2.44    4.45
  12  -1 -16    2.91    4.62
  11  -1 -16    4.57    3.11
  11   1 -16    2.65    2.97
  11  -1 -16    1.09    2.41
  11   1 -16    2.74    3.07
  10   1 -16   11.99    5.05
  10  -1 -16    8.28    3.24
  10  -1 -16    7.32    2.35
 -10  -1  16   11.15    2.72
  10   1 -16   10.32    3.52
   9   1 -16   69.05   11.69
  -9  -1  16   80.64   10.31
   9  -1 -16   79.21   12.31
   9   1 -16   99.66   13.50
   9  -1 -16   67.09   11.72
   8  -1 -16  251.25   20.34
   8   1 -16  248.24   18.67
   8   1 -16  259.96   19.67
  -8  -1  16  258.73   16.76
   8  -1 -16  284.71   20.40
   7   1 -16  296.54   20.77
   7  -1 -16  282.98   21.47
   7  -1 -16  266.37   19.46
   7   1 -16  268.71   19.45
  -7   1  16  312.75   17.70
  -6   1  16  280.74   17.04
  -6  -1  16  283.66   20.90
   6  -1 -16  240.51   19.57
   6   1 -16  269.96   19.09
   6   1 -16  266.65   19.50
   6  -1 -16  270.45   19.12
   5   1 -16   28.97    6.49
  -5   1  16   31.18    5.73
   5  -1 -16   15.44    4.36
   5   1 -16   26.56    5.94
  -5  -1  16   34.27    7.47
  -5  -1  16   36.65    7.30
   5  -1 -16   30.47    7.48
  -4  -1  16   76.36   12.51
   4  -1 -16   67.32   11.49
   4  -1 -16   73.19   10.39
   4   1 -16   68.34   10.35
  -4  -1  16   79.50   11.20
   4   1 -16   62.01   10.01
  -4   1  16   68.61    9.38
   3  -1 -16  397.24   24.93
  -3   1  16  375.12   21.10
   3  -1 -16  365.92   21.36
  -3  -1  16  355.46   24.12
   3   1 -16  354.83   21.80
  -3  -1  16  368.74   22.55
  -2   1  16  842.69   37.14
   2  -1 -16  911.49   35.92
   2   1 -16  872.97   37.78
  -2  -1  16  969.51   40.57
  -2  -1  16  933.62   43.49
   2  -1 -16  948.96   41.62
   2  -1 -16  995.51   38.69
  -1  -1  16  678.87   35.65
   1   1 -16  712.33   32.12
   1  -1 -16  697.67   30.37
   1  -1 -16  702.74   34.12
  -1   1  16  647.76   31.32
   1  -1 -16  695.75   29.93
  -1  -1  16  644.65   32.74
   0  -1 -16  369.07   19.50
   0   1 -16  344.27   20.04
   0  -1 -16  317.13   21.36
   0  -1  16  335.30   23.61
   0   1  16  324.80   21.13
   0  -1  16  332.18   22.03
   0  -1 -16  346.99   19.77
   1   1  16   42.05    8.05
  -1  -1 -16   54.38    5.81
  -1  -1 -16   55.48    8.35
   1  -1  16   51.36    9.42
  -1   1 -16   56.80    8.45
   1  -1  16   56.55   10.71
  -1  -1 -16   51.44    8.84
   2  -1  16    4.31    1.67
  -2  -1 -16    1.17    1.41
  -2  -1 -16   -0.86    1.62
  -2  -1 -16   -0.70    1.49
   2   1  16   -0.24    1.37
   2  -1  16   -1.59    1.36
  -3  -1 -16    3.25    2.37
  -3   1 -16    5.20    1.67
   3   1  16    4.02    2.47
   3  -1  16    4.27    2.25
   3  -1  16   12.58    4.22
  -3  -1 -16    5.25    2.31
   4  -1  16   17.85    5.54
  -4  -1 -16   10.88    2.57
   4   1  16   13.92    4.22
  -4   1 -16   12.57    2.76
  -4  -1 -16    5.54    3.14
   4   1  16   13.15    4.28
   4  -1  16   25.30    6.77
  -5  -1 -16   -0.17    1.95
   5   1  16    7.90    3.08
   5  -1  16    2.46    1.63
  -5  -1 -16    3.02    2.05
   5   1  16    1.95    1.31
   5  -1  16    1.69    2.42
   6   1  16   98.68   14.33
  -6  -1 -16   71.96   11.03
   6  -1  16   78.96   13.14
   6   1  16   88.34   12.96
   6  -1  16   89.47   14.38
  -6  -1 -16  103.53   12.65
   7  -1  16  120.68   16.99
   7   1  16  115.13   14.61
  -7  -1 -16  103.78   13.50
  -7  -1 -16   81.37   11.11
   7   1  16   86.00   13.87
   7  -1  16  111.44   15.84
  -8  -1 -16   74.02   11.37
   8  -1  16   64.01   12.05
   8   1  16   72.77   12.61
   8   1  16   81.20   12.42
  -8  -1 -16   73.79   10.09
   8  -1  16   71.98   12.73
   9  -1  16    0.78    2.19
  -9  -1 -16    4.88    2.65
   9  -1  16    1.07    3.63
   9   1  16    3.70    3.32
   9   1  16    2.31    1.85
 -10  -1 -16   43.88    8.26
  10   1  16   50.62   11.79
  10   1  16   41.34   10.07
  10  -1  16   31.78    9.99
  10  -1  16   49.24   11.52
  11  -1  16   98.14   17.50
 -11  -1 -16   88.44   15.23
  11   1  16  106.25   17.14
  11  -1  16  101.87   18.06
 -11   1 -16   82.31   13.59
  11   1  16  109.67   16.18
  12  -1  16  283.21   26.37
 -12   1 -16  236.10   21.39
  12  -1  16  257.86   23.92
 -12  -1 -16  243.94   22.40
  12   1  16  271.00   25.21
  12   1  16  245.19   22.05
 -13   1 -16  179.69   18.20
  13   1  16  154.90   19.83
 -13  -1 -16  176.71   22.10
  13  -1  16  220.91   24.15
  14  -2 -16   13.23    6.14
  14  -2 -16   22.78   10.82
  14   2 -16   13.66    6.66
  13   2 -16  146.31   20.35
  13   2 -16  140.13   18.78
  13  -2 -16  157.44   23.73
  13  -2 -16  167.71   22.99
  12  -2 -16    2.27    4.13
  12   2 -16    1.06    5.10
  12   2 -16    1.60    4.97
  12  -2 -16   -0.74    4.48
  11  -2 -16    2.83    4.54
  11   2 -16   -1.32    3.61
 -11  -2  16    1.70    2.33
  11   2 -16    1.83    4.68
  11  -2 -16    7.46    5.31
  10   2 -16    5.28    3.82
  10   2 -16    3.82    4.33
  10  -2 -16    8.74    3.99
 -10  -2  16    9.15    3.91
  10  -2 -16    3.40    3.32
  -9  -2  16   23.55    4.22
   9   2 -16   25.58    6.38
  -9  -2  16   30.06    6.02
   9  -2 -16   23.80    6.14
   9  -2 -16   25.52    5.61
   9   2 -16   35.28    8.01
   8   2 -16    0.43    2.34
   8  -2 -16   -4.19    2.65
   8   2 -16   -0.29    1.85
  -8  -2  16    1.53    1.93
   8  -2 -16    3.35    2.28
  -8  -2  16   -1.92    1.86
  -7  -2  16  105.59    9.81
  -7  -2  16  109.09   13.10
   7   2 -16  103.87   13.66
   7  -2 -16   78.09   12.92
  -7  -2  16   79.93   11.66
   7   2 -16  115.84   14.92
   6  -2 -16    3.13    1.79
   6   2 -16    3.92    1.90
  -6  -2  16    0.92    2.13
   6  -2 -16    1.18    2.35
  -6  -2  16    4.99    1.66
  -6  -2  16    1.66    1.72
   5  -2 -16  890.90   46.00
  -5   2  16 1142.13   41.76
  -5  -2  16 1182.07   46.74
  -5  -2  16 1132.76   47.25
  -5  -2  16 1182.51   43.17
   5  -2 -16 1197.26   51.96
   5   2 -16 1153.58   46.20
  -4   2  16   47.55    6.97
   4  -2 -16   35.37    7.83
  -4  -2  16   34.40    8.89
   4   2 -16   39.17    7.40
  -4  -2  16   51.89    9.69
   4  -2 -16   24.90    6.03
   3   2 -16 1062.72   42.75
  -3  -2  16 1046.72   51.19
  -3  -2  16 1020.14   45.44
   3  -2 -16 1035.01   47.65
  -3   2  16 1104.49   42.48
   2  -2 -16    2.87    2.09
   2   2 -16    3.15    1.81
   2  -2 -16    1.21    1.80
  -2  -2  16   -1.37    1.93
  -2  -2  16   -1.78    1.77
   2  -2 -16    2.24    1.90
  -2   2  16    3.38    1.77
   1   2 -16   52.82    8.23
   1  -2 -16   63.32    9.78
  -1   2  16   43.29    7.65
  -1  -2  16   50.66    9.32
  -1  -2  16   52.19   11.43
   1  -2 -16   57.48   10.43
   1  -2 -16   50.36    7.64
   0  -2  16    6.88    2.08
   0  -2  16   -1.64    1.72
   0   2 -16    6.19    1.96
   0  -2 -16    4.71    2.22
   0   2  16    2.88    1.73
   0  -2 -16    7.48    3.33
   1  -2  16  358.56   24.34
  -1   2 -16  373.16   19.63
  -1  -2 -16  345.84   21.92
   1  -2  16  335.19   26.55
  -1  -2 -16  339.99   24.03
  -2  -2 -16    5.19    2.86
  -2   2 -16    3.96    1.57
   2  -2  16   -2.20    1.99
   2  -2  16    3.38    2.10
  -2  -2 -16    4.77    2.17
  -3  -2 -16   39.53    8.41
   3  -2  16   47.51   11.01
  -3  -2 -16   48.71    8.80
   3  -2  16   72.04   12.16
   4  -2  16   -0.70    1.92
   4  -2  16   -0.61    1.65
  -4  -2 -16   -3.67    2.12
  -4  -2 -16    0.65    1.83
  -5  -2 -16    3.39    2.39
  -5  -2 -16   -0.50    2.00
   5  -2  16    9.02    2.83
   5  -2  16   11.87    2.94
   6  -2  16   -1.18    1.91
  -6  -2 -16    0.25    2.33
   6  -2  16    1.23    2.19
  -6  -2 -16   -1.91    2.33
   6   2  16   -0.67    1.52
   7   2  16   24.63    6.38
   7  -2  16   21.14    7.71
  -7  -2 -16   21.70    5.29
  -7  -2 -16   15.60    4.75
   7  -2  16   32.87    9.57
  -8  -2 -16    3.01    2.89
   8  -2  16   -1.53    2.94
   8   2  16    0.12    1.97
  -8  -2 -16    1.43    2.66
   8  -2  16   -2.99    3.40
   9  -2  16  434.22   31.63
   9   2  16  440.87   28.22
  -9  -2 -16  454.48   30.87
  -9  -2 -16  393.08   26.16
   9  -2  16  417.78   34.66
  10  -2  16    7.56    7.53
  10   2  16    6.79    5.03
 -10  -2 -16    8.05    7.35
  10  -2  16    7.25    5.15
  11   2  16  218.08   19.77
 -11  -2 -16  223.50   25.08
  11  -2  16  295.87   26.56
  11  -2  16  268.65   28.56
 -12  -2 -16    6.12    6.41
  12  -2  16   -1.90    6.46
  12   2  16    7.12    5.00
 -12  -3  16   -1.06    4.17
  12  -3 -16   -1.08    4.79
 -12  -3  16   -1.56    4.50
  12   3 -16    5.15    5.71
  12  -3 -16    5.07    7.36
  11   3 -16    6.15    5.18
 -11  -3  16    8.01    5.09
  11  -3 -16   -0.44    5.83
  11   3 -16    3.68    5.06
 -11  -3  16    1.69    4.33
  11  -3 -16   -1.54    4.09
 -10  -3  16    8.77    4.67
  10   3 -16    2.19    4.91
 -10  -3  16   -0.04    2.62
  10  -3 -16    5.39    5.56
  10  -3 -16    3.77    4.68
  10   3 -16    3.48    4.88
   9   3 -16   64.25   13.25
  -9  -3  16   64.34   10.04
   9   3 -16   69.22   12.79
   9  -3 -16   65.22   15.10
   9  -3 -16   60.35   11.64
  -9  -3  16   60.06   10.30
   8   3 -16   70.54   12.34
   8  -3 -16   52.44    9.61
  -8  -3  16   77.96   11.66
   8  -3 -16   54.19   13.68
  -8  -3  16   81.42   12.99
   7  -3 -16  247.44   24.15
  -7  -3  16  241.45   18.52
  -7  -3  16  217.89   18.87
   7  -3 -16  160.81   15.83
   7   3 -16  208.95   17.31
   6   3 -16   86.51   11.57
   6  -3 -16   71.35   13.71
  -6  -3  16   89.05   14.13
   6  -3 -16   53.42    8.91
  -6  -3  16   97.38   12.61
   5   3 -16   97.29   12.14
  -5  -3  16   76.94   11.12
  -5  -3  16   85.10   13.44
   5  -3 -16   89.74   15.78
   5  -3 -16   60.74    9.11
   4  -3 -16   16.18    3.25
   4   3 -16    8.26    2.42
  -4  -3  16   12.11    2.61
   4  -3 -16    3.60    2.50
  -4  -3  16   18.43    5.07
   3   3 -16  436.58   24.02
  -3  -3  16  376.66   25.52
   3  -3 -16  409.22   29.65
  -3  -3  16  402.26   27.19
   3  -3 -16  422.40   23.74
  -3   3  16  457.72   23.89
   2  -3 -16  328.03   22.61
  -2  -3  16  288.29   21.74
   2   3 -16  312.37   19.05
  -2  -3  16  250.62   21.06
   2  -3 -16  314.01   24.87
   1  -3 -16  576.09   32.00
   1   3 -16  589.17   27.46
  -1  -3  16  534.78   32.70
   1  -3 -16  616.41   37.17
   0  -3  16  189.38   20.93
   0  -3 -16  124.10   16.14
   0  -3  16  149.59   18.30
   0  -3 -16  165.32   20.49
   1  -3  16   67.48   11.85
  -1  -3 -16   37.45    8.33
   1  -3  16   47.75   12.10
  -1  -3 -16   49.32    9.63
   2  -3  16   -2.00    2.46
  -2  -3 -16    2.25    2.23
   2  -3  16    4.85    2.78
  -2  -3 -16    4.49    2.41
   3  -3  16   15.13    4.52
  -3  -3 -16   15.40    4.19
   3  -3  16   29.40    9.09
  -3  -3 -16    7.56    2.62
  -4  -3 -16    1.10    2.72
   4  -3  16    0.96    2.34
   4  -3  16    4.50    3.40
  -4  -3 -16    4.54    3.43
  -5  -3 -16    2.84    3.84
   5  -3  16    5.17    4.72
   5  -3  16    3.98    4.51
  -5  -3 -16    5.95    3.68
  -6  -3 -16   39.12   10.50
  -6  -3 -16   23.80    8.38
   6  -3  16   44.14   13.75
   6  -3  16   32.28   10.65
   7  -3  16   79.18   16.11
  -7  -3 -16   61.93   13.51
  -7  -3 -16   61.40   13.88
   7  -3  16   53.52   15.95
   7   3  16   77.68   12.90
   8   3  16   20.02    6.35
   8  -3  16   21.43    7.28
  -8  -3 -16   25.08    9.25
  -8  -3 -16   20.54    8.61
   8  -3  16   54.11   17.10
   9   3  16   17.94    6.74
  -9  -3 -16   15.93    7.08
   9  -3  16    8.42    6.69
   9  -3  16   14.30    9.32
  10  -3  16   13.04   10.86
  11  -3  16  130.40   26.81
 -10  -4  16    7.33    4.75
 -10  -4  16   14.33    7.18
  10  -4 -16    5.21    8.39
  -9  -4  16   -2.65    4.27
   9   4 -16    3.98    4.61
  -9  -4  16    0.75    4.82
   9  -4 -16    2.43    6.37
   9  -4 -16   -1.82    5.55
  -8  -4  16    4.98    4.65
   8  -4 -16    3.62    6.44
  -8  -4  16    0.14    4.69
   8  -4 -16    4.90    5.44
   8   4 -16    5.78    5.62
   7  -4 -16    0.53    4.35
  -7  -4  16   -0.47    4.01
  -7  -4  16   -1.09    4.40
   7   4 -16    1.34    4.43
   7  -4 -16   -3.38    3.72
  -6  -4  16  331.11   26.09
   6   4 -16  279.18   21.70
   6  -4 -16  295.46   28.91
  -6  -4  16  336.71   27.60
   5   4 -16   18.20    4.72
   5  -4 -16   34.00   10.47
  -5  -4  16   35.42   11.11
  -4  -4  16  730.38   42.44
   4   4 -16  664.92   32.80
   4  -4 -16  716.17   46.11
  -3  -4  16   43.72   11.89
   3  -4 -16   22.79    9.62
   2  -4 -16   78.77   16.83
  -2  -4  16   62.55   13.95
  -1  -4  16    4.89    3.07
   1  -4 -16    4.48    5.44
   1  -4 -16    2.14    5.37
  -1  -4  16   -0.88    4.40
   0  -4 -16   60.32   13.24
   0  -4  16   98.38   18.01
   0  -4 -16   85.87   17.12
   0  -4  16   77.58   12.51
  -1  -4 -16    1.26    5.78
   1  -4  16   10.78    4.60
   1  -4  16   12.49    7.18
  -1  -4 -16   16.66    8.02
   2  -4  16  263.90   25.14
   2  -4  16  260.98   28.23
  -2  -4 -16  249.21   23.96
  -2  -4 -16  250.95   28.72
   3  -4  16   -0.21    3.77
  -3  -4 -16    4.34    5.84
   3  -4  16    3.72    5.45
  -3  -4 -16   -4.41    4.83
   4  -4  16    2.71    4.22
  -4  -4 -16   12.37    7.42
  -4  -4 -16    1.34    4.42
   4  -4  16    4.95    7.09
   5  -4  16    7.56    5.29
  -5  -4 -16    6.75    5.82
  -5  -4 -16   -2.25    4.91
  -6  -4 -16   -0.37    5.22
  -6  -4 -16   -1.50    4.98
  14   0 -17   -0.82    3.15
  14   0 -17   -2.55    5.85
  13   0 -17  150.04   20.13
  13   0 -17  208.12   20.29
  12   0 -17    3.35    4.54
  12   0 -17    2.68    4.81
  11   0 -17 1025.44   48.94
  11   0 -17  975.02   45.48
  10   0 -17   -0.78    2.39
  10   0 -17    1.96    2.05
   9   0 -17  553.65   30.42
   9   0 -17  546.42   32.01
  -8   0  17    2.50    1.97
   8   0 -17    5.17    2.72
   8   0 -17    1.01    2.05
  -7   0  17    1.20    1.75
   7   0 -17    0.79    1.77
   7   0 -17    3.94    2.56
   6   0 -17   -2.14    1.59
  -6   0  17    3.02    1.79
   6   0 -17   -0.49    1.66
   5   0 -17  100.59   13.89
   5   0 -17   97.74   10.15
  -5   0  17   77.97   11.34
   4   0 -17    0.50    1.68
  -4   0  17    2.90    1.74
   4   0 -17   -1.14    1.54
   3   0 -17  177.65   15.34
  -3   0  17  164.84   14.57
   3   0 -17  194.83   14.52
   2   0 -17    2.51    2.20
  -2   0  17    3.47    1.91
   2   0 -17    0.83    1.45
   1   0 -17  124.22   12.20
  -1   0  17  107.54   11.60
   1   0 -17  121.99   10.51
   1   0 -17  119.74    9.14
   0   0 -17    1.25    1.54
   0   0  17    0.06    1.36
   0   0  17    0.10    1.63
   0   0 -17    1.16    1.57
   1   0  17  280.55   20.04
  -1   0 -17  260.05   15.00
  -1   0 -17  273.36   16.47
   1   0  17  239.96   18.70
  -1   0 -17  277.89   18.69
   2   0  17    1.05    1.36
  -2   0 -17    0.21    1.60
   2   0  17    0.54    1.68
  -2   0 -17    1.20    1.49
  -2   0 -17    9.33    2.76
   3   0  17 1137.38   49.87
  -3   0 -17 1183.35   41.68
   3   0  17 1223.37   49.93
  -3   0 -17 1175.64   45.43
  -3   0 -17 1212.96   42.46
   4   0  17    0.29    1.53
  -4   0 -17    0.73    1.85
  -4   0 -17   -1.08    1.71
   4   0  17    4.53    2.27
   5   0  17  449.13   27.85
  -5   0 -17  412.74   23.02
   5   0  17  374.76   25.79
  -5   0 -17  438.87   22.47
  -6   0 -17    3.11    1.90
  -6   0 -17   -0.69    2.09
   6   0  17    0.40    1.66
   6   0  17    2.82    1.77
   7   0  17    7.53    3.79
  -7   0 -17   11.99    2.73
   7   0  17   12.19    4.57
   8   0  17    6.44    3.58
   8   0  17    3.77    2.83
  -8   0 -17    4.06    2.30
  -9   0 -17   81.03   10.76
   9   0  17   92.74   15.64
   9   0  17  100.24   16.28
  10   0  17    2.49    4.19
  10   0  17    1.90    3.69
 -10   0 -17   -1.48    2.76
  11   0  17    0.25    3.77
  11   0  17    3.95    6.09
 -11   0 -17    6.96    5.37
  12   0  17    3.06    6.26
 -12   0 -17   -2.13    5.44
  12   0  17    6.26    4.88
 -13   0 -17    4.30    5.55
  14  -1 -17  301.76   27.42
  14   1 -17  314.94   24.86
  14  -1 -17  291.61   25.76
  13   1 -17  427.54   29.10
  13  -1 -17  456.44   32.60
  13   1 -17  455.97   31.79
  13  -1 -17  415.47   31.43
  12   1 -17  181.40   21.89
  12  -1 -17  205.28   23.72
  12  -1 -17  166.99   21.14
  12   1 -17  194.54   18.83
  11   1 -17   38.20   10.26
  11  -1 -17   30.92    8.64
  11  -1 -17   27.51    9.13
  11   1 -17   30.60    8.53
  10  -1 -17   24.42    6.60
  10   1 -17   35.12    9.18
  10   1 -17   36.84    7.61
  10  -1 -17   36.72   10.04
  -9  -1  17  173.72   13.08
   9   1 -17  166.09   15.91
   9  -1 -17  136.64   17.90
   9  -1 -17  162.85   15.70
   9   1 -17  164.45   15.03
   8   1 -17  155.35   15.04
   8  -1 -17  166.55   15.29
   8   1 -17  144.74   13.94
  -8  -1  17  162.44   12.97
   8  -1 -17  175.78   16.86
   7  -1 -17  283.71   21.85
   7   1 -17  262.61   19.52
  -7  -1  17  297.77   19.53
   7  -1 -17  304.18   20.98
   7   1 -17  262.30   20.13
  -6  -1  17   74.02   10.64
   6   1 -17   58.67   10.39
   6  -1 -17   87.18   13.48
  -6   1  17   63.57    9.01
   6  -1 -17   69.76   10.96
   6   1 -17   69.57   11.32
  -6  -1  17   78.82   12.79
  -5   1  17    1.88    1.75
   5  -1 -17    0.79    1.71
   5   1 -17   -0.76    1.74
  -5  -1  17    1.66    1.98
   5  -1 -17    4.61    2.03
  -5  -1  17    5.01    1.66
   5   1 -17    3.60    2.14
  -4  -1  17    0.05    1.79
  -4   1  17    3.13    1.37
   4   1 -17    1.02    1.56
   4  -1 -17    0.01    1.71
   4  -1 -17    0.26    1.80
  -4  -1  17   -0.99    1.54
   4   1 -17    1.54    1.54
   3   1 -17    2.68    1.66
   3  -1 -17    0.76    1.66
   3   1 -17   -2.20    1.59
  -3   1  17   -0.16    1.34
  -3  -1  17   -0.70    1.56
  -3  -1  17   -1.40    1.48
  -2   1  17   81.84   11.01
   2   1 -17   83.16   11.26
  -2  -1  17   76.88   11.77
  -2  -1  17   69.38   12.11
   2  -1 -17   91.21   13.37
   2  -1 -17   85.09    8.77
   1  -1 -17  218.78   15.20
   1  -1 -17  237.37   18.67
  -1   1  17  210.22   16.26
  -1  -1  17  221.82   19.19
   1  -1 -17  254.54   16.29
   1   1 -17  245.89   17.16
  -1  -1  17  224.17   18.05
   0  -1 -17  296.89   21.37
   0  -1  17  360.24   23.64
   0  -1 -17  333.05   19.53
   0  -1 -17  353.38   19.13
   0  -1  17  321.21   23.74
   0   1 -17  298.45   19.24
   0   1  17  321.62   21.18
  -1  -1 -17  580.95   25.83
  -1   1 -17  585.20   28.00
   1  -1  17  594.39   34.16
  -1  -1 -17  563.47   30.87
   1   1  17  592.80   31.38
   1  -1  17  592.73   32.24
  -1  -1 -17  545.76   26.93
   2  -1  17  131.41   16.04
  -2  -1 -17  138.84   11.96
   2   1  17  153.58   14.45
  -2  -1 -17  172.72   15.09
  -2   1 -17  160.23   12.07
   2  -1  17  135.26   14.97
   3   1  17    4.29    1.67
  -3   1 -17    4.61    2.00
  -3  -1 -17    2.71    2.07
   3  -1  17    5.74    2.04
  -3  -1 -17    1.98    1.90
   3   1  17    4.20    1.95
   3  -1  17    2.27    2.30
  -4  -1 -17   13.52    3.56
   4   1  17   28.04    6.96
   4  -1  17   25.53    6.98
  -4  -1 -17   27.66    5.57
   4   1  17   29.01    6.57
   4  -1  17   25.92    6.65
  -5  -1 -17  244.92   18.37
  -5  -1 -17  257.60   18.04
   5   1  17  239.02   19.73
   5  -1  17  207.17   19.63
   5   1  17  218.81   18.00
   6   1  17  238.45   20.02
  -6  -1 -17  253.38   18.43
   6   1  17  233.08   19.17
   6  -1  17  217.19   19.13
   6  -1  17  235.93   21.26
  -6  -1 -17  226.45   17.05
   7  -1  17  193.29   19.16
  -7  -1 -17  205.75   15.96
   7   1  17  203.86   18.88
  -7  -1 -17  172.09   15.18
   7  -1  17  213.43   20.32
   7   1  17  230.82   19.03
  -8  -1 -17   75.78   10.06
   8   1  17   74.35   13.98
   8  -1  17   80.11   14.78
   8   1  17   67.51   12.61
   8  -1  17   63.59   13.30
  -8  -1 -17   75.15   11.18
   9  -1  17   10.12    5.38
   9  -1  17   14.38    7.00
   9   1  17    4.43    4.16
   9   1  17    4.54    5.63
  -9  -1 -17   -0.35    3.01
  10   1  17    5.77    4.88
  10  -1  17    0.66    4.37
  10   1  17    5.19    5.29
 -10  -1 -17    1.38    4.78
  10  -1  17   -1.05    3.92
 -11  -1 -17    2.58    6.02
  11  -1  17    2.38    4.14
  11   1  17   -2.78    3.96
  11   1  17    4.05    5.90
  11  -1  17    4.19    5.61
  12  -1  17    4.01    7.34
 -12  -1 -17    8.29    5.58
  12   1  17    3.81    4.18
  13  -2 -17    2.30    9.09
  13   2 -17    7.13    5.45
  13  -2 -17   -0.84    4.26
  12  -2 -17  627.14   41.49
  12   2 -17  639.72   36.96
  12  -2 -17  635.11   40.79
  12   2 -17  615.53   37.51
  11   2 -17   11.86    7.49
  11  -2 -17   16.30    8.98
  11  -2 -17    6.48    4.72
  11   2 -17    9.78    6.22
  10   2 -17  845.51   42.52
 -10  -2  17  790.25   36.50
  10   2 -17  757.85   41.21
  10  -2 -17  834.11   46.11
  10  -2 -17  809.85   46.13
  -9  -2  17    8.69    2.60
   9  -2 -17    6.23    3.21
   9   2 -17   13.33    5.57
   9  -2 -17   10.51    6.67
   9   2 -17    7.73    5.63
   8  -2 -17   53.67    9.91
  -8  -2  17   63.04    9.82
   8   2 -17   53.32   10.45
   8   2 -17   34.95    7.02
   7  -2 -17    2.69    2.93
   7   2 -17    6.02    2.53
   7   2 -17    2.70    2.08
  -7  -2  17    6.53    2.65
  -6  -2  17   21.31    5.82
   6  -2 -17   15.10    4.34
   6   2 -17   19.00    4.97
  -6  -2  17    9.01    2.52
   6  -2 -17   19.54    4.19
   6   2 -17    9.63    3.15
   5  -2 -17    0.45    2.17
   5   2 -17    1.55    1.89
  -5   2  17    2.59    1.62
   5  -2 -17   -1.99    2.69
  -5  -2  17    1.53    2.15
  -5  -2  17    2.04    2.12
  -4  -2  17   11.95    3.00
  -4  -2  17   14.54    4.56
   4   2 -17    9.97    3.29
   4  -2 -17   13.55    3.72
   4  -2 -17    6.05    2.34
  -4   2  17    8.48    2.53
   3   2 -17   -1.55    1.73
   3  -2 -17    1.73    2.16
  -3   2  17    2.25    1.96
  -3  -2  17   -2.31    2.13
   3  -2 -17    1.66    2.35
  -3  -2  17   -0.66    2.04
   2  -2 -17   87.81   13.81
   2  -2 -17   76.86   11.08
  -2  -2  17  107.37   16.96
   2   2 -17  101.62   10.26
  -2  -2  17  106.30   14.64
   2  -2 -17   82.54   11.42
  -2   2  17   98.45    9.78
   1  -2 -17   19.99    5.38
   1  -2 -17   23.61    5.08
  -1  -2  17    7.23    2.72
   1   2 -17   12.98    3.52
  -1   2  17   14.82    4.53
  -1  -2  17   17.42    4.58
   0  -2  17    3.38    3.33
   0  -2  17    1.59    1.81
   0   2 -17    2.99    1.90
   0  -2 -17    2.01    1.79
   0   2  17    0.52    1.81
   0  -2 -17    3.79    2.45
  -1  -2 -17    0.47    2.17
  -1  -2 -17    0.02    2.00
   1  -2  17    1.44    1.69
  -1   2 -17    0.58    1.78
   1   2  17    4.78    2.05
   1  -2  17   -0.43    2.18
  -2  -2 -17  697.12   38.37
   2   2  17  697.64   36.27
  -2  -2 -17  767.71   35.69
   2  -2  17  713.59   38.44
   2  -2  17  746.54   43.38
  -3  -2 -17   17.79    4.64
  -3  -2 -17   23.26    5.60
   3  -2  17   32.70    7.11
   3  -2  17   20.72    6.10
  -4  -2 -17  719.45   38.07
  -4  -2 -17  662.14   34.22
   4  -2  17  659.46   41.67
   4  -2  17  641.80   37.20
   5  -2  17    0.22    2.17
  -5  -2 -17    1.56    2.52
   5  -2  17   -0.58    2.55
  -5  -2 -17    5.03    2.67
   5   2  17    1.25    1.75
   6  -2  17   75.66   14.91
   6  -2  17   68.94   14.94
  -6  -2 -17   58.99    9.43
  -6  -2 -17   65.73   11.24
   6   2  17   56.05   10.47
   7  -2  17   -0.89    4.48
   7   2  17    0.95    2.93
   7  -2  17   -1.00    3.35
  -7  -2 -17   -3.10    2.83
  -7  -2 -17   -4.01    2.89
   8  -2  17   66.04   14.22
   8   2  17   70.06   13.28
   8  -2  17   66.01   15.99
  -8  -2 -17   71.96   14.00
  -8  -2 -17   50.43    9.55
   9  -2  17   10.33    6.93
  -9  -2 -17    5.38    4.75
   9  -2  17   23.20    9.99
   9   2  17    7.65    5.00
  -9  -2 -17    5.67    6.24
 -10  -2 -17   26.25    8.43
  10  -2  17   19.95    8.37
  10   2  17   20.28    7.31
  10  -2  17   21.30   10.90
 -11  -2 -17    1.04    5.48
  11   2  17    1.13    3.64
  11  -2  17    2.57    7.13
  12  -3 -17  204.47   27.76
  11  -3 -17    4.74    4.80
  11   3 -17    7.25    5.45
  11   3 -17    4.33    5.34
 -11  -3  17    1.62    5.44
  11  -3 -17   13.02    8.12
  10  -3 -17   27.49   10.45
  10   3 -17   28.45    8.85
 -10  -3  17   37.83    9.65
  10  -3 -17   21.68    7.82
  10   3 -17   25.17    7.79
   9  -3 -17   42.27   11.53
   9   3 -17   68.80   14.04
  -9  -3  17   45.19   10.47
   9  -3 -17   64.92   14.59
   9   3 -17   49.88   11.43
   8   3 -17  243.76   21.17
   8  -3 -17  153.33   19.69
   8   3 -17  243.35   21.74
   8  -3 -17  246.66   27.85
  -8  -3  17  217.99   17.37
  -8  -3  17  223.39   20.63
  -7  -3  17   73.58   10.81
   7  -3 -17   45.61    8.34
   7   3 -17   72.09   12.69
  -7  -3  17   80.45   13.93
   7  -3 -17   87.14   16.93
   6  -3 -17   34.90   11.10
  -6  -3  17   27.35    7.69
  -6  -3  17   14.31    3.94
   6   3 -17   20.25    4.28
   6  -3 -17   12.11    3.21
   5  -3 -17    3.38    5.13
  -5  -3  17    2.99    2.77
   5  -3 -17   -2.47    2.71
   5   3 -17    1.58    2.14
   4   3 -17   -1.05    2.20
   4  -3 -17   -1.37    3.94
  -4  -3  17   -1.49    2.91
  -4  -3  17   -1.54    2.46
   4  -3 -17    0.75    2.65
  -3  -3  17   16.19    5.29
   3   3 -17   10.95    2.77
   3  -3 -17    4.59    4.84
  -3   3  17   12.59    3.50
  -3  -3  17    9.81    2.91
  -2  -3  17   22.44    3.93
   2  -3 -17   16.52    4.54
  -2   3  17   26.37    5.40
   2   3 -17   28.96    5.01
  -2  -3  17   29.49    8.21
   2  -3 -17   22.70    7.90
  -1  -3  17   65.87   10.47
   1  -3 -17   76.98   11.64
   1  -3 -17   83.08   16.01
   0  -3 -17  380.30   29.77
   0  -3 -17  377.72   25.55
   0  -3  17  381.63   32.23
   0  -3  17  430.94   29.34
  -1  -3 -17  188.53   23.42
   1  -3  17  163.90   16.33
   1  -3  17  186.32   25.72
  -1  -3 -17  149.19   18.20
   2  -3  17  175.42   25.79
  -2  -3 -17  184.39   23.01
   2  -3  17  148.36   19.83
  -2  -3 -17  152.48   18.39
   3  -3  17    3.86    4.99
  -3  -3 -17   -2.21    2.87
  -3  -3 -17    4.82    5.15
   3  -3  17    3.80    7.15
   4  -3  17   60.67   16.26
  -4  -3 -17   40.87   11.06
  -4  -3 -17   48.93   13.10
   4  -3  17   68.61   15.41
  -5  -3 -17   85.44   16.42
   5  -3  17   57.96   15.90
  -5  -3 -17   81.19   15.11
   5  -3  17   68.19   14.66
  -6  -3 -17  204.14   23.76
   6  -3  17  206.64   25.01
   6   3  17  207.51   18.93
  -6  -3 -17  214.26   24.95
   6  -3  17  220.24   31.79
  -7  -3 -17   58.31   14.27
  -7  -3 -17   46.31   11.38
   7  -3  17   55.42   13.73
   7  -3  17   62.61   17.47
   7   3  17   48.18   11.06
   8  -3  17  116.17   24.58
  -8  -3 -17  129.36   20.14
   8   3  17  103.77   15.35
  -8  -3 -17   89.23   17.32
   9   3  17   13.55    5.70
   9  -3  17    8.78   12.02
  -9  -3 -17   10.78    6.96
  -9  -4  17  266.69   23.60
   9  -4 -17  171.73   26.46
  -8  -4  17   -5.27    3.78
   8  -4 -17    5.85    7.63
   8   4 -17    1.77    4.31
  -8  -4  17   -1.73    4.51
  -7  -4  17    0.50    4.31
   7  -4 -17   -0.83    4.64
   7   4 -17   -1.05    4.63
  -7  -4  17    2.30    5.40
  -6  -4  17    5.00    5.25
   6  -4 -17    0.33    6.77
   6   4 -17    0.19    3.97
   5   4 -17    6.59    5.14
  -5  -4  17   15.66    7.80
   5  -4 -17   18.03    9.19
   4  -4 -17   -0.77    4.96
  -4  -4  17    4.40    5.28
   3  -4 -17   54.49   13.66
  -3  -4  17   39.01   11.10
  -2  -4  17   12.17    7.18
   2  -4 -17   18.08    8.51
  -1  -4  17   27.35   10.69
  -1  -4  17   26.05    5.22
   1  -4 -17   21.56    8.60
   1  -4 -17   31.27    9.97
   0  -4 -17    5.97    5.13
   0  -4 -17    0.88    5.11
   0  -4  17    1.01    5.92
   0  -4  17    3.49    4.31
   1  -4  17   96.88   17.43
  -1  -4 -17   98.98   17.49
  -1  -4 -17  112.45   20.49
   1  -4  17   74.97   17.39
  -2  -4 -17   15.10    7.29
  -2  -4 -17   12.14    7.31
   2  -4  17    9.19    6.70
   2  -4  17    5.78    5.78
   3  -4  17  419.41   35.29
  -3  -4 -17  522.31   38.52
  -3  -4 -17  439.67   32.54
   3  -4  17  489.17   36.32
   4  -4  17    4.36    4.78
  -4  -4 -17   11.72    7.11
  -4  -4 -17   18.16    8.04
   4  -4  17   20.21   11.17
   5  -4  17  150.99   23.69
  13   0 -18    2.50    3.80
  13   0 -18   -4.14    4.75
  12   0 -18    3.11    4.67
  12   0 -18    8.13    5.03
  11   0 -18    1.73    3.42
  11   0 -18   -1.70    3.42
  10   0 -18  387.21   26.15
  10   0 -18  428.14   29.50
   9   0 -18    0.55    2.01
   9   0 -18   -0.48    3.10
   8   0 -18  602.70   32.20
   8   0 -18  564.72   33.24
  -7   0  18   -2.00    2.12
   7   0 -18    1.64    1.79
   7   0 -18    2.08    1.99
   6   0 -18    5.79    2.28
  -6   0  18    2.88    2.24
   6   0 -18    7.63    2.33
  -5   0  18    1.20    1.86
   5   0 -18    3.78    2.22
   5   0 -18    2.28    1.81
   4   0 -18  745.90   37.46
   4   0 -18  799.38   35.67
  -4   0  18  776.25   37.79
   3   0 -18   -1.52    1.79
  -3   0  18   -0.10    1.68
   3   0 -18    2.10    1.61
   2   0 -18  655.12   33.94
   2   0 -18  700.88   31.71
  -2   0  18  655.77   34.47
   1   0 -18    1.95    1.90
  -1   0  18   -0.14    1.36
   1   0 -18   -0.51    1.63
  -1   0  18   -1.18    1.60
   0   0 -18   12.05    2.25
   0   0  18   10.60    3.71
   0   0 -18   10.60    2.20
   0   0 -18   14.61    3.40
   0   0  18    7.32    2.86
  -1   0 -18    1.77    1.73
   1   0  18    2.47    1.55
  -1   0 -18    2.97    1.58
  -1   0 -18   -0.52    1.80
   1   0  18   -2.42    1.54
  -2   0 -18    1.51    1.81
   2   0  18    4.65    2.30
   2   0  18    2.39    1.48
  -2   0 -18    7.85    2.50
  -2   0 -18    6.22    1.80
  -3   0 -18    0.70    2.09
   3   0  18    1.21    1.51
  -3   0 -18    2.13    1.92
   3   0  18   -0.22    1.76
  -4   0 -18  152.99   12.80
   4   0  18  142.78   14.74
   4   0  18  125.37   16.15
  -4   0 -18  137.71   11.07
   5   0  18    1.94    1.98
  -5   0 -18   -0.66    2.26
  -5   0 -18    1.02    2.17
   5   0  18   -0.34    1.90
   6   0  18  160.36   16.49
  -6   0 -18  169.62   13.13
   6   0  18  184.31   18.20
   7   0  18    1.96    3.85
   7   0  18   -1.05    2.83
  -7   0 -18   -1.95    2.55
   8   0  18    3.12    5.35
   8   0  18    1.19    3.17
  -8   0 -18    0.97    3.02
   9   0  18    3.96    5.31
   9   0  18   -2.19    4.22
  10   0  18  327.57   27.49
  10   0  18  357.83   28.17
  11   0  18   -0.12    4.99
  13  -1 -18    3.62    7.09
  13   1 -18    1.73    5.85
  12   1 -18   21.52    8.45
  12  -1 -18   16.09    6.23
  12   1 -18   14.15    6.37
  12  -1 -18    9.97    7.16
  11  -1 -18   50.24   11.77
  11  -1 -18   33.79    9.07
  11   1 -18   48.03   12.26
  11   1 -18   48.01   11.16
  10  -1 -18   15.91    5.86
  10  -1 -18   21.02    7.98
  10   1 -18   23.93    8.47
  10   1 -18   15.41    6.62
  -9  -1  18   21.92    3.73
  -9  -1  18   16.80    3.38
   9  -1 -18   19.53    5.36
   9   1 -18   16.27    5.60
   9  -1 -18   32.80    9.83
   9   1 -18    6.68    5.42
  -8  -1  18  204.27   15.96
  -8  -1  18  195.94   14.91
   8  -1 -18  177.00   20.84
   8  -1 -18  199.10   17.14
   8   1 -18  224.76   19.42
   8   1 -18  193.24   16.80
   7  -1 -18  430.58   29.07
   7   1 -18  439.94   26.66
  -7  -1  18  491.79   26.92
   7   1 -18  388.88   26.38
   7  -1 -18  424.39   26.42
  -6   1  18  693.73   32.80
  -6  -1  18  726.21   35.09
   6  -1 -18  720.99   35.55
   6  -1 -18  732.44   39.02
  -6  -1  18  669.93   37.53
   6   1 -18  742.41   37.17
   6   1 -18  707.70   35.51
   5   1 -18  356.67   23.61
   5  -1 -18  422.08   24.67
  -5  -1  18  375.21   23.52
  -5  -1  18  386.15   26.50
   5  -1 -18  360.13   25.75
   5   1 -18  363.51   23.25
  -5   1  18  350.57   21.59
  -4  -1  18  210.43   17.12
   4   1 -18  237.88   18.17
   4  -1 -18  229.05   16.79
  -4  -1  18  214.96   18.96
  -4   1  18  190.08   15.06
   4  -1 -18  192.36   17.71
   4   1 -18  194.10   15.98
  -3  -1  18   10.62    3.12
   3   1 -18   21.86    5.12
  -3   1  18   14.91    4.08
   3  -1 -18   24.65    4.11
  -3  -1  18   17.14    3.84
   3   1 -18   16.75    4.03
   3  -1 -18   16.63    4.10
   2   1 -18   34.03    6.49
   2   1 -18   17.53    4.12
  -2  -1  18   38.34    8.97
   2  -1 -18   18.92    3.51
   2  -1 -18   22.42    5.27
  -2  -1  18   36.40    7.52
  -2   1  18   27.03    6.04
  -1  -1  18  104.01   15.61
   1   1 -18   95.02   12.35
   1  -1 -18  139.71   11.37
   1  -1 -18  131.37   16.02
  -1  -1  18  110.00   14.84
   1  -1 -18  112.13   10.00
  -1   1  18  122.22   12.05
   0  -1  18   94.30   14.41
   0  -1 -18   85.44   12.94
   0  -1 -18   88.67    8.70
   0  -1  18   98.66   14.07
   0   1 -18   84.70   11.36
   0   1  18   96.67   12.82
   0  -1 -18  109.32    9.50
  -1  -1 -18    9.95    2.95
  -1  -1 -18    9.16    2.28
   1   1  18   17.96    5.02
   1  -1  18   16.50    4.70
   1  -1  18   13.21    4.42
  -2   1 -18    1.74    1.91
  -2  -1 -18    0.26    2.13
  -2  -1 -18    2.81    2.14
   2   1  18    2.96    2.77
   2  -1  18    1.76    1.73
   2  -1  18    3.14    2.14
  -3   1 -18   10.91    2.33
   3   1  18   22.02    5.79
  -3  -1 -18   19.11    4.23
   3   1  18   34.21    7.70
  -3  -1 -18   12.54    3.47
   3  -1  18   19.28    6.21
   3  -1  18   21.11    5.55
  -4  -1 -18    4.38    2.46
  -4  -1 -18   11.06    2.96
   4   1  18    4.00    2.21
   4  -1  18    7.56    3.16
   4   1  18    4.43    2.44
   4  -1  18   -0.31    1.71
   5   1  18   19.15    5.70
  -5  -1 -18   16.16    4.27
   5   1  18   33.31    8.07
  -5  -1 -18   33.56    5.74
   5  -1  18   22.65    6.74
   5  -1  18   22.83    7.18
   6  -1  18   89.01   15.82
   6   1  18   84.77   14.57
  -6  -1 -18   70.53   10.47
   6   1  18   62.11   12.14
  -6  -1 -18   65.40    9.78
   6  -1  18   81.38   14.86
  -7  -1 -18  127.22   11.74
   7   1  18  140.16   18.48
   7   1  18  141.12   19.04
  -7  -1 -18  139.58   13.10
   7  -1  18  146.07   20.83
   7  -1  18  133.40   19.36
   8   1  18  299.87   25.21
   8  -1  18  266.40   24.60
  -8  -1 -18  286.65   20.83
   8   1  18  247.54   22.26
   8  -1  18  303.00   26.87
   9  -1  18  149.50   20.76
   9  -1  18  128.84   20.39
   9   1  18  143.26   20.34
  -9  -1 -18  137.88   17.91
   9   1  18  153.36   19.16
  10   1  18   54.43   12.98
 -10  -1 -18   63.17   13.32
  10  -1  18   66.33   14.74
  10   1  18   47.58   10.96
  10  -1  18   55.23   14.04
 -11  -1 -18   -5.42    4.40
  11   1  18   -0.40    3.90
  12  -2 -18    0.39    3.40
  12   2 -18    6.49    5.71
  12  -2 -18   -2.92    6.54
  11   2 -18   52.62   11.38
  11  -2 -18   72.49   15.39
  11  -2 -18   74.17   16.73
  11   2 -18   64.74   13.66
  10   2 -18    5.11    5.84
 -10  -2  18    0.28    2.51
  10  -2 -18    0.70    5.67
  10  -2 -18   -3.75    3.34
  10   2 -18    6.02    5.33
   9  -2 -18  598.03   37.85
  -9  -2  18  622.26   32.31
   9   2 -18  617.92   36.00
   8   2 -18   11.32    5.28
   8   2 -18   15.35    6.76
   8  -2 -18   10.68    3.16
  -8  -2  18   15.44    3.94
   7   2 -18  133.47   16.95
   7  -2 -18  117.46   18.84
   7   2 -18  108.55   15.28
  -7  -2  18  110.31   14.17
   7  -2 -18  134.43   14.25
  -6  -2  18   -0.12    2.12
   6  -2 -18    1.40    4.06
   6  -2 -18   -2.32    2.82
   6   2 -18    1.40    2.18
  -6  -2  18    0.28    2.62
   6   2 -18   -2.81    2.03
  -5  -2  18  247.17   19.21
   5   2 -18  202.59   16.71
   5   2 -18  224.05   18.55
   5  -2 -18  197.77   19.61
   5  -2 -18  181.10   16.82
  -5  -2  18  219.18   18.22
  -4  -2  18    3.24    2.60
   4  -2 -18    5.11    2.76
  -4   2  18    2.39    1.85
   4   2 -18    4.93    2.37
   4  -2 -18    3.44    2.22
  -4  -2  18    3.11    2.32
  -3  -2  18  825.71   40.51
   3  -2 -18  693.65   35.90
   3   2 -18  779.56   35.86
   3  -2 -18  749.87   40.62
  -3  -2  18  730.66   42.89
  -3   2  18  713.53   33.60
  -2   2  18   18.92    4.55
   2   2 -18   19.96    4.35
   2  -2 -18    8.78    3.56
  -2  -2  18    8.59    2.21
  -2  -2  18    7.65    3.93
   1  -2 -18  201.76   18.75
  -1  -2  18  168.00   18.74
  -1  -2  18  201.30   18.19
   1  -2 -18  168.42   14.78
   1   2 -18  179.42   14.13
  -1   2  18  203.60   16.09
   0   2 -18   -2.12    1.99
   0  -2  18    1.79    2.45
   0  -2  18    0.24    2.07
   0  -2 -18    0.11    2.28
   0   2  18   -1.73    2.06
   0  -2 -18   -2.22    2.36
   1  -2  18    7.91    4.37
   1   2  18    6.73    2.66
   1  -2  18   10.69    3.90
  -1  -2 -18   21.34    6.11
  -1  -2 -18    6.89    2.58
   2  -2  18   -0.36    2.01
   2   2  18   -0.12    2.06
  -2  -2 -18    0.87    2.20
  -2  -2 -18    1.46    2.48
   2  -2  18    0.98    2.59
  -3  -2 -18   25.00    5.15
  -3  -2 -18   23.57    5.55
   3   2  18   20.37    5.21
   3  -2  18   16.95    6.34
   3  -2  18   37.38    9.20
   4  -2  18   -1.60    2.97
   4   2  18    0.22    2.38
  -4  -2 -18    1.73    2.54
   4  -2  18    0.98    3.31
  -4  -2 -18    3.75    2.67
  -5  -2 -18  211.69   18.04
   5   2  18  215.08   19.64
   5   2  18  204.98   19.95
  -5  -2 -18  231.97   20.27
   5  -2  18  199.42   26.10
   5  -2  18  215.38   21.54
  -6  -2 -18    5.82    3.91
  -6  -2 -18   -2.61    3.31
   6  -2  18    9.78    5.89
   6  -2  18    6.70    6.37
   6   2  18    2.94    3.76
  -7  -2 -18   29.73    8.38
  -7  -2 -18   22.61    8.84
   7   2  18   38.11   10.22
   7  -2  18   43.96   11.98
   7  -2  18   22.66    9.37
  -8  -2 -18    3.36    5.28
   8  -2  18    2.99    4.80
   8  -2  18   -0.38    5.36
  -8  -2 -18    1.21    5.18
   8   2  18   -1.94    4.05
  -9  -2 -18  113.41   17.62
   9  -2  18  159.19   25.87
   9   2  18  146.71   18.79
 -10  -2 -18    1.85    5.96
  10   2  18    1.57    3.36
  11  -3 -18   15.02    9.55
 -10  -3  18    6.57    5.78
  10   3 -18    4.55    4.16
  10  -3 -18    3.14    6.99
  -9  -3  18    4.63    5.04
   9  -3 -18    2.10    7.23
   9   3 -18   12.87    7.07
   9   3 -18    6.62    4.44
   9  -3 -18   -0.74    5.66
  -8  -3  18   74.19   14.26
   8   3 -18   80.60   15.39
   8  -3 -18  106.61   19.50
   8  -3 -18   63.93   14.27
   8   3 -18   96.12   15.93
   7  -3 -18  471.11   36.19
  -7  -3  18  535.73   33.84
   7   3 -18  495.73   31.07
  -6  -3  18  381.23   28.18
   6  -3 -18  331.15   28.93
   6   3 -18  343.24   24.44
   6  -3 -18  233.15   19.80
  -5  -3  18  344.72   26.87
   5  -3 -18  336.74   29.44
   5   3 -18  304.18   21.80
  -4  -3  18   52.87   12.44
   4  -3 -18   43.72   12.36
   4   3 -18   47.97    7.48
  -3  -3  18   18.82    7.98
   3   3 -18   29.15    4.24
   3  -3 -18   22.35    9.59
  -3  -3  18   27.27    4.59
   2  -3 -18   12.32    7.06
  -2  -3  18    5.47    3.12
  -2  -3  18   29.03    9.35
  -2   3  18   21.09    4.53
   1  -3 -18  174.24   23.90
  -1  -3  18  133.53   17.73
  -1   3  18  174.11   14.59
   1  -3 -18  165.68   19.27
   0  -3  18   21.29    5.27
   0  -3 -18    6.34    4.49
   0  -3 -18   11.58    7.47
   0  -3  18    8.15    7.99
  -1  -3 -18    1.50    3.97
  -1  -3 -18    3.13    5.01
   1  -3  18    5.96    5.11
   1  -3  18    6.46    6.60
   2  -3  18   -0.36    5.19
  -2  -3 -18    2.43    5.41
   2  -3  18    5.28    4.20
  -2  -3 -18   -2.32    4.93
   3  -3  18   11.48    6.84
  -3  -3 -18   13.86    7.18
   3  -3  18   15.25    9.63
  -3  -3 -18   10.98    7.03
   4  -3  18   -6.81    4.26
  -4  -3 -18   -0.26    4.97
   4  -3  18   -3.37    3.06
  -4  -3 -18   -2.54    5.03
  -5  -3 -18   -1.46    5.41
   5  -3  18    7.72    7.35
   5  -3  18    2.75    3.29
  -5  -3 -18   -1.65    5.34
  -6  -3 -18   37.58   11.27
   6  -3  18   47.14   16.38
  -6  -3 -18   50.60   12.66
   6   3  18   36.58    9.85
   6  -3  18   35.40   10.60
   7   3  18  207.82   19.17
  -7  -3 -18  190.13   24.20
  -7  -3 -18  214.99   25.15
   7  -3  18  163.80   29.30
   8   3  18  113.32   16.16
  -8  -3 -18  126.44   20.01
   7   4 -18    0.00    3.82
   6   4 -18    6.42    5.13
  -5  -4  18    1.70    4.99
  -4  -4  18  368.19   30.45
  -3  -4  18   28.76   11.08
  -2  -4  18  250.17   27.83
  -1  -4  18    5.67    5.76
   0  -4 -18   -0.91    5.38
   0  -4  18   -3.63    4.48
   0  -4  18   -3.37    5.17
   1  -4  18    9.01    5.71
   1  -4  18    8.25    9.27
  -1  -4 -18    6.88    6.07
   2  -4  18    1.19    4.56
  -2  -4 -18   10.75    7.05
   3  -4  18    0.93    4.41
  12   0 -19    2.02    3.72
  12   0 -19    0.63    5.47
  11   0 -19   73.36   14.55
  11   0 -19  101.73   15.62
  10   0 -19    3.72    5.89
  10   0 -19    4.72    4.61
   9   0 -19  201.39   18.32
   9   0 -19  199.25   20.26
   8   0 -19    0.92    3.91
   8   0 -19    0.22    2.17
   7   0 -19   -0.26    3.40
  -7   0  19    0.24    2.43
   7   0 -19    0.73    2.27
   6   0 -19    0.85    2.35
  -6   0  19    2.67    2.25
   6   0 -19   -1.87    2.06
   5   0 -19    1.56    1.98
   5   0 -19   -1.15    2.10
  -5   0  19    3.93    2.23
   4   0 -19   -0.34    1.98
   4   0 -19   -3.57    2.02
  -4   0  19    0.64    1.98
   3   0 -19  363.19   21.80
  -3   0  19  333.11   23.50
   3   0 -19  354.30   24.33
  -2   0  19    0.31    1.82
   2   0 -19    3.02    1.77
   2   0 -19    2.05    2.14
  -2   0  19    2.07    1.66
  -1   0  19  762.44   38.08
   1   0 -19  798.73   34.57
  -1   0  19  764.68   39.13
   0   0  19   -2.32    1.58
   0   0 -19   -1.61    1.85
   0   0 -19   -0.54    2.03
   0   0  19    1.18    1.50
   1   0  19  189.07   17.33
  -1   0 -19  216.00   14.51
   1   0  19  198.66   17.43
  -1   0 -19  195.78   16.00
   2   0  19   -0.60    1.77
  -2   0 -19   -0.18    2.14
   2   0  19    3.99    2.43
   3   0  19  216.62   19.24
  -3   0 -19  211.81   16.60
   3   0  19  261.88   21.31
  -4   0 -19   -4.06    2.48
   4   0  19    0.63    3.42
   4   0  19    2.12    2.38
   5   0  19  329.37   25.59
   6   0  19    0.57    3.74
   6   0  19   -0.56    3.75
   7   0  19    4.63    5.20
   7   0  19    0.00    4.22
   8   0  19   -2.08    4.72
   8   0  19    1.24    3.12
   9   0  19    1.24    5.29
   9   0  19   -0.53    3.44
  12  -1 -19  349.98   28.90
  12   1 -19  327.20   25.97
  11  -1 -19  233.96   22.41
  11   1 -19  194.46   22.90
  11  -1 -19  207.46   21.40
  11   1 -19  204.24   20.50
  10   1 -19   89.11   14.71
  10  -1 -19   85.77   15.26
  10   1 -19  105.17   17.43
  10  -1 -19   97.40   16.70
   9  -1 -19   -0.75    3.46
   9   1 -19   15.95    6.85
   9  -1 -19    3.73    4.53
   9   1 -19    1.24    4.95
  -8  -1  19   23.68    5.23
   8   1 -19    9.02    4.92
   8  -1 -19   14.84    7.11
   8  -1 -19   14.70    4.10
   8   1 -19   17.86    7.12
  -8  -1  19   18.35    3.53
   7   1 -19    4.56    2.29
   7   1 -19    0.53    2.94
  -7  -1  19    1.66    2.23
   7  -1 -19    3.00    2.41
   7  -1 -19    0.44    4.04
  -6  -1  19   11.29    3.16
   6   1 -19    6.84    2.84
   6  -1 -19   13.79    3.90
   6  -1 -19   12.22    5.94
   6   1 -19    7.71    2.68
  -6  -1  19   17.87    4.61
   5   1 -19   47.93    8.87
   5  -1 -19   44.23    7.16
   5   1 -19   51.72    8.92
  -5  -1  19   53.43   10.18
   5  -1 -19   52.23   10.92
  -5   1  19   43.98    7.14
  -5  -1  19   56.98    9.64
  -4  -1  19  123.82   17.20
   4  -1 -19  115.94   11.38
  -4   1  19  116.26   11.47
   4   1 -19  118.41   12.04
   4   1 -19  140.83   13.78
  -4  -1  19  106.53   14.12
   3  -1 -19  140.04   12.47
  -3  -1  19  122.61   17.09
   3   1 -19  112.18   14.20
   3  -1 -19  107.84   15.22
   3   1 -19  117.28   12.04
  -3   1  19  126.68   12.17
  -3  -1  19  133.85   13.44
  -2   1  19    6.43    2.85
   2  -1 -19    2.15    1.92
  -2  -1  19    7.45    2.98
   2  -1 -19    7.01    3.06
   2   1 -19    9.88    3.15
   2   1 -19    7.90    2.62
  -2  -1  19    4.24    3.11
   1   1 -19   22.27    4.12
   1   1 -19   31.66    5.74
  -1   1  19   26.63    6.42
   1  -1 -19   38.56    7.73
  -1  -1  19   42.51    8.81
  -1  -1  19   27.51    7.44
   1  -1 -19   34.94    5.99
   0  -1  19  165.69   17.19
   0   1  19  162.96   15.04
   0  -1 -19  175.52   13.72
   0   1 -19  178.36   14.79
   0  -1  19  197.63   17.72
   0  -1 -19  155.29   15.22
   1  -1  19  400.22   27.71
  -1  -1 -19  372.56   21.87
   1   1  19  376.06   24.95
   1  -1  19  386.05   28.01
  -1  -1 -19  400.27   26.33
  -1   1 -19  385.49   22.54
  -2  -1 -19  451.89   28.05
   2   1  19  394.56   26.30
   2  -1  19  432.72   30.21
  -2   1 -19  397.71   22.55
  -2  -1 -19  456.16   24.54
   2  -1  19  416.35   28.45
   2   1  19  428.94   27.86
  -3  -1 -19  309.64   22.79
   3   1  19  340.02   24.10
   3   1  19  291.13   23.27
   3  -1  19  322.35   26.03
  -3  -1 -19  325.38   20.19
  -4  -1 -19   35.32    6.99
  -4  -1 -19   24.42    4.94
   4  -1  19   36.54   10.00
   4   1  19   48.32   10.36
   4  -1  19   34.72    9.78
   4   1  19   30.72    8.95
   5  -1  19    0.83    3.60
   5   1  19   -2.96    2.49
   5   1  19    8.39    5.62
  -5  -1 -19    2.67    2.70
  -5  -1 -19   -1.28    2.75
   5  -1  19   -2.01    4.35
   6  -1  19   12.41    5.92
   6   1  19    6.99    6.35
  -6  -1 -19    9.41    3.18
   6  -1  19   11.19    7.11
  -6  -1 -19    4.52    3.03
   6   1  19    3.78    4.72
   7  -1  19   26.83    9.20
  -7  -1 -19   17.88    4.63
   7   1  19   16.31    7.37
   7   1  19   13.00    6.87
   7  -1  19   24.88    9.22
   8   1  19   -2.49    2.94
   8   1  19    3.95    5.22
  -8  -1 -19    4.59    5.37
   8  -1  19    3.33    6.29
   8  -1  19    0.43    3.84
   9  -1  19    8.10    7.32
  -9  -1 -19   -2.56    5.12
   9   1  19    2.13    4.42
   9   1  19    1.14    6.03
 -10  -1 -19   21.65    8.01
  11  -2 -19    7.10    9.01
  10   2 -19  247.50   23.08
  10   2 -19  293.38   25.11
  10  -2 -19  301.58   27.24
   9   2 -19   -3.23    4.02
  -9  -2  19    2.81    3.38
   9   2 -19    1.09    5.22
   9  -2 -19    1.88    5.22
  -8  -2  19   70.22   11.13
   8  -2 -19   58.77   13.69
   8   2 -19   56.63   11.97
   8  -2 -19   50.85   10.52
   8   2 -19   52.03   11.87
   7   2 -19   -0.57    3.81
   7  -2 -19    1.45    3.25
   7   2 -19   -2.70    3.67
   7  -2 -19   -0.65    3.67
  -7  -2  19    0.21    2.52
   6   2 -19   12.70    5.29
   6  -2 -19   12.45    7.03
   6   2 -19   17.74    6.88
  -6  -2  19   13.79    3.16
   6  -2 -19   20.73    4.39
  -6  -2  19   10.87    4.09
   5  -2 -19    0.21    3.42
  -5  -2  19    0.38    2.78
   5   2 -19    0.84    2.91
  -5  -2  19    0.34    2.33
   5  -2 -19    4.40    3.09
   5   2 -19    1.36    2.33
   4  -2 -19   20.69    4.72
   4   2 -19   18.40    3.99
   4  -2 -19   20.87    8.08
  -4   2  19   24.27    4.30
  -4  -2  19   28.46    8.76
  -4  -2  19   23.78    4.57
   3  -2 -19    6.08    5.75
  -3   2  19    1.75    1.84
  -3  -2  19    2.76    2.52
  -3  -2  19    1.80    2.43
   3   2 -19    1.86    2.42
  -2   2  19  646.49   32.60
  -2  -2  19  628.36   40.72
  -2  -2  19  681.26   37.63
   2  -2 -19  624.76   38.48
   2   2 -19  694.83   33.05
   1  -2 -19    5.71    2.61
  -1   2  19    2.86    2.12
  -1  -2  19    4.94    2.91
  -1  -2  19    6.37    3.85
   1  -2 -19    3.68    4.02
   1   2 -19    6.04    2.19
   0  -2 -19  446.30   26.48
   0  -2  19  493.07   35.63
   0  -2  19  435.84   29.96
   0   2  19  476.68   28.20
   0  -2 -19  443.69   31.43
   1   2  19    3.03    2.78
   1  -2  19    3.21    4.60
  -1  -2 -19    1.57    3.70
   1  -2  19    3.86    4.69
  -1  -2 -19   -0.11    2.69
   2  -2  19    6.74    4.81
   2  -2  19   15.29    7.64
   2   2  19    7.70    3.46
  -2  -2 -19    9.44    5.04
  -2  -2 -19   10.82    3.00
  -3  -2 -19    1.82    2.67
   3  -2  19    2.48    3.56
   3   2  19   -1.51    3.02
   3  -2  19    1.87    4.85
  -3  -2 -19    3.78    4.86
   4  -2  19  333.94   27.93
   4  -2  19  361.53   31.81
  -4  -2 -19  307.52   26.26
   4   2  19  336.43   26.33
   4   2  19  359.23   26.17
  -4  -2 -19  339.51   23.95
   5  -2  19    1.87    6.43
   5  -2  19    2.12    4.42
  -5  -2 -19    6.70    6.11
   5   2  19   -1.21    3.81
   5   2  19   10.09    6.28
  -5  -2 -19   -0.44    5.45
  -6  -2 -19   87.73   15.33
   6   2  19   43.82   10.82
  -6  -2 -19   62.19   13.11
   6   2  19   66.88   13.33
   6  -2  19   72.90   15.05
   6  -2  19   52.93   14.32
   7   2  19   -0.12    2.91
   7   2  19    1.74    4.17
  -7  -2 -19    4.44    5.76
   7  -2  19    2.96    4.07
  -7  -2 -19    0.84    4.77
   7  -2  19   -0.84    5.70
  -8  -2 -19   -0.10    5.06
   8   2  19    2.83    3.98
   8  -2  19   -1.66    6.63
  -8  -2 -19   -2.58    4.70
  -9  -2 -19   -0.96    5.25
 -10  -3  19   37.94    9.69
  10  -3 -19   39.74   12.12
  -9  -3  19   -0.85    4.18
   9  -3 -19    1.84    7.55
   8   3 -19   11.82    8.98
  -8  -3  19   17.79    8.37
   8  -3 -19   11.49    7.74
   8   3 -19    6.15    4.82
   7  -3 -19    1.61    4.30
   7  -3 -19   -3.76    4.36
   7   3 -19    9.18    6.64
   7   3 -19    0.65    4.70
  -7  -3  19    4.85    5.26
   6   3 -19   -3.18    4.48
   6  -3 -19   -2.17    4.24
  -6  -3  19    3.18    4.97
   5   3 -19    8.78    5.98
   5  -3 -19    5.61    5.53
  -5  -3  19   18.83    7.72
   4   3 -19  156.95   15.40
   4  -3 -19  174.46   24.48
  -4  -3  19  176.38   21.97
  -3  -3  19   73.48   12.53
   3  -3 -19   98.72   17.90
  -3  -3  19   80.49   15.12
  -2  -3  19    5.03    6.17
  -2  -3  19    3.33    4.05
  -2   3  19   16.71    3.89
   2  -3 -19   17.94    9.58
  -1  -3  19   15.48    7.18
  -1   3  19   24.27    5.40
   1  -3 -19   18.09    8.63
   1  -3 -19   21.21    8.05
   0   3  19  157.66   15.38
   0  -3  19  171.64   23.57
   0  -3 -19  176.16   20.90
   0  -3 -19  163.94   23.90
   0  -3  19  194.11   28.20
   1  -3  19  192.57   25.01
  -1  -3 -19  190.12   22.11
   1   3  19  217.10   19.69
  -1  -3 -19  223.53   26.74
   1  -3  19  226.33   30.32
  -2  -3 -19  412.14   30.13
   2  -3  19  479.68   40.54
  -2  -3 -19  392.68   32.54
   2  -3  19  443.52   34.11
  -3  -3 -19   85.52   15.71
   3  -3  19  103.14   18.49
   3  -3  19   96.60   21.88
  -3  -3 -19  105.56   18.51
  -4  -3 -19   40.54   11.29
   4  -3  19   37.06   15.11
   4  -3  19   34.93   11.10
  -4  -3 -19   26.67    8.79
   5  -3  19   -3.73    3.12
  -5  -3 -19   -2.89    5.10
   5  -3  19    0.90    7.15
  -5  -3 -19    3.71    5.18
  -6  -3 -19   31.16    9.85
   1  -4  19   44.08   11.97
  11   0 -20    3.47    6.53
  10   0 -20   81.54   14.39
  10   0 -20   96.08   16.91
   9   0 -20    6.20    4.99
   9   0 -20    2.57    4.21
   8   0 -20  812.31   44.78
   8   0 -20  819.74   40.82
   7   0 -20    4.22    2.98
   7   0 -20    0.63    3.75
   6   0 -20  566.69   35.45
  -6   0  20  640.31   35.05
   6   0 -20  646.00   33.67
   5   0 -20    1.96    3.91
   5   0 -20    0.82    2.07
  -5   0  20   -0.76    2.29
   4   0 -20   10.75    2.65
  -4   0  20    9.67    2.87
   4   0 -20    7.25    3.49
   3   0 -20    1.53    2.00
   3   0 -20   -3.15    2.38
  -3   0  20   -0.66    1.83
  -3   0  20    2.65    2.11
  -2   0  20   83.89   13.24
  -2   0  20   72.70   12.14
   2   0 -20  102.65    9.74
  -1   0  20    0.90    2.18
  -1   0  20    5.20    2.96
   1   0 -20    2.14    1.98
   1   0 -20   -1.45    2.57
   0   0  20   10.07    3.43
   0   0 -20   11.60    3.03
   0   0 -20   12.73    4.43
   0   0  20   14.11    5.66
   1   0  20    1.22    3.12
   1   0  20    3.70    2.32
  -1   0 -20    1.47    2.38
   2   0  20   14.00    6.88
  -2   0 -20   14.44    3.20
   2   0  20   15.55    5.19
   3   0  20   -0.56    3.58
  -3   0 -20    2.28    2.68
   3   0  20   -2.70    3.07
   4   0  20   67.50   13.76
   4   0  20   65.30   13.38
   5   0  20   -3.34    3.43
   5   0  20    2.79    5.56
   6   0  20  484.22   33.43
   7   0  20   -0.69    2.83
   7   0  20   -6.76    3.91
   8   0  20  172.56   22.89
  11  -1 -20  184.83   22.98
  10   1 -20  286.91   24.68
  10  -1 -20  262.78   24.92
  10   1 -20  261.83   23.88
  10  -1 -20  308.03   25.75
   9  -1 -20  175.22   20.67
   9   1 -20  114.77   17.87
   9  -1 -20  153.95   21.69
   9   1 -20  157.37   19.51
   8   1 -20   43.05   11.01
   8  -1 -20   43.26   11.25
   8  -1 -20   32.68    8.23
  -8  -1  20   44.86    6.85
   8   1 -20   40.72    9.88
   7  -1 -20   20.29    5.29
   7   1 -20   23.58    7.78
   7   1 -20   36.42    9.57
  -7  -1  20   10.97    3.25
   7  -1 -20   22.00    8.81
   6   1 -20  223.68   19.04
   6   1 -20  209.54   20.08
   6  -1 -20  222.15   22.00
   6  -1 -20  216.99   17.24
  -6  -1  20  216.78   19.64
  -6  -1  20  235.91   18.34
   5   1 -20  220.00   17.79
  -5  -1  20  274.82   20.31
  -5  -1  20  200.50   19.27
   5   1 -20  225.56   20.25
  -5   1  20  255.91   18.17
   5  -1 -20  192.23   15.91
   4   1 -20  229.23   18.05
  -4  -1  20  253.04   22.12
   4  -1 -20  260.65   18.40
   4   1 -20  238.24   19.68
  -4  -1  20  265.78   20.47
   4  -1 -20  265.62   23.60
  -4   1  20  260.45   19.03
   3   1 -20   79.32   11.37
  -3   1  20   81.63   11.80
   3   1 -20   90.45   12.38
   3  -1 -20   91.11    9.22
  -3  -1  20   97.21   14.31
  -3  -1  20   87.73   14.49
   3  -1 -20   87.39   15.10
   2  -1 -20    7.50    3.74
   2   1 -20   10.77    3.12
   2   1 -20    8.98    2.63
  -2   1  20    7.42    2.47
  -2  -1  20    8.86    3.08
  -2  -1  20   14.20    4.44
  -1  -1  20    1.04    2.61
  -1  -1  20    0.96    2.37
  -1   1  20    3.35    2.29
   1   1 -20    1.77    2.38
   1  -1 -20   -1.29    2.63
   1   1 -20    0.48    2.27
   0  -1 -20    1.66    2.47
   0   1 -20    3.91    2.21
   0  -1  20   -0.39    2.55
   0  -1 -20    0.64    2.44
   0   1  20   -0.73    2.07
   0  -1  20    1.75    3.28
  -1  -1 -20    6.32    2.92
  -1   1 -20    7.19    2.46
   1  -1  20    4.32    3.87
  -1   1 -20   15.30    2.96
   1  -1  20    3.69    3.93
   1   1  20    3.18    2.69
  -1  -1 -20    7.12    2.89
   1   1  20    9.92    5.36
  -2  -1 -20   48.07    9.10
   2  -1  20   84.59   15.91
   2  -1  20   62.18   13.33
  -2  -1 -20   76.83   10.26
   2   1  20   58.40   11.20
   2   1  20   66.94   13.40
   3  -1  20  102.19   16.71
   3   1  20   88.70   15.22
  -3  -1 -20   67.49    9.21
   3  -1  20   97.77   17.39
  -3  -1 -20   86.29   13.35
   3   1  20   87.81   14.88
   4   1  20  162.13   17.83
   4  -1  20  139.38   20.96
  -4  -1 -20  182.04   16.60
   4  -1  20  150.91   20.04
  -4  -1 -20  151.80   13.41
   4   1  20  168.07   20.26
   5   1  20   92.70   15.82
   5  -1  20   80.34   14.84
  -5  -1 -20   66.42   10.16
  -5  -1 -20   81.63   12.53
   5  -1  20   79.57   16.35
   5   1  20   63.02   13.39
   6  -1  20   -0.53    4.89
   6  -1  20    2.45    3.98
  -6  -1 -20    5.42    3.79
   6   1  20    6.72    4.95
   6   1  20   -1.49    2.84
   7   1  20   26.37    8.13
   7   1  20   22.74    8.69
   7  -1  20   13.66    6.68
  -7  -1 -20   11.78    6.87
   7  -1  20   11.78    8.52
  -8  -1 -20  111.44   16.82
  10  -2 -20    1.17    7.75
   9  -2 -20  400.97   31.75
   9   2 -20  363.44   28.09
  -8  -2  20    9.30    6.13
   8   2 -20    7.94    4.85
   8  -2 -20   11.49    6.44
   8  -2 -20    2.39    5.86
   8   2 -20   13.74    7.30
   7  -2 -20  756.78   45.29
   7   2 -20  778.15   41.87
   7   2 -20  754.99   41.44
   7  -2 -20  784.79   43.87
  -7  -2  20  773.69   40.18
  -6  -2  20    6.38    5.10
   6   2 -20   10.54    6.05
   6  -2 -20    9.83    3.68
   6  -2 -20   11.90    6.97
   6   2 -20   13.69    6.93
   5   2 -20   56.00   12.05
  -5  -2  20   45.33    8.64
  -5  -2  20   52.76   11.95
   5   2 -20   39.99   10.50
   5  -2 -20   77.42   15.65
   4   2 -20    8.93    4.66
   4  -2 -20    2.92    5.22
  -4  -2  20    5.66    3.00
   4   2 -20    1.87    4.15
  -4  -2  20    7.05    5.96
  -3  -2  20   23.20    9.40
  -3  -2  20   23.77    5.58
   3   2 -20   14.34    3.38
  -3   2  20   15.19    3.24
   3  -2 -20    8.09    6.16
  -2   2  20    1.81    2.07
   2   2 -20   -0.50    2.54
   2  -2 -20    2.70    5.17
  -2  -2  20    1.45    5.54
  -2  -2  20    0.86    3.55
   1  -2 -20   43.73    7.59
  -1   2  20   34.80    6.31
  -1  -2  20   44.89   11.16
   1  -2 -20   36.61   11.11
  -1  -2  20   20.96    9.22
   0  -2  20   -1.82    3.48
   0  -2  20    1.77    5.35
   0  -2 -20   -1.97    2.85
   0   2  20    1.19    2.27
   0  -2 -20   -2.41    4.52
   1  -2  20   27.37    9.52
   1   2  20   19.73    7.47
  -1  -2 -20   19.00    4.48
   1  -2  20   34.61   12.27
  -1  -2 -20   13.69    7.82
   2   2  20    9.83    6.17
  -2  -2 -20    5.44    5.83
   2  -2  20    5.10    4.54
  -2  -2 -20    0.02    3.43
   2  -2  20   -0.46    4.79
   3  -2  20    5.21    4.25
   3  -2  20    2.37    5.28
  -3  -2 -20   -1.33    4.24
   3   2  20    5.75    4.77
  -3  -2 -20    4.81    5.52
  -4  -2 -20    9.58    6.39
   4  -2  20    1.42    6.44
   4   2  20    9.19    5.49
   4   2  20    6.09    4.18
   4  -2  20   -1.45    3.21
  -4  -2 -20   -0.21    4.90
  -5  -2 -20  286.39   25.72
   5  -2  20  301.05   31.04
  -5  -2 -20  276.04   23.08
   5  -2  20  276.08   25.65
   5   2  20  282.30   24.47
   5   2  20  219.39   21.09
   6  -2  20    4.22    6.01
   6   2  20    2.99    4.65
  -6  -2 -20    6.69    6.74
   6   2  20   -5.16    3.49
  -6  -2 -20   -1.48    4.78
  -7  -2 -20  333.67   26.31
  -7  -2 -20  331.68   27.06
   9  -3 -20  117.95   20.88
  -8  -3  20   13.05    6.83
  -7  -3  20   26.94    8.63
   7   3 -20   17.14    6.25
   6   3 -20   35.11    9.51
  -6  -3  20   61.61   13.40
  -5  -3  20  270.96   24.49
   5   3 -20  245.30   20.98
  -4  -3  20  112.19   18.66
  -3  -3  20   44.81   11.37
   3  -3 -20   52.61   14.01
  -2  -3  20   11.57    6.69
  -2  -3  20   12.63    6.59
   2  -3 -20   14.19    7.94
   1  -3 -20    0.97    4.58
  -1  -3  20   -0.31    4.75
  -1   3  20    2.06    4.75
   0  -3  20    0.22    4.03
   0  -3  20   -4.07    5.70
   0  -3 -20    6.66    6.15
   0   3  20    1.60    4.18
   0  -3 -20   -0.35    4.86
  -1  -3 -20    6.19    5.19
  -1  -3 -20   -3.33    3.91
   1  -3  20    0.59    5.97
   1  -3  20    8.39    4.88
   1   3  20    3.84    4.59
   2   3  20   32.54    9.40
  -2  -3 -20   20.20    7.78
   2  -3  20   42.20   14.18
   2  -3  20   32.42   10.48
   3  -3  20  146.98   23.10
   3   3  20  150.25   19.99
  -3  -3 -20  129.09   18.83
  -4  -3 -20   63.00   12.93
  10   0 -21    6.01    6.05
   9   0 -21    9.44    5.82
   8   0 -21   -3.12    3.15
   8   0 -21   -1.79    3.57
   7   0 -21  148.41   20.13
   7   0 -21  143.31   17.38
   6   0 -21   -2.12    3.15
  -6   0  21    3.87    3.08
   6   0 -21    0.62    4.49
   5   0 -21  331.91   22.39
  -5   0  21  281.11   22.06
   5   0 -21  284.74   24.59
   4   0 -21    1.00    4.01
  -4   0  21   -1.32    2.48
   4   0 -21    3.44    2.38
  -4   0  21    0.71    3.46
   3   0 -21   -4.32    3.86
  -3   0  21    0.84    2.98
   3   0 -21   -0.05    2.29
  -3   0  21   -0.32    2.43
   2   0 -21    2.30    4.16
   2   0 -21    3.59    2.23
  -2   0  21    1.04    3.60
  -2   0  21   -1.05    2.49
   1   0 -21  588.62   34.58
  -1   0  21  666.87   37.38
  -1   0  21  655.31   37.83
   0   0  21    0.55    3.38
   0   0  21    0.84    4.24
   0   0 -21    1.76    2.88
   1   0  21  388.99   28.91
  -1   0 -21  346.32   23.93
   1   0  21  365.73   27.58
  -2   0 -21    2.23    2.83
   2   0  21   -1.45    2.67
   2   0  21    3.28    4.53
   3   0  21   24.67    8.49
   3   0  21   15.45    7.03
   4   0  21    0.75    4.03
   4   0  21    0.69    4.24
   5   0  21   15.25    6.44
   5   0  21   15.92    6.89
   6   0  21    2.46    4.88
  10  -1 -21   12.77    7.98
   9   1 -21    1.67    5.90
   9  -1 -21    1.34    5.83
   8  -1 -21    9.94    7.00
   8   1 -21    7.94    5.15
   8   1 -21    8.11    6.20
   8  -1 -21    6.36    5.56
  -7  -1  21    9.38    4.55
  -7  -1  21    9.02    3.50
   7  -1 -21   11.46    5.69
   7   1 -21    7.16    5.60
   7  -1 -21   15.30    7.47
   7   1 -21   10.12    5.70
  -6  -1  21    7.50    3.94
   6   1 -21    0.93    4.67
   6   1 -21   -1.45    4.34
  -6  -1  21   -2.17    4.18
   6  -1 -21    2.36    3.13
   5   1 -21   82.42   13.62
  -5  -1  21  101.52   15.98
   5  -1 -21   98.02   12.94
  -5  -1  21   77.23   15.28
   5  -1 -21   74.27   15.16
   5   1 -21   87.41   15.21
   4   1 -21  224.64   18.82
   4   1 -21  192.77   19.25
   4  -1 -21  179.13   22.07
  -4   1  21  215.85   17.23
  -4  -1  21  200.45   19.62
   4  -1 -21  213.56   16.36
  -4  -1  21  216.02   21.76
   3  -1 -21  436.68   31.29
   3   1 -21  491.41   30.85
  -3   1  21  474.63   28.73
   3   1 -21  462.76   27.61
  -3  -1  21  427.62   32.43
  -3  -1  21  506.44   32.43
   2  -1 -21  277.60   24.49
  -2  -1  21  318.54   27.06
   2   1 -21  269.05   19.63
  -2  -1  21  319.85   25.43
  -2   1  21  311.29   22.38
   2   1 -21  242.41   20.21
   1  -1 -21   96.57   16.43
  -1  -1  21   80.94   14.83
   1   1 -21  106.49   13.42
  -1  -1  21  108.03   18.43
   1   1 -21   90.98    9.55
  -1   1  21  105.31   14.77
   0  -1 -21    6.22    6.26
   0   1 -21    3.55    2.79
   0  -1  21    4.02    5.65
   0   1 -21   -0.05    2.50
   0  -1  21    1.65    3.60
   0   1  21    6.12    4.31
   0   1  21    1.13    3.06
  -1  -1 -21   28.17    9.15
   1  -1  21   29.24    8.73
   1   1  21   15.61    7.40
   1  -1  21   35.37   10.43
   1   1  21   21.64    7.66
   2   1  21   54.29   12.21
   2  -1  21   81.84   15.26
   2  -1  21   64.27   14.32
  -2  -1 -21   52.41   12.31
   2   1  21   59.32   12.62
   3   1  21   99.71   16.34
   3   1  21   68.35   13.22
   3  -1  21   92.30   16.26
   3  -1  21   93.83   17.43
  -3  -1 -21   80.26   14.81
   4  -1  21   25.16    9.29
   4   1  21   26.60    8.59
   4  -1  21   44.56   11.55
   4   1  21   35.21    9.87
  -4  -1 -21   19.81    8.68
   5  -1  21   18.28    7.73
   5   1  21   26.20    9.07
   5   1  21   20.01    7.87
   9  -2 -21    8.97    8.60
  -8  -2  21   -0.92    5.29
   8  -2 -21   12.73    7.44
   7   2 -21   -3.33    4.86
   7   2 -21    3.74    4.41
   7  -2 -21   -2.44    5.72
  -7  -2  21    3.35    4.89
  -6  -2  21  229.84   21.32
   6   2 -21  241.34   21.95
   6   2 -21  242.06   22.24
  -5  -2  21    1.32    4.56
   5   2 -21    8.85    5.09
   5   2 -21   -1.19    5.32
   5  -2 -21    4.68    5.34
  -5  -2  21   14.07    5.67
   4   2 -21   94.27   15.95
  -4  -2  21   89.87   18.35
  -4  -2  21   79.65   15.16
   4   2 -21   95.68   14.88
   4  -2 -21   68.14   14.34
   3   2 -21    7.66    5.41
   3  -2 -21    2.21    3.89
  -3  -2  21    1.60    4.45
  -3  -2  21   -0.44    4.79
   3   2 -21   -1.27    3.87
  -2  -2  21  158.31   23.82
  -2  -2  21  145.80   20.25
   2  -2 -21  133.15   20.37
  -2   2  21  129.98   13.87
   1  -2 -21    7.59    6.15
  -1   2  21    3.27    4.22
  -1  -2  21   10.34    5.48
  -1  -2  21   13.12    8.00
   0  -2  21  526.74   35.75
   0  -2 -21  534.40   37.07
   0   2  21  489.22   31.18
   0  -2 -21  531.57   31.51
   0  -2  21  489.57   38.39
  -1  -2 -21   -0.68    4.97
   1  -2  21    2.08    4.01
  -1  -2 -21    3.53    5.03
   1   2  21    8.31    5.40
   1  -2  21    4.38    5.91
   2  -2  21  166.93   25.23
  -2  -2 -21  113.74   16.74
  -2  -2 -21  152.43   21.89
   2  -2  21  148.65   21.74
   2   2  21  155.18   19.87
   3   2  21    4.88    4.97
   3  -2  21    3.45    5.57
  -3  -2 -21    7.40    5.86
   3  -2  21   -0.25    3.48
  -3  -2 -21    3.55    4.97
   4   2  21    3.23    5.36
  -4  -2 -21    6.37    5.57
  -4  -2 -21    3.01    5.52
  -5  -2 -21    0.72    5.00
  -5  -2 -21    1.43    4.85
  -6  -2 -21   10.06    6.13
  -6  -2 -21    3.35    5.77
  -2  -3  21  282.08   27.10
  -1  -3  21   33.36    8.76
   0  -3 -21    8.96    5.82
   0  -3  21   11.16    5.78
   0   3  21   11.17    5.61
  -1  -3 -21    0.21    5.54
   1   3  21   11.51    6.06
   2   3  21   98.64   16.04
   8   0 -22   62.91   12.94
   7   0 -22   -0.80    4.37
   7   0 -22    3.42    4.53
   6   0 -22  331.53   27.71
   6   0 -22  340.77   24.64
   5   0 -22   -2.90    3.96
  -5   0  22    1.61    3.24
   5   0 -22   -0.04    3.99
  -5   0  22    8.65    5.97
  -4   0  22   13.20    5.88
   4   0 -22   39.57    8.44
   4   0 -22   25.94    8.91
  -4   0  22   34.04    9.63
  -3   0  22   -0.23    2.36
  -3   0  22    2.80    4.71
   3   0 -22    7.27    3.27
  -2   0  22    7.25    5.34
  -2   0  22    0.75    2.98
   2   0 -22   11.09    7.17
  -1   0  22   -0.20    2.80
   1   0 -22    0.55    4.20
  -1   0  22    5.54    4.79
   0   0  22   62.81   13.05
   0   0 -22   49.38   11.18
   0   0  22   56.27   13.01
   1   0  22    3.35    4.89
   1   0  22    2.87    3.31
  -1   0 -22    4.28    5.29
   2   0  22  406.84   30.74
   3   0  22   -4.25    3.74
   4   0  22   60.98   13.38
   9  -1 -22  325.49   27.21
   8  -1 -22  231.91   22.22
   8   1 -22  235.52   22.08
   7  -1 -22   87.44   14.66
  -7  -1  22   75.26   13.22
   7   1 -22   80.84   15.67
  -6  -1  22   29.87    9.91
  -6  -1  22   22.04    7.36
   6   1 -22   20.63    7.83
   6  -1 -22   12.52    6.75
   6   1 -22   35.56    9.78
  -5  -1  22   14.11    7.65
  -5  -1  22   24.56    7.92
   5  -1 -22   24.99    8.47
   5   1 -22   17.95    7.19
   5   1 -22   26.02    8.60
   4  -1 -22   29.45    9.37
   4   1 -22   52.67   10.65
  -4  -1  22   42.11   12.00
  -4  -1  22   51.49   11.98
   4   1 -22   43.02   10.49
  -3   1  22    0.32    4.34
   3   1 -22   -0.10    4.97
   3   1 -22    3.07    4.74
   3  -1 -22    1.28    4.44
  -3  -1  22   -0.75    2.51
  -3  -1  22   -1.73    5.15
   2   1 -22    1.26    4.14
  -2   1  22    3.78    5.01
   2   1 -22    1.36    4.27
   2  -1 -22   -0.90    4.40
  -2  -1  22    2.05    5.09
  -2  -1  22    2.17    4.09
   1  -1 -22   25.04    9.22
  -1  -1  22   17.66    7.36
  -1  -1  22   10.59    6.10
   1   1 -22   16.49    5.65
  -1   1  22   17.82    7.32
   0  -1  22   47.53   12.23
   0  -1  22   53.59   12.38
   0   1  22   51.83   11.51
   0   1  22   74.96   13.88
   0  -1 -22   40.80   11.66
  -1  -1 -22   13.74    6.90
   1  -1  22    4.89    4.07
   1   1  22   10.42    5.60
   1   1  22    2.77    4.05
   1  -1  22    7.37    5.84
   2   1  22   18.76    7.11
  -2  -1 -22    5.94    6.53
   2  -1  22    5.35    5.88
   2  -1  22    6.65    4.96
  -3  -1 -22   88.86   15.81
   3   1  22   41.47   10.99
   3  -1  22   74.57   15.74
  -7  -2  22  234.09   21.51
  -6  -2  22    8.50    5.63
   5   2 -22  149.92   19.24
  -5  -2  22  118.99   17.83
   5   2 -22  159.32   21.04
   4   2 -22    8.43    5.72
   4   2 -22    5.40    6.82
  -4  -2  22    9.58    5.34
  -3  -2  22    8.60    6.60
  -3  -2  22    9.46    5.36
   3   2 -22    9.47    7.04
  -2  -2  22    9.63    8.05
   2   2 -22    7.15    6.54
  -2  -2  22    6.91    5.09
  -1   2  22    4.55    5.30
  -1  -2  22   14.45    6.31
   1   2 -22   10.57    6.50
  -1  -2  22   11.77    7.79
   0  -2  22    2.80    6.03
   0   2  22    8.51    5.22
   0  -2  22   -1.20    4.18
  -1  -2 -22  214.41   19.82
   1   2  22  217.39   20.41
   2   2  22    1.61    4.44
  -2  -2 -22    1.52    4.91
  -3  -2 -22  195.13   19.08
  -4  -2 -22   -7.53    5.42
   7   0 -23   48.98   11.12
   6   0 -23    6.36    5.25
   5   0 -23  578.34   33.26
   4   0 -23   -1.75    4.18
  -4   0  23    3.68    3.56
  -4   0  23    1.73    4.81
   3   0 -23  346.11   27.82
  -3   0  23  338.16   28.01
  -2   0  23   -0.62    4.14
   2   0 -23   -0.53    4.58
   1   0 -23   -0.15    4.84
  -1   0  23   -1.98    3.64
   0   0  23    2.03    4.70
   0   0 -23    5.59    6.31
   1   0  23  142.07   20.97
   7  -1 -23  148.73   20.11
  -6  -1  23   78.93   13.79
  -5  -1  23   18.67    7.80
   5   1 -23    9.32    7.13
  -5  -1  23   25.09    7.40
   4   1 -23   13.47    6.27
  -4  -1  23    8.80    6.87
  -4  -1  23   10.59    5.87
   4   1 -23   12.08    6.58
  -3   1  23   82.07   14.83
  -3  -1  23   76.77   14.43
   3   1 -23   78.51   13.51
   3   1 -23   76.15   14.44
  -3  -1  23   85.81   16.96
   2   1 -23  160.89   16.39
  -2  -1  23  162.53   23.43
  -2   1  23  151.92   19.88
  -1  -1  23  273.67   26.59
  -1   1  23  259.85   23.24
   1  -1 -23  253.79   24.21
   0  -1 -23   74.46   14.89
   0   1  23   96.44   16.48
  -1  -1 -23   12.52    6.65
   1   1  23   19.98    7.87
  -2  -1 -23   -0.34    5.22
   2   2 -23   79.44   15.13
   1   2 -23   -0.14    6.41
  -1   2  23    0.81    4.43
  -3   0  24    1.64    4.77
   0   0   0    0.00    0.00
;
_shelx_hkl_checksum              64647
_shelx_res_file
;
REM TITL shelxt_a.res in P2(1)/n
TITL JM621R in P2(1)/n
REM SHELXT solution in P2(1)/n
REM R1 0.053,  Rweak 0.000,  Alpha 0.020,  Orientation as input
REM Formula found by SHELXT:  C8 I2
CELL  0.71073  13.5323   4.5464  15.6269   90.000   95.203   90.000
ZERR    4.000   0.0003   0.0001   0.0004    0.000    0.001    0.000
LATT  1
SYMM 1/2-X, 1/2+Y, 1/2-Z
SFAC C H I
UNIT 32 32 8
TEMP -183
SIZE 0.45 0.06 0.05
L.S. 12
BOND $H
CONF
ACTA
FMAP 2
PLAN 5
mpla c1 c11 i1
mpla c1 c2 c3 c4 c5 c6
mpla c3 c31 i3
eqiv $1 x,-1+y,z
eqiv $2 1/2-x,-1/2+y,1/2-z
eqiv $3 1.5-x, 1/2+y, 1/2-z
eqiv $4 -1/2+x,1/2-y,1/2+z
htab c11 I1_$1
htab c5 I1_$2
htab c31 I3_$3
BIND I1 I3_$4
WGHT    0.010900    1.434300
FVAR       0.26886
I1    3    0.355610    0.364012    0.465137    11.00000    0.01484    0.01475 =
         0.01451    0.00083    0.00534    0.00033
C11   1    0.449774    0.146934    0.377459    11.00000    0.02227    0.01669 =
         0.02160    0.00196    0.00915    0.00641
AFIX  23
H11A  2    0.519297    0.146126    0.403381    11.00000   -1.20000
H11B  2    0.428232   -0.059934    0.368973    11.00000   -1.20000
AFIX   0
C1    1    0.444705    0.298379    0.292745    11.00000    0.01739    0.01249 =
         0.01667    0.00030    0.00652    0.00325
C2    1    0.518575    0.499346    0.275465    11.00000    0.01494    0.01124 =
         0.01552   -0.00250    0.00351    0.00109
AFIX  43
H2    2    0.570747    0.541878    0.318528    11.00000   -1.20000
AFIX   0
C3    1    0.516495    0.637947    0.195744    11.00000    0.01393    0.00969 =
         0.01533   -0.00135    0.00441    0.00101
C31   1    0.595926    0.851439    0.177880    11.00000    0.01912    0.01313 =
         0.02153   -0.00369    0.00830   -0.00204
AFIX  23
H31A  2    0.626055    0.935203    0.232634    11.00000   -1.20000
H31B  2    0.566685    1.014812    0.142140    11.00000   -1.20000
AFIX   0
I3    3    0.710359    0.632305    0.110793    11.00000    0.01582    0.01765 =
         0.01833   -0.00027    0.00728   -0.00134
C4    1    0.439198    0.575466    0.132439    11.00000    0.01840    0.01819 =
         0.01484    0.00055    0.00161    0.00244
AFIX  43
H4    2    0.436926    0.669566    0.078016    11.00000   -1.20000
AFIX   0
C5    1    0.365913    0.375344    0.149608    11.00000    0.01518    0.01908 =
         0.01904   -0.00441   -0.00122    0.00036
AFIX  43
H5    2    0.313755    0.332188    0.106591    11.00000   -1.20000
AFIX   0
C6    1    0.368318    0.237860    0.229195    11.00000    0.01526    0.01472 =
         0.02426   -0.00105    0.00569   -0.00291
AFIX  43
H6    2    0.317699    0.102052    0.240352    11.00000   -1.20000
AFIX   0
HKLF 4
REM  JM621R in P2(1)/n
REM R1 =  0.0239 for    2826 Fo > 4sig(Fo)  and  0.0325 for all    3435 data
REM     91 parameters refined using      0 restraints
END
WGHT      0.0109      1.4344
REM Highest difference peak  1.237,  deepest hole -0.767,  1-sigma level  0.159
Q1    1   0.4988 -0.1402  0.3207  11.00000  0.05    1.24
Q2    1   0.3544 -0.0782  0.4641  11.00000  0.05    0.96
Q3    1   0.4213  0.3632  0.0418  11.00000  0.05    0.82
Q4    1   0.5684  1.1238  0.2546  11.00000  0.05    0.82
Q5    1   0.4868  0.3888  0.2724  11.00000  0.05    0.69
;
_shelx_res_checksum              95241
loop_
_space_group_symop_operation_xyz
'x, y, z'
'-x+1/2, y+1/2, -z+1/2'
'-x, -y, -z'
'x-1/2, -y-1/2, z-1/2'
loop_
_atom_site_type_symbol
_atom_site_label
_atom_site_fract_x
_atom_site_fract_y
_atom_site_fract_z
_atom_site_U_iso_or_equiv
_atom_site_adp_type
_atom_site_calc_flag
_atom_site_occupancy
I I1 0.35561(2) 0.36401(4) 0.46514(2) 0.01445(4) Uani d 1
C C11 0.4498(2) 0.1469(6) 0.37746(17) 0.0197(5) Uani d 1
H H11A 0.5193 0.1461 0.4034 0.024 Uiso calc 1
H H11B 0.4282 -0.0599 0.3690 0.024 Uiso calc 1
C C1 0.44471(19) 0.2984(6) 0.29275(16) 0.0152(5) Uani d 1
C C2 0.51858(18) 0.4993(5) 0.27547(16) 0.0138(5) Uani d 1
H H2 0.5707 0.5419 0.3185 0.017 Uiso calc 1
C C3 0.51650(18) 0.6379(5) 0.19574(16) 0.0128(4) Uani d 1
C C31 0.59593(19) 0.8514(6) 0.17788(17) 0.0175(5) Uani d 1
H H31A 0.6261 0.9352 0.2326 0.021 Uiso calc 1
H H31B 0.5667 1.0148 0.1421 0.021 Uiso calc 1
I I3 0.71036(2) 0.63230(4) 0.11079(2) 0.01692(5) Uani d 1
C C4 0.43920(19) 0.5755(6) 0.13244(16) 0.0171(5) Uani d 1
H H4 0.4369 0.6696 0.0780 0.021 Uiso calc 1
C C5 0.36591(19) 0.3753(6) 0.14961(17) 0.0179(5) Uani d 1
H H5 0.3138 0.3322 0.1066 0.022 Uiso calc 1
C C6 0.36832(19) 0.2379(6) 0.22919(18) 0.0178(5) Uani d 1
H H6 0.3177 0.1021 0.2404 0.021 Uiso calc 1
loop_
_atom_site_aniso_label
_atom_site_aniso_U_11
_atom_site_aniso_U_22
_atom_site_aniso_U_33
_atom_site_aniso_U_12
_atom_site_aniso_U_13
_atom_site_aniso_U_23
I1 0.01484(7) 0.01475(9) 0.01451(8) 0.00033(6) 0.00534(5) 0.00083(6)
C11 0.0223(12) 0.0167(13) 0.0216(12) 0.0064(11) 0.0091(10) 0.0020(11)
C1 0.0174(11) 0.0125(12) 0.0167(11) 0.0032(10) 0.0065(9) 0.0003(9)
C2 0.0149(11) 0.0112(12) 0.0155(11) 0.0011(9) 0.0035(9) -0.0025(9)
C3 0.0139(10) 0.0097(11) 0.0153(10) 0.0010(9) 0.0044(8) -0.0013(9)
C31 0.0191(12) 0.0131(13) 0.0215(12) -0.0020(10) 0.0083(10) -0.0037(10)
I3 0.01582(8) 0.01765(9) 0.01833(8) -0.00134(6) 0.00728(6) -0.00027(6)
C4 0.0184(11) 0.0182(13) 0.0148(11) 0.0024(10) 0.0016(9) 0.0005(10)
C5 0.0152(11) 0.0191(13) 0.0190(12) 0.0004(10) -0.0012(9) -0.0044(10)
C6 0.0153(11) 0.0147(13) 0.0243(13) -0.0029(10) 0.0057(10) -0.0010(11)
loop_
_atom_type_symbol
_atom_type_description
_atom_type_scat_dispersion_real
_atom_type_scat_dispersion_imag
_atom_type_scat_source
C C 0.0033 0.0016 'International Tables Vol C Tables 4.2.6.8 and 6.1.1.4'
H H 0.0000 0.0000 'International Tables Vol C Tables 4.2.6.8 and 6.1.1.4'
I I -0.4742 1.8119 'International Tables Vol C Tables 4.2.6.8 and 6.1.1.4'
loop_
_geom_angle_atom_site_label_1
_geom_angle_atom_site_label_2
_geom_angle_atom_site_label_3
_geom_angle_site_symmetry_3
_geom_angle
C11 I1 I3 4_566 117.47(7)
C1 C11 I1 . 111.45(17)
C1 C11 H11A . 109.3
I1 C11 H11A . 109.3
C1 C11 H11B . 109.3
I1 C11 H11B . 109.3
H11A C11 H11B . 108.0
C6 C1 C2 . 119.2(2)
C6 C1 C11 . 120.9(2)
C2 C1 C11 . 119.9(2)
C3 C2 C1 . 120.7(2)
C3 C2 H2 . 119.6
C1 C2 H2 . 119.6
C2 C3 C4 . 119.5(2)
C2 C3 C31 . 120.3(2)
C4 C3 C31 . 120.2(2)
C3 C31 I3 . 110.27(16)
C3 C31 H31A . 109.6
I3 C31 H31A . 109.6
C3 C31 H31B . 109.6
I3 C31 H31B . 109.6
H31A C31 H31B . 108.1
C5 C4 C3 . 119.7(2)
C5 C4 H4 . 120.1
C3 C4 H4 . 120.1
C6 C5 C4 . 120.5(2)
C6 C5 H5 . 119.7
C4 C5 H5 . 119.7
C5 C6 C1 . 120.3(2)
C5 C6 H6 . 119.9
C1 C6 H6 . 119.9
loop_
_geom_bond_atom_site_label_1
_geom_bond_atom_site_label_2
_geom_bond_site_symmetry_2
_geom_bond_distance
I1 C11 . 2.189(3)
I1 I3 4_566 3.8662(2)
C11 C1 . 1.488(4)
C11 H11A . 0.9900
C11 H11B . 0.9900
C1 C6 . 1.394(4)
C1 C2 . 1.399(3)
C2 C3 . 1.394(3)
C2 H2 . 0.9500
C3 C4 . 1.402(3)
C3 C31 . 1.493(3)
C31 I3 . 2.187(2)
C31 H31A . 0.9900
C31 H31B . 0.9900
C4 C5 . 1.390(4)
C4 H4 . 0.9500
C5 C6 . 1.390(4)
C5 H5 . 0.9500
C6 H6 . 0.9500
loop_
_geom_hbond_atom_site_label_D
_geom_hbond_atom_site_label_H
_geom_hbond_atom_site_label_A
_geom_hbond_site_symmetry_A
_geom_hbond_distance_DH
_geom_hbond_distance_HA
_geom_hbond_distance_DA
_geom_hbond_angle_DHA
C11 H11B I1 1_545 0.99 3.22 4.060(3) 144
C5 H5 I1 2_545 0.95 3.25 4.078(3) 147
C31 H31A I3 2_655 0.99 3.27 4.224(3) 162
C31 H31A Cg 1_565 0.99 2.84 3.453(3) 121
loop_
_geom_torsion_atom_site_label_1
_geom_torsion_atom_site_label_2
_geom_torsion_atom_site_label_3
_geom_torsion_atom_site_label_4
_geom_torsion
I1 C11 C1 C6 -83.6(3)
I1 C11 C1 C2 97.9(2)
C6 C1 C2 C3 -0.1(4)
C11 C1 C2 C3 178.4(2)
C1 C2 C3 C4 0.2(4)
C1 C2 C3 C31 -179.8(2)
C2 C3 C31 I3 96.4(2)
C4 C3 C31 I3 -83.7(3)
C2 C3 C4 C5 -0.3(4)
C31 C3 C4 C5 179.7(2)
C3 C4 C5 C6 0.4(4)
C4 C5 C6 C1 -0.3(4)
C2 C1 C6 C5 0.2(4)
C11 C1 C6 C5 -178.4(2)

_cod_database_fobs_code 2241325
