#------------------------------------------------------------------------------
#$Date: 2016-11-09 04:05:35 +0200 (Wed, 09 Nov 2016) $
#$Revision: 188333 $
#$URL: file:///home/coder/svn-repositories/cod/cif/2/24/19/2241936.cif $
#------------------------------------------------------------------------------
#
# This file is available in the Crystallography Open Database (COD),
# http://www.crystallography.net/. The original data for this entry
# were provided by IUCr Journals, http://journals.iucr.org/.
#
# The file may be used within the scientific community so long as
# proper attribution is given to the journal article from which the
# data were obtained.
#
data_2241936
loop_
_publ_author_name
'Navarrete Guit\'errez, Ang\'elica'
'Aguirre Hern\'andez, Gerardo'
'Bern\`es, Sylvain'
_publ_section_title
;
 Crystal structures of <i>p</i>-substituted derivatives of
 2,6-dimethylbromobenzene with {\scriptstyle{1\/over2}} {\/leq} <i>Z</i>'
 {\/leq} 4
;
_journal_coeditor_code           IS5462
_journal_issue                   12
_journal_name_full               'Acta Crystallographica Section E'
_journal_page_first              1762
_journal_page_last               1767
_journal_paper_doi               10.1107/S2056989016017485
_journal_volume                  72
_journal_year                    2016
_chemical_formula_iupac          'C8 H8 Br N O2'
_chemical_formula_moiety         'C8 H8 Br N O2'
_chemical_formula_sum            'C8 H8 Br N O2'
_chemical_formula_weight         230.06
_chemical_melting_point          478
_chemical_name_systematic        2-Bromo-1,3-dimethyl-5-nitrobenzene
_space_group_crystal_system      triclinic
_space_group_IT_number           2
_space_group_name_Hall           '-P 1'
_space_group_name_H-M_alt        'P -1'
_symmetry_space_group_name_Hall  '-P 1'
_symmetry_space_group_name_H-M   'P -1'
_atom_sites_solution_hydrogens   geom
_atom_sites_solution_primary     direct
_atom_sites_solution_secondary   difmap
_audit_creation_method           SHELXL-2014/7
_cell_angle_alpha                93.498(4)
_cell_angle_beta                 99.284(4)
_cell_angle_gamma                101.722(5)
_cell_formula_units_Z            2
_cell_length_a                   4.0502(5)
_cell_length_b                   9.3817(6)
_cell_length_c                   12.1823(5)
_cell_measurement_reflns_used    2941
_cell_measurement_temperature    296.0(10)
_cell_measurement_theta_max      71.4760
_cell_measurement_theta_min      3.7050
_cell_volume                     445.20(7)
_computing_cell_refinement
;
CrysAlis PRO (Rigaku OD, 2015)
;
_computing_data_collection
;
CrysAlis PRO (Rigaku OD, 2015)
;
_computing_data_reduction
;
CrysAlis PRO (Rigaku OD, 2015)
;
_computing_molecular_graphics
;
XP in SHELXTL (Sheldrick, 2008) and Mercury (Macrae <i>et al.</i>,
2008)
;
_computing_publication_material
;
<i>CifTab</i> (Sheldrick, 2008)
;
_computing_structure_refinement
;
SHELXL2014 (Sheldrick, 2015b)
;
_computing_structure_solution
;
<i>SHELXT</i> (Sheldrick, 2015a)
;
_diffrn_ambient_temperature      296.0(10)
_diffrn_detector_area_resol_mean 5.1980
_diffrn_measured_fraction_theta_full 0.998
_diffrn_measured_fraction_theta_max 0.982
_diffrn_measurement_device       'four-circle diffractometer'
_diffrn_measurement_device_type  'Rigaku OD SuperNova AtlasS2'
_diffrn_measurement_method       '\f and \w scans'
_diffrn_radiation_monochromator  mirror
_diffrn_radiation_type           'Cu K\a'
_diffrn_radiation_wavelength     1.54184
_diffrn_reflns_av_R_equivalents  0.0382
_diffrn_reflns_limit_h_max       4
_diffrn_reflns_limit_h_min       -4
_diffrn_reflns_limit_k_max       11
_diffrn_reflns_limit_k_min       -11
_diffrn_reflns_limit_l_max       14
_diffrn_reflns_limit_l_min       -14
_diffrn_reflns_number            5640
_diffrn_reflns_theta_full        67.684
_diffrn_reflns_theta_max         71.666
_diffrn_reflns_theta_min         3.694
_exptl_absorpt_coefficient_mu    5.977
_exptl_absorpt_correction_T_max  1.00000
_exptl_absorpt_correction_T_min  0.30430
_exptl_absorpt_correction_type   multi-scan
_exptl_absorpt_process_details
;
(CrysAlis PRO; Rigaku OD, 2015)
;
_exptl_crystal_colour            'pale yellow'
_exptl_crystal_density_diffrn    1.716
_exptl_crystal_description       block
_exptl_crystal_F_000             228
_exptl_crystal_size_max          0.80
_exptl_crystal_size_mid          0.60
_exptl_crystal_size_min          0.10
_refine_diff_density_max         0.633
_refine_diff_density_min         -0.589
_refine_ls_extinction_method     none
_refine_ls_goodness_of_fit_ref   1.069
_refine_ls_hydrogen_treatment    constr
_refine_ls_matrix_type           full
_refine_ls_number_constraints    0
_refine_ls_number_parameters     111
_refine_ls_number_reflns         1697
_refine_ls_number_restraints     0
_refine_ls_restrained_S_all      1.069
_refine_ls_R_factor_all          0.0495
_refine_ls_R_factor_gt           0.0449
_refine_ls_shift/su_max          0.000
_refine_ls_shift/su_mean         0.000
_refine_ls_structure_factor_coef Fsqd
_refine_ls_weighting_details
'w=1/[\s^2^(Fo^2^)+(0.0686P)^2^+0.2116P] where P=(Fo^2^+2Fc^2^)/3'
_refine_ls_weighting_scheme      calc
_refine_ls_wR_factor_gt          0.1215
_refine_ls_wR_factor_ref         0.1276
_reflns_number_gt                1503
_reflns_number_total             1697
_reflns_threshold_expression     'I > 2\s(I)'
_cod_data_source_file            is5462sup1.cif
_cod_data_source_block           2
_cod_database_code               2241936
_shelx_hkl_file
;
   0   0  -1  166.59    3.67
   0   0   1  205.18    3.53
   0   0   2 1427.52   11.98
   0   0  -2 1298.23   15.12
   0   0  -3  187.43    7.07
   0   0   3  210.60    5.34
   0   0  -4  575.22   15.97
   0   0  -4  673.02   15.42
   0   0   4  655.65    9.09
   0   0   4  558.69   10.06
   0   0   5 2030.36   30.32
   0   0   5 2015.94   18.03
   0   0   6   49.46    3.11
   0   0   6   39.42    4.74
   0   0  -6   54.33    6.18
   0   0  -6   49.65    4.97
   0   0   6   37.26    3.86
   0   0  -6   51.56    5.99
   0   0   7   84.30    7.48
   0   0  -7  102.22    7.54
   0   0  -7  102.08    9.90
   0   0   7   80.24    6.47
   0   0   8  267.65   14.40
   0   0  -8  266.79   16.53
   0   0  -9  113.88   10.97
   0   0   9  116.14   10.20
   0   0 -10  298.64   18.54
   0   0  10  345.34   20.71
   0   0  10  278.76   16.50
   0   0  10  313.28   11.72
   0   0  10  322.34   18.93
   0   0 -10  334.57   19.80
   0   0  11  143.84    7.98
   0   0  11  160.78   13.39
   0   0 -11  161.83   13.36
   0   0 -11  182.68   14.12
   0   0  11  174.20   14.60
   0   0  12   91.99    9.82
   0   0  12   93.79   10.20
   0   0 -12   86.21    8.96
   0   0 -12   85.95    9.00
   0   0  12   71.83    5.32
   0   0 -12   90.08    9.11
   0   0 -13  159.48   10.91
   0   0  13  160.78   11.64
   0   0 -13  155.48   10.28
   0   0 -13  158.88   10.60
   0   0  13  148.30   11.62
   0   0  14   35.12    4.63
   0   0 -14   42.06    4.64
   0  -1  14    4.75    1.83
   0   1 -14    6.68    1.82
   0   1 -14    4.88    1.71
   0   1 -13    5.95    2.18
   0  -1  13    4.03    1.62
   0   1 -13    3.70    0.58
   0  -1  12   23.68    3.08
   0  -1  12   29.06    5.55
   0   1 -12   30.75    5.72
   0  -1  12   30.65    5.95
   0   1 -12   27.38    4.75
   0   1 -12   29.18    4.89
   0   1 -11   42.99    6.52
   0  -1  11   37.03    6.68
   0   1 -11   36.72    6.64
   0  -1  11   42.94    6.96
   0   1 -11   40.81    6.58
   0  -1  11   36.70    4.00
   0   1 -10   91.67   10.62
   0  -1  10  115.77   11.28
   0   1 -10  113.42   11.16
   0  -1  10  107.95    6.93
   0  -1  10  125.72   12.46
   0  -1  10  103.47   10.27
   0   1  -9  381.70   21.03
   0  -1   9  438.07   20.05
   0   1  -8  518.58   22.58
   0  -1   8  570.61   21.68
   0   1  -8  559.89   24.46
   0   1  -7  639.77   23.79
   0  -1   7  716.06   13.02
   0   1  -7  726.25   25.91
   0  -1   7  666.54   21.55
   0  -1   6 3873.41   41.19
   0  -1   6 3693.25   46.47
   0   1  -6 4455.41   57.64
   0   1  -6 4151.09   57.14
   0  -1   6 4159.58   29.68
   0  -1   5  354.52   11.17
   0   1  -5  350.07   11.00
   0   1  -5  323.60   13.24
   0  -1   5  341.71   12.93
   0   1  -4 2342.13   24.58
   0   1  -4 2311.98   31.40
   0  -1   4 2334.09   25.29
   0   1  -3   29.14    1.67
   0   1  -3   28.72    2.26
   0  -1   3   24.12    1.74
   0   1  -2  916.15    9.69
   0  -1   2  904.18   10.08
   0   1  -2  904.93    8.06
   0  -1   1 1175.01   11.71
   0   1  -1 1187.54   10.45
   0  -1   1 1191.39    9.67
   0  -1   0  123.35    2.79
   0   1   0  107.75    2.22
   0  -1  -1 2765.33   17.78
   0  -1  -1 2681.65   21.24
   0  -1  -2 1181.86   13.18
   0   1   2 1162.86   13.78
   0  -1  -3  511.50   13.90
   0   1   3  510.76   10.58
   0  -1  -4 3887.98   42.95
   0  -1  -4 4042.91   44.66
   0   1   5  734.22   18.11
   0  -1  -5  793.18   21.14
   0   1   6 2720.40   24.80
   0   1   6 2710.69   38.81
   0   1   7  291.93   14.00
   0   1   7  292.88    8.81
   0  -1  -7  284.71   12.98
   0  -1  -7  319.83   14.85
   0   1   8  446.19   18.64
   0  -1  -8  473.10   18.38
   0  -1  -8  446.57   17.77
   0   1   9  221.23   14.05
   0  -1 -10   59.83    8.65
   0  -1 -10   51.16    8.24
   0   1  10   47.00    7.39
   0   1  10   45.68    6.75
   0   1  10   51.38    4.67
   0   1  10   54.60    8.18
   0   1  11    8.60    3.18
   0   1  11    4.55    1.27
   0   1  11    5.27    2.58
   0  -1 -11    9.61    3.37
   0  -1 -11    9.38    3.57
   0   1  12    3.16    2.01
   0  -1 -12    5.53    1.79
   0   1  12    5.57    2.69
   0  -1 -12    4.45    1.84
   0   1  13   10.04    3.06
   0   1  13    7.97    2.53
   0  -1 -13    6.57    2.10
   0  -1 -13    8.78    2.63
   0  -1 -14   17.03    2.86
   0   1  14   14.97    2.87
   0   2 -14   48.46    4.74
   0  -2  14   48.68    5.26
   0   2 -14   47.71    5.05
   0  -2  14   50.05    4.90
   0   2 -13   78.03    7.81
   0   2 -13   77.96    7.28
   0  -2  13   75.87    7.83
   0   2 -12   72.86    7.89
   0  -2  12   59.87    4.94
   0   2 -12   73.01    8.55
   0  -2  12   77.47    8.93
   0  -2  11  127.19    7.54
   0   2 -11  126.65   11.13
   0  -2  11  153.48   13.95
   0  -2  11  149.82   12.89
   0   2 -11  112.70   11.45
   0   2 -10  101.39   10.34
   0   2 -10   85.43   10.44
   0  -2  10   96.95   10.05
   0  -2  10  113.84   12.19
   0  -2  10  101.78    6.78
   0  -2  10  107.26   11.07
   0  -2   9   27.74    5.19
   0   2  -9   27.29    5.86
   0   2  -9   23.86    5.49
   0  -2   8    0.76    0.98
   0   2  -8    3.99    3.03
   0   2  -8    4.51    2.80
   0  -2   8    2.20    0.89
   0   2  -7   24.77    4.94
   0  -2   7   22.60    4.23
   0  -2   7   26.21    2.71
   0   2  -7   18.68    4.48
   0  -2   6   40.60    4.47
   0   2  -6   46.78    6.55
   0  -2   6   48.47    5.74
   0  -2   6   46.87    3.46
   0   2  -6   48.79    6.56
   0   2  -5  881.31   25.46
   0  -2   5  861.38   13.91
   0  -2   5  778.14   20.85
   0   2  -5  856.20   25.97
   0  -2   5  783.23   17.37
   0  -2   4 1547.12   19.40
   0   2  -4 1597.22   15.57
   0  -2   4 1646.02   22.88
   0   2  -4 1562.04   18.04
   0   2  -4 1733.95   27.58
   0  -2   4 1652.99   27.78
   0   2  -4 1872.80   35.46
   0   2  -4 1676.04   17.43
   0   2  -4 1967.42   33.99
   0  -2   3 2839.36   27.42
   0  -2   3 2820.79   25.45
   0   2  -3 2968.28   40.66
   0   2  -3 3042.62   32.27
   0  -2   2 5046.33   26.17
   0   2  -2 5100.62   30.16
   0   2  -1  489.32    7.59
   0   2  -1  545.70   10.06
   0  -2   1  535.26    8.01
   0   2  -1  501.19    5.57
   0  -2   1  529.27    4.68
   0  -2   0 4418.37   22.21
   0   2   0 4403.35   24.11
   0   2   1  293.63    3.93
   0   2   1  260.93    7.31
   0  -2  -2 3536.16   36.34
   0   2   2 3570.77   27.75
   0  -2  -2 3544.65   28.76
   0  -2  -3  288.14    8.73
   0  -2  -3  264.08   11.77
   0  -2  -3  287.00   11.58
   0   2   3  297.53    8.97
   0   2   3  287.79    8.25
   0   2   4  160.65    8.16
   0  -2  -4  170.35   10.09
   0  -2  -4  158.65    7.33
   0   2   5   10.60    2.28
   0  -2  -5   13.97    3.48
   0  -2  -5   11.21    2.24
   0  -2  -6  199.94   12.66
   0   2   6  179.44   10.36
   0  -2  -6  183.66    9.83
   0  -2  -7  147.55   11.14
   0   2   7  129.83    9.58
   0   2   7  136.05    6.53
   0  -2  -8  411.27   18.90
   0   2   8  377.25   11.62
   0   2   8  375.09   17.82
   0   2   9  294.55   16.66
   0  -2  -9  331.14   17.17
   0   2  10  140.84   13.13
   0   2  10  139.95   12.77
   0  -2 -10  168.47   14.88
   0  -2 -10  142.53   13.03
   0   2  11  229.63   16.20
   0  -2 -11  225.59   15.33
   0   2  11  232.73   16.52
   0  -2 -11  253.52   17.37
   0   2  12  109.59   10.49
   0   2  12  110.78   10.53
   0  -2 -12  119.72   10.62
   0  -2 -12  117.84   10.00
   0  -2 -13   63.39    6.28
   0   2  13   62.55    6.90
   0   2  13   57.69    6.51
   0  -2 -14   18.63    2.58
   0   2  14   20.12    3.12
   0   3 -14   -1.66    1.18
   0  -3  14    0.28    0.83
   0  -3  14    0.42    0.78
   0   3 -13    3.53    1.84
   0  -3  13    7.69    2.42
   0   3 -13    6.38    2.03
   0  -3  12   55.40    7.34
   0   3 -12   56.95    7.50
   0   3 -12   54.69    6.49
   0  -3  11   81.30    5.92
   0  -3  11   94.34   10.24
   0   3 -11   77.87    9.83
   0   3 -11   92.51    9.07
   0  -3  10  309.74   18.63
   0  -3  10  349.11   19.97
   0  -3  10  315.63   11.88
   0   3 -10  287.74   19.13
   0  -3   9   70.60    8.75
   0   3  -9   60.94    8.71
   0   3  -9   64.95    9.35
   0  -3   9   77.90    5.56
   0   3  -8  829.80   31.35
   0  -3   8  929.04   18.33
   0  -3   8  877.76   29.17
   0   3  -7  485.94   22.84
   0   3  -7  445.79   22.89
   0  -3   7  493.16   20.67
   0   3  -6  731.32   27.57
   0   3  -6  811.77   28.81
   0  -3   6  743.39   23.94
   0  -3   6  830.33   15.78
   0  -3   5  576.31   12.70
   0   3  -5  527.26   10.89
   0  -3   5  513.76   18.55
   0   3  -5  575.58   22.77
   0   3  -5  541.92   22.72
   0  -3   4   44.95    4.13
   0  -3   4   51.61    5.47
   0   3  -4   51.70    3.29
   0   3  -4   50.88    6.29
   0  -3   4   49.44    3.50
   0   3  -4   46.48    4.86
   0   3  -4   41.96    6.00
   0  -3   3  299.65    9.19
   0   3  -3  307.44   11.01
   0  -3   3  300.32   11.26
   0  -3   3  303.86   12.19
   0   3  -3  297.49   14.56
   0  -3   3  294.12    7.89
   0  -3   2   63.03    3.72
   0   3  -2   66.43    6.22
   0  -3   2   64.27    3.31
   0  -3   2   56.66    4.59
   0  -3   2   69.91    4.62
   0  -3   2   67.86    5.71
   0   3  -2   62.23    4.13
   0  -3   1  395.96   14.36
   0   3  -1  371.06    5.02
   0   3  -1  326.93    7.47
   0  -3   1  327.76   11.28
   0  -3   1  339.85    5.08
   0  -3   1  360.65    6.77
   0   3  -1  381.40   11.62
   0   3  -1  371.40   11.03
   0   3  -1  402.63   11.00
   0  -3   0  655.94   18.56
   0   3   0  827.40   17.41
   0  -3   0  647.10   10.26
   0   3   0  779.07   10.77
   0   3   0  767.97   16.27
   0   3   0  712.97   15.46
   0   3   0  665.01    9.99
   0  -3  -1 1126.44   23.67
   0  -3  -1 1140.71   16.86
   0  -3  -1 1136.31   19.79
   0   3   1 1201.41   13.37
   0  -3  -1 1206.66   18.23
   0   3   1 1255.99   15.84
   0   3   1 1102.89   10.26
   0   3   1 1241.58   20.85
   0   3   1 1217.32   20.62
   0  -3  -2 2366.66   31.83
   0  -3  -2 2242.42   24.98
   0  -3  -2 2303.99   31.62
   0   3   2 2324.54   23.98
   0   3   2 2316.08   29.06
   0  -3  -2 2355.06   30.46
   0   3   3 1802.00   25.66
   0   3   3 1764.40   27.63
   0  -3  -3 1761.09   30.51
   0  -3  -3 1743.75   25.12
   0  -3  -4  305.31   14.40
   0  -3  -4  290.38   10.89
   0   3   4  306.29   12.55
   0  -3  -5  985.44   28.14
   0   3   5  992.26   24.58
   0  -3  -5  943.63   21.49
   0  -3  -6  904.57   28.95
   0   3   6  852.50   24.44
   0  -3  -7  529.38   22.84
   0   3   7  474.72   19.43
   0  -3  -8  276.79   16.86
   0   3   8  263.88   15.64
   0   3   8  247.23   10.10
   0  -3  -9   86.58    9.28
   0   3   9   56.28    7.49
   0   3   9   70.67    9.30
   0  -3  -9   84.05   10.74
   0  -3  -9   72.72    8.63
   0  -3  -9   80.19    9.44
   0  -3 -10    3.00    1.64
   0   3  10    4.09    0.97
   0   3  10    3.94    2.09
   0  -3 -10    5.09    2.96
   0  -3 -10    6.97    2.06
   0  -3 -10    4.56    2.54
   0  -3 -11    3.15    1.86
   0  -3 -11    6.52    2.33
   0   3  11    3.91    1.86
   0   3  11    5.20    2.28
   0  -3 -12    7.46    2.22
   0  -3 -12    6.88    2.40
   0   3  12    6.70    2.59
   0   3  12    4.35    2.02
   0  -3 -13   22.04    3.15
   0   3  13   24.50    3.86
   0  -3 -13   31.29    3.83
   0   3  13   27.38    4.34
   0  -4  14   62.33    5.09
   0   4 -14   63.09    5.21
   0  -4  13   21.93    3.92
   0   4 -13   22.30    3.89
   0  -4  13   21.95    3.75
   0  -4  12   50.54    6.93
   0   4 -12   49.06    6.74
   0   4 -11    8.11    3.07
   0  -4  11    0.70    1.14
   0  -4  11    2.65    0.86
   0   4 -11    5.48    2.59
   0  -4  10   22.65    3.13
   0  -4  10   25.90    3.53
   0   4 -10   25.46    6.11
   0  -4  10   29.09    5.73
   0  -4   9   64.41    8.50
   0   4  -9   55.12    8.68
   0  -4   9   63.52    5.41
   0  -4   9   51.66    7.69
   0  -4   9   61.94    5.11
   0   4  -8    2.76    2.84
   0  -4   8    0.35    0.98
   0  -4   8    0.66    0.71
   0   4  -8    3.39    3.61
   0   4  -7  154.91   14.37
   0  -4   7  193.48    8.63
   0   4  -7  164.21   14.12
   0  -4   7  175.10   13.32
   0   4  -6  952.76   34.41
   0   4  -6 1010.26   33.37
   0  -4   6 1021.81   30.52
   0   4  -5  407.53   21.75
   0  -4   5  460.20   12.22
   0   4  -5  455.14   21.22
   0   4  -4  833.35   26.64
   0  -4   4  838.57   15.99
   0   4  -4  749.86   27.63
   0  -4   4  774.40   19.75
   0  -4   3   67.93    6.27
   0  -4   3   68.84    5.19
   0  -4   3   68.57    4.24
   0   4  -3   74.86    7.17
   0   4  -3   68.86    7.75
   0  -4   2 2711.37   41.40
   0  -4   2 2534.09   23.80
   0   4  -2 2550.95   36.99
   0  -4   2 2811.01   34.03
   0   4  -2 2374.95   39.97
   0   4  -2 2461.34   35.91
   0   4  -1 2362.54   31.81
   0  -4   1 2449.53   40.76
   0   4  -1 2369.43   34.25
   0  -4   0  505.88   19.03
   0   4   0  579.34   16.92
   0   4   0  566.21   16.68
   0  -4   0  530.87   12.11
   0   4   0  584.17   14.62
   0  -4   0  537.69    9.07
   0  -4  -1  888.85   24.39
   0   4   1  948.50   21.78
   0  -4  -1  881.94   17.10
   0   4   1  960.47   21.81
   0  -4  -1  931.38   17.93
   0   4   2  112.09    7.45
   0  -4  -2  122.28    7.57
   0  -4  -2  101.86    6.18
   0  -4  -2  103.24    7.88
   0  -4  -3  184.59    8.92
   0  -4  -3  206.35   10.34
   0  -4  -3  215.86   11.34
   0   4   3  212.24   10.20
   0   4   3  201.18   10.69
   0  -4  -4   14.53    2.69
   0   4   4   13.12    2.91
   0  -4  -4   15.42    3.46
   0   4   4   14.83    2.94
   0  -4  -5   13.46    3.77
   0   4   5   13.71    3.18
   0   4   6   50.10    6.47
   0  -4  -6   49.89    7.20
   0  -4  -7  340.80   19.87
   0   4   7  320.01   17.20
   0   4   8  405.87   22.06
   0   4   8  383.42   19.83
   0  -4  -8  437.95   22.97
   0  -4  -8  442.56   24.04
   0   4   8  385.65   13.73
   0  -4  -8  475.91   23.46
   0   4   9  331.55   18.88
   0  -4  -9  349.03   19.89
   0   4   9  353.86   20.85
   0  -4  -9  396.45   22.54
   0  -4  -9  401.58   20.44
   0   4  10    1.05    1.20
   0   4  10    1.61    1.51
   0  -4 -10    1.82    0.87
   0  -4 -10    1.53    0.86
   0  -4 -11  129.64   10.45
   0   4  11  124.80   11.39
   0   4  11  111.78   10.50
   0   4  12   46.55    5.78
   0   4  12   51.97    6.43
   0  -4 -12   51.43    5.64
   0  -4 -13   14.32    2.32
   0   4  13   16.69    2.92
   0  -5  13   23.99    3.59
   0   5 -13   29.40    3.96
   0   5 -12   68.64    7.13
   0  -5  12   66.37    7.02
   0  -5  11   44.86    6.47
   0  -5  11   41.20    6.44
   0   5 -11   50.69    6.97
   0   5 -10  131.24   12.95
   0   5 -10  155.33   12.92
   0  -5  10  146.19   12.83
   0  -5   9    2.71    1.95
   0  -5   9    1.16    1.83
   0   5  -9    5.62    3.02
   0  -5   9    0.82    0.67
   0   5  -8  691.54   30.78
   0  -5   8  732.98   29.53
   0  -5   7   92.81    6.74
   0   5  -7   66.17    9.39
   0   5  -7   71.46   10.42
   0   5  -6   70.12   10.06
   0   5  -6   74.88    9.58
   0  -5   6   88.33    6.21
   0  -5   5   47.24    4.44
   0   5  -5   48.63    8.02
   0   5  -5   45.42    6.98
   0   5  -4   54.03    7.99
   0  -5   4   58.13    6.15
   0  -5   4   58.24    4.63
   0   5  -4   57.58    7.41
   0   5  -4   55.25    6.82
   0  -5   3  153.50   10.65
   0   5  -3  134.18   10.14
   0   5  -3  142.94   10.60
   0  -5   3  147.20    7.03
   0  -5   3  147.74    8.80
   0  -5   2  384.77   18.19
   0  -5   2  401.23   14.98
   0  -5   2  386.40   10.55
   0   5  -2  368.18   15.34
   0   5  -2  361.27   16.14
   0  -5   1  397.88   18.59
   0  -5   1  389.61    9.85
   0  -5   1  425.02   16.38
   0   5  -1  383.13   16.34
   0   5  -1  410.98   14.86
   0   5  -1  369.95   15.87
   0  -5   0  496.33   21.52
   0   5   0  538.95   16.21
   0   5   0  543.06   19.11
   0   5   0  564.27   19.48
   0   5   1  343.73   15.36
   0  -5  -1  333.57   16.95
   0  -5  -1  344.60   12.26
   0  -5  -2  530.03   20.35
   0  -5  -2  553.25   17.45
   0   5   2  517.44   18.53
   0  -5  -3 1323.39   30.12
   0   5   3 1282.73   30.74
   0   5   3 1255.97   28.51
   0  -5  -4  107.98    9.69
   0   5   4  114.07    9.64
   0   5   5  447.34   20.19
   0  -5  -5  454.73   21.72
   0  -5  -6   53.12    7.70
   0   5   6   54.03    7.29
   0  -5  -7   44.98    7.58
   0   5   7   47.93    7.91
   0   5   7   44.40    6.87
   0   5   7   42.77    7.02
   0   5   7   43.08    6.92
   0  -5  -7   54.81    8.03
   0   5   8   50.62    7.64
   0  -5  -8   47.62    7.74
   0   5   8   43.87    7.40
   0  -5  -8   50.56    7.68
   0   5   8   45.40    4.99
   0   5   8   39.85    6.56
   0  -5  -8   51.40    7.52
   0  -5  -9   21.55    4.57
   0  -5  -9   22.10    5.03
   0   5   9   18.43    4.65
   0  -5 -10    0.82    0.85
   0   5  10    1.97    1.00
   0   5  11   17.16    3.91
   0   5  11   19.28    4.17
   0  -5 -11   20.29    3.69
   0   5  12   16.04    3.28
   0  -5 -12   12.21    2.37
   0   6 -13    1.62    1.10
   0  -6  13   -0.32    0.73
   0  -6  12    6.79    2.21
   0  -6  11    1.22    1.14
   0  -6  10    8.16    3.15
   0  -6  10    6.20    2.57
   0  -6   9    9.00    3.03
   0  -6   9    7.50    2.90
   0  -6   9   11.89    3.46
   0   6  -9   14.39    4.59
   0  -6   8   83.28   10.45
   0  -6   8   81.80    6.86
   0  -6   8   71.29    8.87
   0   6  -8   79.31   10.37
   0  -6   8   79.81    8.91
   0   6  -8   75.66   10.47
   0  -6   7   79.65    6.63
   0   6  -7   72.24    9.92
   0  -6   7   68.42    9.44
   0   6  -7   80.98   10.87
   0  -6   7   86.68    9.34
   0  -6   6  232.71   11.15
   0   6  -6  207.17   16.41
   0   6  -6  190.42   15.43
   0   6  -5  123.39   11.96
   0   6  -5  120.09   11.84
   0  -6   5  142.50    8.47
   0   6  -4  600.17   24.56
   0   6  -4  582.78   24.67
   0  -6   4  611.64   16.64
   0  -6   3  184.63   11.21
   0   6  -3  181.88   13.56
   0   6  -3  191.79   12.93
   0   6  -3  188.45   13.56
   0  -6   3  201.27    9.20
   0  -6   2  403.81   19.96
   0   6  -2  379.07   18.57
   0   6  -2  362.08   18.44
   0  -6   2  396.91   12.07
   0   6  -2  390.09   17.29
   0  -6   2  389.08   16.92
   0   6  -1   80.84    7.41
   0   6  -1   75.45    8.20
   0   6  -1   75.22    8.11
   0  -6   1   78.35    7.94
   0  -6   1   78.21    8.97
   0  -6   0   78.51    9.13
   0  -6   0   88.17    9.06
   0   6   0   76.26    8.20
   0   6   0   73.51    8.04
   0   6   1   13.17    3.25
   0   6   1   13.19    3.34
   0   6   2    2.65    1.63
   0  -6  -2    1.57    1.29
   0   6   2    1.00    0.96
   0  -6  -2    3.08    2.35
   0   6   3    2.50    1.24
   0  -6  -3    3.08    1.80
   0   6   3    2.81    1.67
   0  -6  -3    4.00    1.91
   0  -6  -4   69.90    9.53
   0  -6  -4   54.33    7.26
   0   6   4   52.80    7.33
   0   6   5  126.48   11.81
   0  -6  -5  123.85   11.89
   0  -6  -5  152.79   13.54
   0  -6  -6  111.75   11.19
   0   6   6  103.69   11.64
   0   6   6  105.54   10.96
   0  -6  -6  112.21   10.22
   0  -6  -6  110.32   11.73
   0  -6  -6  120.12   12.02
   0   6   6  112.78   11.82
   0   6   7  175.82   14.73
   0   6   7  183.18   15.19
   0  -6  -7  168.41   13.98
   0  -6  -7  170.72   14.88
   0  -6  -7  169.03   13.18
   0  -6  -7  176.92   13.13
   0   6   7  175.88   15.23
   0   6   7  170.44   14.03
   0   6   8   32.59    6.20
   0  -6  -8   27.21    5.08
   0   6   8   28.16    5.70
   0   6   9   87.68    9.54
   0  -6  -9   89.50    8.70
   0   6  10   15.37    3.38
   0  -6 -10   20.02    3.72
   0   6  10   20.83    4.30
   0   6  11   24.90    4.06
   0  -6 -11   22.52    3.27
   0   7 -12   20.28    3.02
   0  -7  12   21.37    3.11
   0  -7  11   14.75    3.04
   0   7 -11   15.70    3.27
   0  -7  10   47.10    6.47
   0  -7  10   49.56    6.15
   0  -7  10   49.01    5.80
   0  -7   9    6.41    2.37
   0  -7   9    3.91    2.01
   0  -7   9    5.87    2.74
   0  -7   8   48.24    6.80
   0  -7   8   47.57    7.98
   0  -7   7    0.87    1.04
   0   7  -7    0.73    1.70
   0  -7   7   -2.10    1.80
   0  -7   6   54.48    7.79
   0  -7   6   61.15    9.15
   0   7  -6   55.92    8.42
   0  -7   6   56.92    5.91
   0   7  -5   22.31    5.33
   0   7  -5   17.95    4.78
   0  -7   5   21.66    3.58
   0  -7   5   21.51    4.94
   0  -7   5   19.64    5.54
   0   7  -4   38.46    6.30
   0   7  -4   32.43    6.23
   0   7  -4   30.78    6.32
   0  -7   4   40.38    4.67
   0   7  -3   47.57    6.71
   0   7  -3   36.17    6.46
   0  -7   3   40.81    5.84
   0   7  -3   41.40    6.78
   0  -7   2   82.31    8.57
   0   7  -2   82.54    9.51
   0   7  -2   78.78    9.25
   0   7  -1   11.57    3.48
   0  -7   1   18.70    4.24
   0   7  -1   18.95    4.42
   0   7   0  299.50   16.92
   0   7   0  307.01   18.29
   0  -7   0  326.97   18.72
   0  -7  -1  642.89   27.67
   0   7   1  548.25   23.41
   0   7   2   27.42    5.23
   0  -7  -2   29.51    6.34
   0   7   2   28.91    5.41
   0  -7  -3   77.93   10.35
   0  -7  -3   67.25    9.45
   0   7   3   63.57    8.39
   0   7   3   74.43    9.51
   0  -7  -4   29.91    6.39
   0  -7  -4   30.94    6.71
   0  -7  -4   27.55    4.46
   0   7   4   32.77    6.18
   0  -7  -4   32.58    5.45
   0   7   4   29.87    5.99
   0   7   4   31.25    5.96
   0   7   5   68.57    9.46
   0   7   5   68.08    9.21
   0   7   5   62.03    8.61
   0  -7  -5   70.59    9.50
   0  -7  -5   55.05    6.67
   0  -7  -5   53.52    7.58
   0  -7  -6   49.93    6.45
   0   7   6   55.21    8.08
   0   7   6   55.50    8.60
   0  -7  -6   54.58    7.89
   0   7   6   59.77    8.63
   0  -7  -7    0.64    0.74
   0  -7  -7    4.65    2.60
   0   7   7    2.14    2.08
   0   7   7    2.18    2.03
   0   7   7    2.09    1.99
   0   7   8    3.64    2.06
   0   7   8    2.92    1.45
   0  -7  -8    3.01    1.54
   0  -7  -9    5.10    1.70
   0   7   9    5.05    2.12
   0   7  10    5.12    1.90
   0  -7 -10    4.00    1.36
   0  -8  10   -0.01    0.45
   0  -8   9   18.34    3.65
   0  -8   8   20.70    4.21
   0  -8   7   33.56    5.75
   0  -8   6   72.28    8.85
   0   8  -5   80.10   10.48
   0  -8   5   86.08    8.62
   0   8  -4    8.16    3.40
   0   8  -4    9.64    3.61
   0  -8   4   13.36    4.12
   0  -8   4   10.36    3.31
   0   8  -3    8.47    3.27
   0  -8   3   14.46    4.00
   0  -8   3   10.91    3.25
   0   8  -3    6.69    2.65
   0  -8   2   13.91    4.25
   0   8  -2   14.92    4.16
   0  -8   2   17.49    4.28
   0   8  -2   13.20    4.00
   0  -8   2   18.27    4.26
   0   8  -1   10.91    3.57
   0   8  -1    6.59    2.60
   0  -8   1    9.66    3.21
   0  -8   1    8.53    3.50
   0   8   0  151.00   12.93
   0   8   0  170.21   13.80
   0  -8   0  147.80   11.96
   0  -8   0  185.64   16.05
   0  -8   0  171.24   14.55
   0   8   1  106.07   10.83
   0   8   1  110.11   11.17
   0  -8  -1  111.18   12.90
   0  -8  -1  104.79   11.93
   0  -8  -1   94.03   10.27
   0   8   2   53.72    8.30
   0  -8  -2   41.31    7.09
   0   8   2   48.19    7.57
   0  -8  -2   57.20    9.21
   0   8   3   10.99    3.47
   0   8   3   10.13    3.70
   0  -8  -3   10.10    3.32
   0  -8  -3   11.37    4.02
   0   8   4   15.59    4.06
   0  -8  -4    9.67    3.19
   0   8   4   11.53    3.81
   0   8   4   11.99    3.70
   0   8   5   17.79    4.71
   0   8   5   14.98    4.15
   0  -8  -5   17.88    4.60
   0  -8  -5   13.19    2.98
   0   8   6   36.06    6.57
   0   8   6   27.38    5.36
   0  -8  -6   26.90    4.22
   0   8   6   32.92    6.08
   0  -8  -6   27.48    5.13
   0   8   7   52.12    6.97
   0  -8  -7   50.76    6.11
   0   8   7   53.26    6.88
   0  -8  -7   46.75    5.24
   0   8   8    1.03    0.86
   0   8   8    4.05    1.47
   0  -8  -8    1.82    0.88
   0  -8  -8    2.57    1.18
   0   8   9   12.44    2.64
   0  -8  -9    8.83    1.71
   0  -9   9    6.53    1.89
   0   9  -9    5.86    1.76
   0   9  -8    0.88    0.82
   0  -9   8    1.13    0.79
   0  -9   7    0.96    0.58
   0  -9   6    1.83    1.41
   0  -9   5   26.09    5.01
   0  -9   5   16.51    3.63
   0  -9   4    5.31    2.37
   0  -9   4    4.02    2.00
   0  -9   3   40.58    6.56
   0  -9   3   29.91    5.42
   0  -9   2   21.73    4.89
   0   9  -2   19.16    4.77
   0  -9   1   23.39    5.37
   0   9  -1   19.07    4.67
   0  -9   0   17.95    3.85
   0  -9   0   20.34    5.17
   0   9   0   22.29    5.04
   0  -9  -1   68.70    8.04
   0  -9  -1   88.55   10.70
   0   9   1   95.76   10.81
   0  -9  -2   -0.07    0.56
   0   9   2    1.08    1.59
   0  -9  -2   -0.61    1.64
   0   9   3   13.86    3.94
   0   9   3   16.62    4.39
   0  -9  -3   15.55    3.88
   0  -9  -3   18.73    4.60
   0   9   4    6.66    2.34
   0  -9  -4    7.62    2.87
   0   9   4    6.15    2.58
   0   9   5    1.49    1.53
   0  -9  -5    0.95    1.13
   0   9   5    0.10    0.60
   0   9   6    2.88    1.97
   0   9   6    2.74    1.05
   0  -9  -6    1.85    1.23
   0  -9  -7    4.25    1.30
   0   9   7    4.91    1.73
   0 -10   8    2.27    1.06
   0 -10   7    6.26    1.82
   0 -10   6   -1.34    0.91
   0  10  -5   17.60    3.47
   0 -10   5   19.88    3.80
   0 -10   5   17.86    3.21
   0 -10   4    0.92    1.04
   0 -10   4    0.66    0.98
   0 -10   3    1.89    1.21
   0 -10   2    0.86    0.79
   0 -10   1    6.42    2.47
   0  10   0    0.56    0.88
   0 -10   0    1.20    1.37
   0 -10   0   -2.01    1.10
   0 -10  -1   10.04    2.50
   0 -10  -1   16.94    3.96
   0  10   1   18.35    4.00
   0  10   1   16.49    3.98
   0  10   2    0.80    1.26
   0 -10  -2    2.16    1.20
   0 -10  -2    0.67    0.54
   0  10   2    0.07    0.77
   0 -10  -3   11.75    2.77
   0  10   3   13.36    3.37
   0 -10  -3   12.23    2.98
   0  10   3   14.30    3.28
   0  10   4    3.49    1.75
   0 -10  -4    1.86    1.06
   0  10   4    2.92    1.26
   0  10   5    4.89    1.77
   0 -10  -5    3.32    1.25
   0  11  -4    3.65    1.63
   0 -11   3    0.20    0.54
   0  11  -3    1.88    1.08
   0  11  -2    0.53    0.95
   0 -11   2    0.55    0.50
   0  11  -1   19.23    3.49
   0  11  -1   19.35    3.42
   0 -11   1   12.99    2.75
   0  11   0    0.53    0.78
   0  11   0    0.38    0.65
   0 -11   0   -0.63    0.79
   0 -11  -1    3.72    1.31
   0  11   1    3.68    1.48
  -1 -10  -2    1.01    0.84
  -1 -10  -2    1.27    0.92
   1  10   2    2.47    1.39
   1  10   2    2.57    1.52
   1  10   1    4.16    1.73
   1  10   1    1.60    0.96
  -1 -10  -1    1.15    0.75
  -1 -10  -1    2.78    1.42
   1  10   0    0.68    0.74
   1  10   0    0.46    0.99
  -1 -10   0    0.16    0.30
   1  10  -1    0.95    0.36
  -1 -10   1    1.32    1.18
  -1 -10   2    2.51    1.31
   1  10  -2    0.95    0.66
   1  10  -2    4.50    1.75
   1  10  -3    8.12    2.78
   1  10  -3    5.09    1.84
  -1 -10   3    4.29    1.54
   1  10  -4    5.53    1.89
  -1 -10   4    2.85    1.40
   1  10  -4    5.19    2.09
  -1 -10   4    3.48    1.30
  -1 -10   5    7.63    1.98
   1  10  -5    7.45    2.08
  -1 -10   6    0.86    0.50
   1  10  -6    1.90    0.90
  -1  -9  -5    2.56    1.14
   1   9   5    5.24    1.85
   1   9   4    3.57    1.62
   1   9   4    6.43    2.39
  -1  -9  -4    5.10    1.94
  -1  -9  -3    0.98    0.83
   1   9   3    4.45    2.13
  -1  -9  -3    1.95    1.30
   1   9   3    1.98    1.41
   1   9   2   12.50    3.80
  -1  -9  -2   12.65    3.51
  -1  -9  -2    9.53    2.66
   1   9   2   11.53    3.45
  -1  -9  -1   48.76    6.07
  -1  -9  -1   59.90    7.76
   1   9   0    0.52    1.66
  -1  -9   0    1.46    1.56
  -1  -9   0    0.62    1.06
   1   9   0    1.62    1.23
   1   9  -1    5.69    2.62
  -1  -9   1    6.90    2.77
   1   9  -1    4.46    2.04
  -1  -9   2    3.62    1.84
   1   9  -2    3.12    2.05
  -1  -9   3   -0.89    1.38
  -1  -9   3    0.52    0.35
  -1  -9   4    9.44    2.99
   1   9  -4    7.13    2.38
   1   9  -4   15.17    3.91
  -1  -9   4    5.61    2.06
  -1  -9   5    4.59    2.13
   1   9  -5    6.99    2.38
   1   9  -6    2.74    1.70
  -1  -9   6    5.44    2.30
   1   9  -6    3.77    2.29
   1   9  -7    1.36    1.03
  -1  -9   7    1.70    1.20
   1   9  -7    3.66    1.88
   1   9  -8    3.61    1.57
  -1  -9   8    4.88    1.53
   1   9  -8    7.91    2.42
   1   9  -9   11.85    2.42
  -1  -9   9    8.54    1.88
  -1  -8  -7   12.89    2.49
   1   8   7   18.86    3.70
  -1  -8  -6    0.27    0.90
   1   8   6    3.34    1.62
   1   8   5    0.19    0.54
   1   8   5   -0.92    1.43
  -1  -8  -5   -0.33    1.17
   1   8   4   -0.62    0.52
  -1  -8  -4    0.29    0.48
   1   8   4   -1.07    0.65
   1   8   3   -0.54    1.02
   1   8   3   -0.75    0.52
  -1  -8  -3   -0.08    0.50
  -1  -8  -3    0.41    0.76
  -1  -8  -2   22.41    4.94
   1   8   2   35.89    7.06
  -1  -8  -2   30.34    6.26
  -1  -8  -1   74.44    9.97
   1   8   1   92.29   11.39
   1   8   1   75.69    8.83
  -1  -8  -1   72.01    8.59
  -1  -8   0   69.58    8.13
   1   8   0   84.09    9.66
  -1  -8   0   80.57   10.21
   1   8  -1    3.75    1.97
  -1  -8   1    2.92    1.99
   1   8  -1    4.90    2.02
  -1  -8   2   24.14    5.39
  -1  -8   2   12.45    3.74
   1   8  -2   16.84    4.36
   1   8  -2   15.54    4.48
   1   8  -3   21.98    4.75
   1   8  -3   27.92    5.81
  -1  -8   3   19.76    4.70
  -1  -8   3   30.06    5.93
   1   8  -4   41.41    6.76
  -1  -8   4   39.88    6.71
  -1  -8   4   39.57    6.12
  -1  -8   5  110.02   10.82
   1   8  -5  108.51   11.11
  -1  -8   6    0.27    0.55
   1   8  -6    1.50    1.57
   1   8  -7   17.65    4.61
  -1  -8   7   11.98    3.26
  -1  -8   8    1.49    1.16
   1   8  -8    0.09    1.12
   1   8  -9    1.93    1.43
  -1  -8   9    1.64    1.03
   1   8 -10    0.15    0.37
  -1  -8  10    0.41    0.47
   1   7   9    3.16    1.51
   1   7   8   -0.26    0.43
   1   7   7   40.00    6.75
  -1  -7  -7   32.70    4.75
   1   7   6   38.41    6.70
  -1  -7  -6   39.38    6.11
  -1  -7  -6   31.43    4.91
   1   7   6   36.87    6.67
  -1  -7  -5   20.61    3.96
   1   7   5   37.00    6.86
   1   7   5   31.84    6.60
  -1  -7  -5   34.27    6.16
   1   7   4   44.32    7.81
   1   7   4   36.94    7.01
  -1  -7  -4   39.54    7.08
  -1  -7  -4   42.61    7.45
  -1  -7  -3   21.05    5.36
  -1  -7  -3   22.71    5.56
   1   7   3   27.70    6.20
   1   7   3   21.31    5.25
  -1  -7  -2   98.85   11.21
   1   7   2  101.84   10.39
   1   7   2  101.82   11.79
  -1  -7  -2  130.19   13.79
   1   7   1  135.51   12.31
  -1  -7  -1  147.09   13.08
  -1  -7  -1  118.56   11.72
   1   7   0    1.37    1.76
  -1  -7   0   -0.38    1.73
  -1  -7   0    1.17    1.22
  -1  -7   0    0.01    1.46
   1   7   0   -0.94    1.19
   1   7   0   -2.49    2.00
   1   7  -1   13.51    4.00
   1   7  -1   11.65    3.33
   1   7  -1   19.10    4.71
   1   7  -1   14.38    3.81
  -1  -7   1   10.20    3.23
  -1  -7   1   21.32    5.12
  -1  -7   1   13.80    3.86
   1   7  -2    1.55    1.76
  -1  -7   2    4.76    2.94
   1   7  -2    0.55    1.55
  -1  -7   2    1.36    0.95
  -1  -7   2    2.11    1.95
  -1  -7   2    1.08    0.73
   1   7  -2    1.58    1.47
  -1  -7   3    2.08    1.71
  -1  -7   3    4.37    2.78
   1   7  -3    5.11    2.93
   1   7  -3    7.01    2.66
  -1  -7   3    6.00    2.68
   1   7  -3    1.45    1.46
   1   7  -3    2.55    1.67
   1   7  -4   20.00    4.84
  -1  -7   4   33.17    6.64
   1   7  -4   31.07    6.24
   1   7  -4   24.15    5.46
  -1  -7   4   31.11    6.11
  -1  -7   4   21.35    4.80
  -1  -7   4   19.70    4.53
  -1  -7   5   37.14    7.15
  -1  -7   5   50.02    7.54
   1   7  -5   29.62    6.16
  -1  -7   5   26.58    4.89
   1   7  -5   30.32    6.33
   1   7  -5   34.87    6.74
  -1  -7   6   53.17    7.51
  -1  -7   6   47.39    8.20
   1   7  -6   37.74    7.09
  -1  -7   7   34.84    5.91
  -1  -7   7   38.72    7.13
   1   7  -8   32.69    5.64
  -1  -7   8   32.48    5.36
  -1  -7   8   36.48    6.78
  -1  -7   9   51.10    7.59
   1   7  -9   52.47    6.87
  -1  -7   9   44.07    5.84
   1   7 -10   19.96    3.80
  -1  -7  10   18.82    4.04
  -1  -7  10   16.63    3.19
  -1  -7  11   23.02    4.01
   1   7 -11   26.87    3.88
   1   7 -12    2.08    1.07
   1   6  10    7.07    2.10
  -1  -6 -10    4.71    1.30
   1   6  10    4.86    1.61
   1   6   9   21.60    4.16
   1   6   9   21.86    4.49
  -1  -6  -9   19.37    3.17
   1   6   8    7.71    3.14
  -1  -6  -8    4.79    1.90
  -1  -6  -8    6.15    2.09
  -1  -6  -7   18.68    3.70
   1   6   7   17.12    4.63
  -1  -6  -7   22.03    4.49
  -1  -6  -7   16.57    3.71
   1   6   6   14.80    4.47
   1   6   6   13.89    4.15
  -1  -6  -6   14.97    3.94
  -1  -6  -6   15.19    4.21
  -1  -6  -5    4.38    2.72
   1   6   5    2.41    1.51
   1   6   5    2.09    1.68
  -1  -6  -5    3.76    2.24
  -1  -6  -4    1.98    1.55
   1   6   4   -1.30    1.41
   1   6   4    0.48    1.00
   1   6   4    1.20    0.77
  -1  -6  -4    1.71    2.56
   1   6   3   91.04   10.73
  -1  -6  -3   98.75   11.27
  -1  -6  -2   38.91    6.38
   1   6   1   99.20    9.86
  -1  -6  -1   90.72   10.09
   1   6   1   99.97    9.22
   1   6   0  155.59   11.43
  -1  -6   0  156.08   13.31
  -1  -6   1  178.50   14.15
   1   6  -1  175.51   13.13
   1   6  -1  186.79   12.69
  -1  -6   2  348.90   18.90
   1   6  -2  353.92   19.18
   1   6  -2  347.44   18.91
  -1  -6   2  346.33   19.27
   1   6  -3  115.28   10.97
  -1  -6   3  106.25   10.32
  -1  -6   3  100.71   10.19
   1   6  -3  101.10   10.38
  -1  -6   3  118.82    9.30
   1   6  -3  104.23   10.62
   1   6  -4  142.10   12.74
   1   6  -4  132.35   12.41
  -1  -6   4  134.09   11.16
  -1  -6   4  124.40   10.61
   1   6  -5   77.24    9.93
   1   6  -5   67.49    9.04
  -1  -6   5   67.17    5.35
  -1  -6   5   61.06    7.16
   1   6  -6    5.97    2.40
  -1  -6   6   10.95    3.90
  -1  -6   6   11.68    3.78
   1   6  -6    9.27    2.94
  -1  -6   6    7.97    1.91
  -1  -6   6    3.53    2.26
   1   6  -6    6.91    3.01
   1   6  -7   96.68   10.69
  -1  -6   7   87.26   10.79
  -1  -6   7   90.61    9.80
  -1  -6   7   78.89    6.06
   1   6  -7   80.16   10.68
  -1  -6   8   77.20    9.89
   1   6  -8   91.23   10.43
   1   6  -8   83.56   10.19
  -1  -6   8   72.93    8.36
  -1  -6   9   16.25    4.55
   1   6  -9   16.84    4.57
  -1  -6   9   12.78    3.26
  -1  -6  10   27.29    5.62
   1   6 -10   30.11    5.71
   1   6 -11   11.31    2.88
  -1  -6  11   12.72    3.57
   1   6 -12   17.33    3.27
  -1  -6  12   16.90    3.30
   1   6 -13   25.12    2.97
  -1  -5 -11    6.41    1.59
   1   5  11    7.87    2.06
   1   5  10    1.31    0.66
  -1  -5 -10    0.61    0.33
   1   5  10    1.38    1.21
  -1  -5  -9   44.61    5.82
   1   5   9   34.13    6.26
  -1  -5  -9   37.14    5.64
   1   5   8   64.12    9.24
  -1  -5  -8   63.47    7.87
  -1  -5  -7  104.56   10.23
  -1  -5  -7   77.94    8.95
  -1  -5  -7   97.03   10.34
   1   5   7   90.04   11.01
  -1  -5  -6  111.41   11.23
   1   5   6  110.88   12.14
   1   5   6  104.63    8.09
   1   5   6  104.84   11.47
  -1  -5  -6   92.07    9.79
  -1  -5  -6  132.76   12.49
   1   5   5  112.89   11.94
   1   5   5  115.01   11.70
   1   5   5  113.84    8.35
  -1  -5  -5  147.87   13.48
  -1  -5  -5  114.74   11.27
  -1  -5  -5   96.48    9.66
  -1  -5  -4  154.30   11.62
   1   5   4  171.37   10.12
   1   5   3  332.96   16.01
  -1  -5  -3  300.61   14.89
  -1  -5  -2   83.83    9.14
   1   5   2   96.02    8.38
   1   5   1   23.30    4.09
   1   5   1   19.46    3.66
  -1  -5  -1   24.93    5.29
   1   5   0   52.43    6.55
   1   5   0   53.50    6.09
  -1  -5   0   56.04    6.94
  -1  -5   0   51.14    7.47
   1   5  -1    1.83    1.33
   1   5  -1    0.98    1.25
  -1  -5   1    1.98    1.84
  -1  -5   1    3.26    2.80
  -1  -5   2  378.17   17.57
   1   5  -2  373.58   17.22
   1   5  -2  372.65   17.37
   1   5  -2  349.38   17.17
   1   5  -3    3.29    1.33
  -1  -5   3    4.07    1.79
  -1  -5   3    6.58    2.66
   1   5  -3    2.35    1.26
  -1  -5   4  192.82   12.08
   1   5  -4  204.63   14.38
  -1  -5   4  181.39    7.61
   1   5  -4  191.31   13.67
  -1  -5   4  160.75   11.41
  -1  -5   5   92.96    5.72
   1   5  -5  107.75   10.09
   1   5  -5  104.86   10.81
  -1  -5   5   79.59    7.77
   1   5  -6  436.15   22.08
  -1  -5   6  376.54   11.90
   1   5  -6  392.11   22.43
   1   5  -7  560.63   26.71
  -1  -5   7  505.59   14.49
   1   5  -7  518.56   26.62
  -1  -5   8   94.22    6.26
   1   5  -8   99.12   11.80
   1   5  -8  109.78   12.03
  -1  -5   8  103.86   11.56
  -1  -5   8   91.58    9.39
  -1  -5   8  114.16   10.41
  -1  -5   9   15.01    4.08
   1   5  -9   12.81    4.37
   1   5  -9    9.44    3.36
   1   5 -10   89.14    9.45
   1   5 -10  100.77   11.14
  -1  -5  10   82.20    9.76
   1   5 -11   74.72    8.11
   1   5 -11   77.89    9.10
  -1  -5  11   70.55    8.49
   1   5 -12    6.75    2.35
  -1  -5  12    4.41    1.94
   1   5 -12    4.44    1.89
   1   5 -13    5.88    1.77
   1   5 -13    5.36    1.55
  -1  -5  13    7.27    1.97
  -1  -5  13    2.95    1.21
  -1  -4 -12   22.58    2.92
   1   4  12   28.48    3.94
   1   4  11    2.35    1.41
  -1  -4 -11    2.59    1.03
   1   4  11    2.46    1.26
  -1  -4 -11    1.14    0.51
  -1  -4 -10    9.76    2.47
   1   4  10    8.10    2.51
   1   4  10    6.67    2.57
  -1  -4 -10   12.22    3.15
  -1  -4  -9  204.88   14.29
   1   4   9  217.08   16.65
  -1  -4  -9  214.28   14.31
  -1  -4  -8   22.12    4.86
  -1  -4  -8   17.11    4.29
   1   4   8   19.16    5.08
  -1  -4  -8   21.07    4.95
   1   4   7    1.01    1.01
   1   4   7    0.24    0.56
   1   4   6   30.03    4.09
  -1  -4  -6   26.59    5.20
  -1  -4  -5   90.21    9.03
   1   4   5  100.97    7.32
   1   4   4    0.92    0.59
   1   4   4    1.68    1.00
  -1  -4  -4    2.42    1.67
   1   4   3  225.67   12.08
  -1  -4  -3  203.86   11.75
  -1  -4  -2  672.60   20.99
   1   4   2  690.89   20.25
   1   4   1  655.81   18.98
  -1  -4  -1  726.48   21.67
   1   4   0  796.50   20.77
   1   4   0  760.56   20.94
   1   4  -1 1285.50   27.01
   1   4  -1 1248.84   27.06
  -1  -4   2  254.63   12.72
   1   4  -2  233.31   12.24
   1   4  -2  226.36   11.63
   1   4  -3   79.02    7.59
  -1  -4   3   84.64    7.16
   1   4  -3   91.29    7.18
   1   4  -4  389.36   18.58
  -1  -4   4  357.79   14.56
   1   4  -4  351.09   15.49
   1   4  -4  406.94   17.35
  -1  -4   5  203.81   10.87
   1   4  -5  230.95   14.56
   1   4  -5  218.89   14.66
   1   4  -6   11.12    4.02
   1   4  -6    9.68    3.13
  -1  -4   6    8.88    3.03
   1   4  -7   10.65    4.28
  -1  -4   7    6.57    2.92
  -1  -4   7    8.89    1.84
   1   4  -7    6.72    2.52
   1   4  -8  421.62   23.59
  -1  -4   8  410.75   12.42
  -1  -4   8  419.41   22.64
   1   4  -8  467.40   25.92
   1   4  -9   -1.23    2.34
   1   4  -9    2.27    1.81
  -1  -4   9    1.16    3.26
  -1  -4   9   -2.59    1.82
   1   4  -9   -0.88    1.73
  -1  -4   9    1.03    0.64
  -1  -4   9    1.39    1.93
   1   4 -10  106.17   11.09
   1   4 -10   86.06   10.44
  -1  -4  10   84.09   10.48
  -1  -4  10   89.09   10.43
  -1  -4  10   96.20   10.71
   1   4 -11  103.87   10.53
  -1  -4  11  101.76   10.75
  -1  -4  11   92.85   10.07
  -1  -4  12   98.86    9.46
  -1  -4  12  104.41   10.20
   1   4 -12  111.07    9.65
  -1  -4  13   58.54    6.22
   1   4 -13   72.37    6.77
   1   4 -13   69.14    6.49
   1   4 -14   15.80    2.50
   1   4 -14   12.62    2.14
  -1  -4  14   14.19    2.45
  -1  -3 -12    7.45    1.97
   1   3  12    9.81    2.76
  -1  -3 -11   35.87    4.64
   1   3  11   33.66    5.04
   1   3  11   44.04    6.80
  -1  -3 -11   41.22    5.83
  -1  -3 -10    4.34    2.50
   1   3  10    0.32    1.31
  -1  -3 -10    1.46    1.43
   1   3  10   -2.68    1.60
   1   3   9   84.87    9.45
   1   3   9   85.71   10.64
  -1  -3  -9   95.30    9.92
  -1  -3  -9   84.09   10.13
  -1  -3  -9   76.18    8.60
   1   3   8  294.00   12.60
  -1  -3  -8  298.09   19.24
  -1  -3  -8  290.55   16.92
   1   3   8  325.53   20.52
  -1  -3  -8  328.84   18.81
  -1  -3  -7  297.68   16.93
   1   3   7  303.89   12.60
  -1  -3  -6  330.96   17.26
   1   3   6  351.69   13.23
  -1  -3  -5  288.83   15.08
   1   3   5  295.93   11.57
   1   3   4  163.57    8.33
  -1  -3  -4  142.02   10.04
   1   3   4  142.26    9.37
   1   3   3  785.19   20.55
  -1  -3  -3  733.00   20.59
  -1  -3  -2    2.82    1.21
   1   3   2    1.63    0.89
  -1  -3  -2    3.85    1.41
  -1  -3  -1   93.69    6.61
   1   3   1   99.64    6.53
  -1  -3  -1   86.54    5.74
  -1  -3   0  157.79    8.79
   1   3   0  146.28    7.87
   1   3   0  141.16    7.77
   1   3  -1   37.40    4.05
  -1  -3   1   44.75    4.55
   1   3  -1   42.46    4.16
   1   3  -1   36.40    4.13
   1   3  -2 1158.52   23.76
  -1  -3   2 1214.76   16.08
  -1  -3   2 1136.26   22.86
   1   3  -2 1088.20   22.70
   1   3  -2 1224.72   21.73
  -1  -3   3  569.87   16.37
   1   3  -3  553.92   15.81
  -1  -3   4  826.78   23.32
   1   3  -4  833.91   24.28
   1   3  -4  825.98   20.51
   1   3  -4  863.84   24.55
  -1  -3   4  786.50   19.18
   1   3  -5 1171.77   31.66
   1   3  -5 1198.24   33.43
  -1  -3   5 1126.53   22.96
  -1  -3   5 1149.34   29.49
   1   3  -6  477.36   21.79
  -1  -3   6  500.46   20.94
   1   3  -6  474.12   24.30
   1   3  -7  615.52   26.41
   1   3  -7  668.58   30.14
  -1  -3   7  687.16   26.08
   1   3  -8  184.85   14.96
  -1  -3   8  191.25   14.54
   1   3  -8  198.86   16.67
   1   3  -9  134.21   14.20
   1   3  -9  136.53   12.98
  -1  -3   9  126.61    6.80
  -1  -3   9  129.91   12.60
  -1  -3  10   96.55   10.56
  -1  -3  10   84.75   10.34
  -1  -3  10   84.16   10.14
   1   3 -10  105.89   11.65
  -1  -3  10   82.81    5.58
   1   3 -10   93.75   11.43
  -1  -3  11    2.79    1.74
   1   3 -11   -1.98    2.64
  -1  -3  11    0.21    1.88
   1   3 -11    3.69    2.65
  -1  -3  11    1.16    0.72
  -1  -3  12    0.36    0.49
   1   3 -12    0.87    1.39
  -1  -3  12    1.45    0.96
   1   3 -13    4.49    1.26
  -1  -3  13    6.96    2.32
  -1  -3  13    6.73    2.17
   1   3 -13   10.02    2.66
   1   3 -14   13.45    2.36
   1   3 -14   16.06    2.81
  -1  -3  14   12.69    2.60
  -1  -2 -13   23.27    3.27
   1   2  13   27.16    3.89
  -1  -2 -12   49.03    6.00
  -1  -2 -12   47.63    5.31
   1   2  12   51.05    6.63
  -1  -2 -11   36.46    6.03
   1   2  11   29.76    4.90
   1   2  11   34.54    6.30
  -1  -2 -11   32.52    5.17
  -1  -2 -10   19.31    4.45
   1   2  10   29.18    6.11
   1   2  10   24.89    4.85
  -1  -2 -10   32.37    5.21
  -1  -2 -10   20.85    4.78
  -1  -2  -9   36.21    6.04
   1   2   9   31.48    5.44
  -1  -2  -9   38.15    5.97
  -1  -2  -9   36.87    6.90
   1   2   9   45.27    6.92
   1   2   9   41.04    7.38
   1   2   9   37.39    4.39
  -1  -2  -8    5.26    3.21
   1   2   8    5.26    2.61
   1   2   8    5.89    1.71
  -1  -2  -7    8.75    2.88
   1   2   7    8.59    2.02
   1   2   6  210.45    9.51
  -1  -2  -6  213.80   12.67
   1   2   5   84.10    5.68
  -1  -2  -5   83.55    7.37
  -1  -2  -4 1030.79   23.58
   1   2   4 1063.96   19.46
  -1  -2  -3 1083.05   19.37
   1   2   3 1116.80   22.42
  -1  -2  -3 1134.10   22.19
  -1  -2  -2 1005.89   18.82
  -1  -2  -2 1010.14   18.50
   1   2   2 1001.60   19.65
   1   2   1 2285.32   27.80
   1   2   1 2289.74   18.11
  -1  -2  -1 2291.15   27.84
  -1  -2  -1 2205.96   23.63
   1   2   0  711.80   14.96
  -1  -2   0  764.83   17.16
  -1  -2   0  731.40   16.24
  -1  -2   1 2095.51   15.55
  -1  -2   1 2088.03   26.98
  -1  -2   1 2022.20   28.33
   1   2  -1 2003.65   25.67
   1   2  -2  444.76   12.96
  -1  -2   2  426.46    7.68
  -1  -2   2  455.60   12.56
   1   2  -3 1179.87   22.95
  -1  -2   3 1255.83   23.85
  -1  -2   3 1121.20   20.05
   1   2  -3 1272.82   24.09
   1   2  -3 1155.16   18.82
   1   2  -4   20.96    3.83
  -1  -2   4   28.25    3.25
   1   2  -4   26.21    4.01
  -1  -2   4   23.55    3.66
   1   2  -5   30.12    5.34
  -1  -2   5   35.31    4.81
  -1  -2   5   32.52    3.55
   1   2  -5   37.04    5.36
   1   2  -6  292.70   18.31
  -1  -2   6  432.84   18.22
  -1  -2   7  141.72   11.24
   1   2  -7  112.06   12.31
   1   2  -8  210.00   17.23
  -1  -2   8  221.00   15.04
   1   2  -9  492.89   27.39
  -1  -2   9  461.14   22.88
  -1  -2  10  283.08   18.54
  -1  -2  10  294.51   18.14
  -1  -2  10  316.94   19.35
   1   2 -10  343.26   19.30
  -1  -2  10  260.81    9.70
   1   2 -10  297.22   20.35
   1   2 -10  330.56   20.73
  -1  -2  11  179.89   14.90
  -1  -2  11  192.39   14.41
  -1  -2  11  203.50   15.49
   1   2 -11  209.44   15.81
   1   2 -11  218.11   14.72
   1   2 -11  202.52   15.57
  -1  -2  12  126.73   11.08
  -1  -2  12  152.32   12.76
   1   2 -12  152.42   12.38
   1   2 -12  146.80   11.05
  -1  -2  13   86.63    8.22
  -1  -2  13   95.36    9.29
   1   2 -13   99.62    8.87
   1   2 -13   96.07    7.82
   1   2 -14   34.72    3.84
  -1  -2  14   39.50    5.03
   1   2 -14   42.90    4.86
  -1  -1 -13    9.30    2.13
   1   1  13   11.26    2.76
  -1  -1 -13   13.36    2.65
  -1  -1 -12   11.46    3.09
   1   1  12   10.58    2.99
  -1  -1 -12   18.38    3.98
  -1  -1 -11   58.37    7.90
  -1  -1 -11   46.46    6.70
   1   1  11   59.56    8.50
   1   1  11   52.50    4.42
   1   1  11   47.92    6.39
   1   1  10  158.40   12.37
   1   1  10  186.39   15.37
  -1  -1 -10  163.92   14.24
   1   1  10  192.71    9.15
  -1  -1 -10  161.98   12.35
  -1  -1 -10  159.55   11.18
  -1  -1 -10  164.58   13.49
   1   1   9  162.43   12.20
   1   1   9  171.29   12.93
   1   1   9  197.35   15.76
  -1  -1  -9  156.60   11.30
  -1  -1  -9  183.75   13.59
  -1  -1  -9  185.25   15.54
   1   1   9  188.79   14.21
   1   1   8  273.09   11.17
  -1  -1  -8  256.68   14.04
   1   1   8  260.63   14.77
  -1  -1  -7  464.97   17.80
   1   1   7  487.05   14.24
   1   1   6  695.03   16.15
  -1  -1  -6  686.77   20.02
  -1  -1  -5  250.38   11.06
   1   1   5  242.87    9.10
   1   1   4   80.77    4.96
  -1  -1  -4   51.40    4.39
   1   1   3  313.88   11.20
   1   1   3  302.11    9.02
  -1  -1  -3  304.36    9.32
  -1  -1  -2   43.12    3.25
   1   1   2   38.25    3.59
   1   1   2   41.69    3.16
  -1  -1  -2   45.44    3.04
   1   1   2   40.78    2.23
   1   1   1 1421.30   19.52
   1   1   1 1471.48   14.58
  -1  -1  -1 1419.94   18.89
   1   1   1 1484.14   17.29
  -1  -1  -1 1467.65   19.21
   1   1   0 9224.69   56.85
  -1  -1   0 9446.56   47.48
  -1  -1   0 9258.73   50.58
   1   1   0 9409.43   46.56
  -1  -1   1  480.49   11.19
  -1  -1   1  473.54   11.80
   1   1  -1  504.70   13.24
  -1  -1   2 1465.56   19.90
   1   1  -2 1504.59   23.46
  -1  -1   2 1446.42   15.29
   1   1  -2 1434.69   19.58
   1   1  -3 1381.07   21.62
   1   1  -3 1411.38   17.06
  -1  -1   3 1393.94   20.35
   1   1  -4  581.64   16.24
   1   1  -4  567.94   11.55
  -1  -1   4  628.70   17.38
  -1  -1   4  560.82   13.38
   1   1  -4  607.59   19.02
   1   1  -5 4416.11   62.17
  -1  -1   5 4429.80   38.99
  -1  -1   6  707.74   22.14
   1   1  -6  350.35   19.54
  -1  -1   7  653.04   23.22
   1   1  -7  335.10   21.30
  -1  -1   8   98.78    9.67
   1   1  -8  101.46   12.17
  -1  -1   9   85.29    9.63
   1   1  -9   95.93   11.84
   1   1 -10    3.97    2.18
   1   1 -10    2.66    1.75
  -1  -1  10    0.43    1.69
  -1  -1  10    1.38    1.14
   1   1 -10    4.96    3.65
  -1  -1  10    1.55    1.45
   1   1 -11    4.28    1.82
  -1  -1  11    4.31    2.02
  -1  -1  11    7.43    2.79
   1   1 -11    7.28    3.18
   1   1 -11    8.63    3.22
  -1  -1  11    6.86    2.50
   1   1 -12    2.07    1.72
  -1  -1  12    1.85    1.52
   1   1 -12   -0.24    0.98
  -1  -1  12    0.11    0.96
  -1  -1  13   97.32    8.72
  -1  -1  13   97.38    9.58
   1   1 -13  101.05    9.08
   1   1 -13   98.99    8.58
  -1  -1  14   54.43    6.05
   1   1 -14   54.66    5.58
   1   1 -14   41.95    4.58
  -1   0 -13   23.64    3.80
   1   0  13   22.46    4.08
  -1   0 -13   23.69    3.78
  -1   0 -12   10.42    3.22
   1   0  12    8.67    2.96
  -1   0 -12   14.23    3.68
   1   0  12    8.58    1.68
  -1   0 -11   27.06    5.54
   1   0  11   27.53    5.70
   1   0  11   28.88    3.54
  -1   0 -11   32.01    6.06
   1   0  11   28.87    5.14
  -1   0 -10   16.17    4.80
   1   0  10   19.61    4.62
   1   0  10   16.60    4.65
   1   0  10   17.63    2.90
  -1   0 -10   16.20    4.22
   1   0   9    0.64    0.26
  -1   0  -9   -1.08    0.74
   1   0   9    1.70    1.13
  -1   0  -9    1.39    1.44
   1   0   9    0.81    1.01
  -1   0  -9    2.71    2.05
   1   0   9    0.60    0.90
   1   0   8    9.45    2.79
  -1   0  -8   15.22    3.19
  -1   0  -7    4.98    1.71
  -1   0  -7    5.49    1.97
   1   0   7    6.06    2.14
   1   0   6 1786.27   33.33
  -1   0  -6 1800.18   28.90
  -1   0  -6 1716.09   27.68
   1   0   6 1787.15   25.20
  -1   0  -5  460.39   12.87
   1   0   5  480.66   12.27
  -1   0  -4 1615.12   20.49
   1   0   4 1539.26   20.44
  -1   0  -3  349.79    8.60
   1   0   3  345.27    6.85
   1   0   3  356.78    9.29
  -1   0  -3  345.77    8.17
  -1   0  -3  355.30    8.26
   1   0   2 1009.17   13.41
   1   0   2 1008.63   14.41
  -1   0  -2  969.82   11.96
  -1   0  -2  955.14   12.01
  -1   0  -2 1007.09   13.93
   1   0   2  999.76   17.38
   1   0   1 9194.51   44.26
  -1   0  -1 9627.24   41.25
  -1   0  -1 9495.99   20.40
  -1   0  -1 9778.53   39.75
   1   0   1 9999.00   38.25
  -1   0   0 2508.29   22.35
   1   0   0 2518.90   19.79
  -1   0   1   10.54    1.55
   1   0  -1   14.28    1.74
  -1   0   1   11.41    1.41
  -1   0   1   10.10    1.71
  -1   0   2  142.76    5.85
   1   0  -2  155.93    5.71
  -1   0   2  145.31    6.65
  -1   0   2  155.48    5.51
  -1   0   3  615.14   12.86
   1   0  -3  625.57   12.37
  -1   0   3  610.17   14.63
  -1   0   4   92.14    5.29
  -1   0   4   93.12    6.08
  -1   0   4   99.53    6.84
  -1   0   4   79.63    4.44
   1   0  -4   96.85    5.49
  -1   0   5   23.81    3.53
  -1   0   5   26.90    3.01
   1   0  -5   32.59    4.97
  -1   0   6 2113.07   27.57
  -1   0   6 2242.92   38.59
  -1   0   7  654.82   22.68
   1   0  -7  447.76   22.96
  -1   0   8  565.83   22.79
   1   0  -8  481.06   25.11
  -1   0   9  827.82   29.35
   1   0  -9  827.23   32.96
   1   0 -10  355.82   22.13
  -1   0  10  355.40   19.32
  -1   0  10  370.90   20.52
   1   0 -10  329.21   18.66
   1   0 -10  369.09   21.73
  -1   0  10  321.00   19.16
  -1   0  11  259.27   17.43
  -1   0  11  242.57   16.04
   1   0 -11  277.65   18.55
   1   0 -11  278.34   18.22
  -1   0  11  233.95   16.68
   1   0 -12  148.17   12.52
  -1   0  12  146.24   12.61
  -1   0  12  139.10   11.67
   1   0 -12  152.09   12.43
  -1   0  13   65.05    7.06
  -1   0  13   62.18    7.47
   1   0 -13   70.79    7.36
   1   0 -13   66.54    7.20
   1   0 -14   14.84    2.76
  -1   0  14   16.08    3.22
   1   0 -14   12.53    2.57
  -1   1 -14    9.61    1.96
  -1   1 -13   39.38    4.89
  -1   1 -13   40.56    5.00
   1  -1  13   37.92    3.23
  -1   1 -13   39.91    4.97
  -1   1 -12   26.32    4.70
  -1   1 -12   31.57    5.17
   1  -1  12   31.93    5.68
   1  -1  12   33.03    3.51
   1  -1  11  102.27   11.08
   1  -1  11   93.93    6.54
  -1   1 -11   82.54    9.28
  -1   1 -11   85.20    9.30
  -1   1 -10  178.05   14.44
  -1   1 -10  171.23   13.78
   1  -1  10  210.92   15.06
   1  -1  10  203.92   16.15
  -1   1 -10  189.13   12.55
   1  -1   9  268.11   18.14
  -1   1  -9  292.92   15.76
  -1   1  -9  248.18   16.95
   1  -1   9  243.99   14.52
   1  -1   9  292.39   17.78
  -1   1  -9  240.85   15.37
   1  -1   8  217.89   13.20
  -1   1  -8  174.32   11.20
  -1   1  -7  492.29   16.96
  -1   1  -7  495.70   15.07
   1  -1   6  365.31   15.21
  -1   1  -6  342.39   10.99
  -1   1  -6  334.10   12.43
  -1   1  -5   51.81    3.70
   1  -1   5   47.33    5.10
   1  -1   4   13.13    1.63
  -1   1  -4    9.22    1.33
   1  -1   3   13.15    2.03
   1  -1   3   15.51    2.38
   1  -1   3   14.52    1.57
  -1   1  -3   12.58    1.44
  -1   1  -3   12.82    1.43
   1  -1   3   11.98    2.16
   1  -1   2  739.63   15.39
   1  -1   2  704.29   14.29
  -1   1  -2  711.18   12.43
  -1   1  -2  731.03   10.82
   1  -1   2  763.14   10.21
  -1   1  -1   22.18    2.18
  -1   1  -1   39.93    3.28
   1  -1   1   72.16    5.41
   1  -1   1   49.41    3.26
  -1   1  -1   29.40    2.90
   1  -1   1   59.80    4.47
  -1   1   0 5548.96   33.07
  -1   1   0 5454.25   26.46
   1  -1  -1  506.66    9.51
  -1   1   1  519.36   10.30
  -1   1   1  506.03    7.14
  -1   1   2 3458.32   26.86
   1  -1  -2 3383.94   27.17
  -1   1   2 3420.45   16.00
   1  -1  -2 3443.57   28.88
   1  -1  -3 2896.80   29.06
  -1   1   3 2874.45   12.48
  -1   1   3 2885.19   24.86
   1  -1  -4 2182.79   29.06
  -1   1   4 2188.00   30.82
  -1   1   5 1857.64   31.77
   1  -1  -5 2010.84   32.88
   1  -1  -6  210.55   11.54
   1  -1  -6  245.73   13.61
  -1   1   6  248.15   12.83
   1  -1  -7  225.85   14.57
  -1   1   7  246.03   13.89
   1  -1  -7  260.70   13.93
  -1   1   8   30.59    5.31
   1  -1  -8   35.73    5.60
   1  -1  -9   -1.30    1.14
  -1   1   9   -0.90    1.52
   1  -1 -10   29.44    6.50
   1  -1 -10   26.38    5.97
   1  -1 -10   26.51    6.16
  -1   1  10   23.39    5.13
   1  -1 -10   23.01    5.05
  -1   1  10   21.72    4.86
   1  -1 -11  138.81   12.67
   1  -1 -11  147.42   13.16
  -1   1  11  124.17   12.08
  -1   1  11  137.44   12.18
  -1   1  11  119.13   11.88
   1  -1 -11  145.89   13.48
  -1   1  12   83.17    8.90
   1  -1 -12   86.49    9.01
  -1   1  12   86.34    9.56
   1  -1 -12   98.41   10.26
  -1   1  13  107.53    9.66
   1  -1 -13  114.44    9.50
  -1   1  14   66.07    6.47
   1  -1 -14   66.44    5.95
  -1   2 -13   15.66    3.10
  -1   2 -13   19.48    3.64
   1  -2  13   13.53    1.92
  -1   2 -13   16.21    2.96
  -1   2 -12    4.19    1.94
  -1   2 -12    1.62    0.98
   1  -2  12    4.08    1.34
  -1   2 -11    8.20    2.74
   1  -2  11    9.02    2.52
   1  -2  11    8.82    2.92
  -1   2 -11   12.41    3.78
   1  -2  11   14.77    2.67
   1  -2  10   39.08    4.48
  -1   2 -10   29.13    5.85
   1  -2  10   27.18    5.99
  -1   2 -10   28.82    5.81
  -1   2  -9    8.88    2.65
   1  -2   9   10.82    2.83
   1  -2   9    8.62    3.41
   1  -2   9   14.35    2.82
  -1   2  -9    7.57    2.93
   1  -2   9   12.21    3.97
   1  -2   8  228.91   13.85
  -1   2  -8  192.60   11.72
   1  -2   7  174.38   11.37
  -1   2  -7  181.89   10.25
   1  -2   6  481.00   13.60
  -1   2  -6  525.12   15.80
   1  -2   5 1183.98   26.25
  -1   2  -5 1145.90   15.67
   1  -2   4 1216.20   24.89
   1  -2   4 1113.64   17.99
  -1   2  -4 1173.38   14.62
  -1   2  -4 1144.25   14.95
   1  -2   4 1205.86   21.00
   1  -2   3 2450.21   23.42
   1  -2   3 2369.70   31.28
  -1   2  -3 2218.17   18.94
  -1   2  -3 2194.11   26.34
  -1   2  -3 2281.99   20.28
   1  -2   3 2293.22   28.21
   1  -2   2  947.99   17.85
   1  -2   2  962.63   18.22
  -1   2  -2  856.08   14.61
  -1   2  -2 1000.27   13.05
  -1   2  -2  938.85   14.40
   1  -2   2  979.91   13.33
  -1   2  -2  923.01   12.51
  -1   2  -2  875.62   15.05
   1  -2   1  594.13   13.95
  -1   2  -1  539.37   11.06
   1  -2   1  600.50   13.10
  -1   2  -1  565.01   11.24
  -1   2  -1  530.78    9.86
  -1   2  -1  568.07   10.43
   1  -2   1  578.07    9.42
   1  -2   0  399.84    7.61
   1  -2   0  417.54   10.17
   1  -2   0  415.65   11.68
  -1   2   0  406.37    8.31
  -1   2   0  397.07    9.51
  -1   2   0  406.49   10.06
   1  -2   0  431.34    9.20
  -1   2   0  425.96   10.29
  -1   2   0  389.53    8.96
   1  -2   0  410.72    9.44
  -1   2   1  424.73   11.05
   1  -2  -1  384.69    9.63
  -1   2   1  403.20    8.38
   1  -2  -1  397.32    9.64
   1  -2  -1  401.38    8.79
   1  -2  -2   31.99    3.27
  -1   2   2   28.65    3.07
   1  -2  -2   26.15    2.30
   1  -2  -2   25.79    2.72
  -1   2   2   27.59    2.95
   1  -2  -2   25.59    2.66
   1  -2  -3  354.64    8.97
   1  -2  -3  391.48   11.20
   1  -2  -3  343.24   10.67
   1  -2  -3  365.88   12.15
  -1   2   3  379.36   11.80
   1  -2  -4  303.25    8.91
   1  -2  -4  331.71   13.15
  -1   2   4  323.67   11.37
   1  -2  -4  302.18   11.30
  -1   2   4  317.66   12.17
   1  -2  -5  819.41   20.53
  -1   2   5  839.52   21.69
   1  -2  -6 1003.76   25.16
  -1   2   6  981.04   25.67
   1  -2  -7  768.36   23.97
   1  -2  -7  698.63   25.64
  -1   2   7  744.46   24.73
   1  -2  -8 1185.36   32.58
  -1   2   8 1211.04   34.03
  -1   2   9  125.34   11.61
   1  -2  -9  122.35   11.01
  -1   2  10  289.17   18.33
   1  -2 -10  400.14   23.56
  -1   2  10  323.35   18.98
   1  -2 -10  367.34   22.50
   1  -2 -10  291.44   17.58
   1  -2 -11  186.40   15.21
  -1   2  11  159.03   13.35
  -1   2  11  145.14   13.07
  -1   2  12   76.48    8.33
   1  -2 -12   82.77    9.19
  -1   2  12   74.79    8.62
   1  -2 -13    8.04    2.53
  -1   2  13   11.16    2.96
  -1   2  14    0.18    0.76
   1  -2 -14   -0.40    0.47
  -1   3 -13   26.50    4.27
   1  -3  13   22.56    3.31
   1  -3  13   19.53    2.26
  -1   3 -13   19.24    3.20
   1  -3  12   69.11    6.95
  -1   3 -12   70.62    7.29
   1  -3  12   73.44    5.21
   1  -3  11  128.31   10.99
   1  -3  11  140.95    7.95
  -1   3 -11  112.76   10.22
   1  -3  10   13.79    2.59
  -1   3 -10   15.27    4.16
   1  -3  10   14.97    4.01
   1  -3  10   14.70    4.45
  -1   3  -9  225.14   16.03
   1  -3   9  264.43   15.62
   1  -3   9  290.90   19.25
  -1   3  -9  261.76   17.27
   1  -3   8  157.11   11.77
  -1   3  -8  126.24    9.74
  -1   3  -8  149.89   12.53
  -1   3  -8  151.12   12.22
  -1   3  -7  187.09   10.69
   1  -3   7  221.01   10.53
   1  -3   7  207.17   12.92
   1  -3   6    3.75    1.17
  -1   3  -6    3.82    1.38
   1  -3   5   -0.01    0.44
  -1   3  -5    1.02    0.52
  -1   3  -5    0.20    0.88
   1  -3   4  161.90    8.29
   1  -3   4  177.68   10.02
  -1   3  -4  156.13    5.24
  -1   3  -4  152.48    5.41
  -1   3  -4  181.71    7.68
   1  -3   4  136.91    7.13
  -1   3  -3    1.56    0.48
  -1   3  -3    2.69    0.82
   1  -3   3    0.59    0.48
   1  -3   3    1.06    0.63
   1  -3   3    0.94    0.74
   1  -3   2  738.46   17.67
   1  -3   2  768.95   17.68
  -1   3  -2  768.86   14.49
   1  -3   2  747.37   13.33
  -1   3  -1 2548.44   26.16
   1  -3   1 2620.02   26.44
  -1   3   0 1305.07   20.22
   1  -3   0 1354.09   18.97
  -1   3   0 1219.98   17.24
   1  -3   0 1268.66   15.00
   1  -3   0 1342.60   19.80
  -1   3   0 1228.18   19.05
  -1   3   1 3239.24   34.38
  -1   3   1 3274.48   29.72
  -1   3   1 3192.49   33.60
  -1   3   1 3286.15   27.62
   1  -3  -1 3360.77   32.40
   1  -3  -1 3256.48   30.26
  -1   3   1 3403.16   31.04
  -1   3   1 3444.68   34.72
   1  -3  -1 3214.85   39.65
  -1   3   2 2211.82   28.31
   1  -3  -2 2205.40   27.84
  -1   3   2 2172.27   29.95
   1  -3  -3   95.26    6.80
  -1   3   3   95.13    6.45
  -1   3   3   91.17    6.52
   1  -3  -3   95.51    6.25
  -1   3   3   92.35    6.39
   1  -3  -3   92.62    6.96
   1  -3  -3   87.95    4.57
   1  -3  -4  750.69   22.13
   1  -3  -4  663.59   17.87
  -1   3   4  680.49   18.97
  -1   3   4  690.56   18.02
   1  -3  -4  774.09   19.49
  -1   3   5  440.84   15.07
   1  -3  -5  425.47   15.56
   1  -3  -5  413.46   18.45
  -1   3   5  440.08   16.58
   1  -3  -6  620.38   20.51
  -1   3   6  622.94   21.43
   1  -3  -7    9.55    2.83
  -1   3   7    6.97    2.67
   1  -3  -7    3.41    2.50
   1  -3  -8  112.90   11.43
   1  -3  -8   91.32    9.11
  -1   3   8  100.95   10.15
  -1   3   9  321.41   19.04
   1  -3  -9  376.49   23.62
   1  -3  -9  376.33   20.59
  -1   3   9  326.18   18.89
  -1   3   9  317.06   19.00
   1  -3  -9  367.40   22.17
  -1   3   9  367.94   19.96
   1  -3  -9  316.85   18.04
   1  -3 -10   -1.49    1.28
  -1   3  10    4.98    1.91
  -1   3  10   -0.11    1.72
  -1   3  10    1.94    1.09
   1  -3 -10    1.34    1.60
   1  -3 -10    2.64    1.69
  -1   3  11   77.74    9.45
  -1   3  11   88.32    9.70
   1  -3 -11   99.39   10.65
   1  -3 -11   99.13    9.69
   1  -3 -12  156.81   11.71
  -1   3  12  136.36   11.34
   1  -3 -13   86.52    7.22
  -1   3  13   86.84    7.86
  -1   3  14   88.40    6.31
   1  -3 -14   73.87    4.76
  -1   4 -13    2.89    1.78
   1  -4  13    1.73    1.20
  -1   4 -12    9.87    2.40
   1  -4  12    8.96    2.41
   1  -4  12    8.35    1.64
  -1   4 -11   10.14    3.01
   1  -4  11   11.91    3.45
   1  -4  11   11.99    2.19
   1  -4  10   67.21    8.77
   1  -4  10   74.37    5.81
  -1   4 -10   52.14    8.16
   1  -4   9   50.91    4.95
   1  -4   9   50.73    7.79
  -1   4  -9   41.53    6.96
  -1   4  -9   35.25    6.52
  -1   4  -8  468.52   23.65
  -1   4  -8  488.84   23.14
   1  -4   7  559.18   17.86
  -1   4  -7  546.07   22.64
  -1   4  -6  384.21   15.00
   1  -4   6  413.71   15.16
   1  -4   5  461.40   15.36
  -1   4  -5  600.94   16.85
  -1   4  -4    2.34    0.98
  -1   4  -4    1.80    0.59
   1  -4   4    1.16    0.44
   1  -4   3 1576.29   28.45
   1  -4   3 1559.64   23.85
   1  -4   2  528.43   16.76
   1  -4   2  529.35   12.59
  -1   4  -1  199.70    9.97
   1  -4   1  208.90    7.33
   1  -4   0   16.55    1.91
   1  -4   0   18.99    2.41
  -1   4   0   15.71    2.53
  -1   4   0   16.83    2.54
  -1   4   0   17.75    2.87
   1  -4   0   19.19    3.44
  -1   4   1   29.90    3.46
  -1   4   1   22.19    2.97
  -1   4   1   24.61    3.39
   1  -4  -1   24.72    4.14
   1  -4  -1   26.57    3.24
  -1   4   1   27.52    3.34
   1  -4  -2  187.27    9.03
  -1   4   2  172.50    8.90
  -1   4   2  172.01    9.36
   1  -4  -3 1595.24   28.00
  -1   4   3 1580.26   30.10
  -1   4   3 1566.93   28.98
  -1   4   4    6.43    1.94
  -1   4   4    6.27    1.97
   1  -4  -4    8.52    2.33
   1  -4  -4    5.47    1.57
   1  -4  -4    6.74    2.28
  -1   4   5  781.38   21.76
   1  -4  -5  777.65   28.05
   1  -4  -5  774.54   22.68
  -1   4   5  768.07   23.66
  -1   4   6  433.57   19.13
  -1   4   6  463.19   17.25
   1  -4  -6  440.63   18.42
  -1   4   7  541.69   22.72
   1  -4  -7  529.19   21.50
   1  -4  -8  760.63   27.38
   1  -4  -8  819.90   32.69
  -1   4   8  767.37   29.03
  -1   4   9    5.98    2.61
   1  -4  -9    3.75    2.59
  -1   4   9    1.10    1.10
  -1   4   9    1.68    1.10
   1  -4  -9    0.84    0.97
   1  -4  -9    0.90    1.11
  -1   4  10  138.44   12.84
  -1   4  10  143.58   12.55
  -1   4  10  156.68   13.13
   1  -4 -10  169.64   13.76
   1  -4 -10  163.21   13.31
   1  -4 -11   31.72    5.28
   1  -4 -11   25.28    4.73
  -1   4  11   26.04    5.00
  -1   4  12   14.29    3.47
   1  -4 -12   13.24    2.92
   1  -4 -12   12.66    2.82
  -1   4  13    0.33    0.50
   1  -4 -13    1.39    0.82
   1  -5  13   11.49    2.20
  -1   5 -13   12.82    2.36
  -1   5 -12   38.72    5.27
   1  -5  12   37.08    4.93
   1  -5  11   31.18    5.26
   1  -5  11   29.58    3.14
   1  -5  10    3.84    1.66
   1  -5  10    0.39    0.27
   1  -5   9  123.78   12.12
  -1   5  -9  104.41   11.82
  -1   5  -8   21.64    5.51
   1  -5   8   14.12    4.04
  -1   5  -8   12.76    3.93
   1  -5   8   20.83    5.26
   1  -5   8   20.11    3.58
   1  -5   8   26.96    3.92
  -1   5  -7   -0.83    1.86
  -1   5  -7    3.74    1.95
   1  -5   7    6.44    2.02
  -1   5  -7    3.68    2.00
   1  -5   6   71.02    6.64
  -1   5  -6   67.96    9.03
  -1   5  -6   77.25    8.95
  -1   5  -6   61.10    6.29
  -1   5  -5    6.70    2.22
  -1   5  -5    8.07    2.04
   1  -5   5    4.59    1.62
  -1   5  -5    5.45    1.70
   1  -5   4  254.04   12.31
   1  -5   4  226.48   10.89
  -1   5  -4  235.35   10.65
   1  -5   3  195.04   11.00
   1  -5   3  195.28    9.29
  -1   5  -3  221.73   10.28
   1  -5   2  951.71   18.87
  -1   5  -2  857.03   24.43
   1  -5   1  735.63   15.20
  -1   5  -1  718.27   21.34
  -1   5  -1  702.71   20.47
   1  -5   1  739.54   23.75
  -1   5   0  208.33   11.20
   1  -5   0  209.45    7.72
   1  -5   0  221.80   13.52
  -1   5   0  210.10   10.76
  -1   5   0  199.50   10.40
  -1   5   1  646.44   19.92
  -1   5   1  650.37   18.93
  -1   5   1  675.11   19.26
   1  -5  -1  678.36   25.10
  -1   5   1  664.29   19.14
  -1   5   2  704.56   20.55
  -1   5   2  685.11   21.08
   1  -5  -2  742.38   20.28
  -1   5   3  288.53   14.12
   1  -5  -3  309.26   13.64
  -1   5   3  302.68   14.22
  -1   5   4  208.30   12.03
  -1   5   4  200.62   12.37
   1  -5  -4  203.95   11.70
   1  -5  -4  201.80   14.17
   1  -5  -5   -0.23    1.22
  -1   5   5    0.55    0.73
  -1   5   5    0.09    0.42
   1  -5  -5   -1.80    2.30
  -1   5   6    2.40    1.36
   1  -5  -6    3.22    0.86
   1  -5  -6    4.91    2.15
  -1   5   7   62.35    8.07
   1  -5  -7   52.47    6.96
   1  -5  -7   52.01    8.41
  -1   5   8    5.32    2.37
   1  -5  -8    8.31    3.20
  -1   5   8   10.02    3.33
   1  -5  -8   10.96    3.34
  -1   5   8    6.07    2.49
   1  -5  -9  153.47   13.19
  -1   5   9  144.26   12.96
  -1   5   9  140.69   12.99
  -1   5   9  130.38   12.54
   1  -5 -10   43.65    6.69
  -1   5  10   43.71    6.75
  -1   5  10   40.01    6.34
  -1   5  11  101.63    9.40
   1  -5 -11  108.72    9.26
   1  -5 -11   81.07    6.89
  -1   5  12   56.74    6.16
   1  -5 -12   55.84    5.31
  -1   6 -12    4.97    1.66
   1  -6  12    4.23    2.19
  -1   6 -11    9.42    2.73
   1  -6  11    7.00    1.90
   1  -6  10   73.04    8.30
  -1   6  -9   16.65    4.90
   1  -6   9   21.03    4.42
   1  -6   9   20.76    4.87
   1  -6   8  184.30   15.37
   1  -6   8  167.43   13.32
  -1   6  -8  136.08   14.50
  -1   6  -8  169.39   15.24
  -1   6  -7   34.37    6.81
   1  -6   7   32.95    6.48
   1  -6   7   36.30    6.26
  -1   6  -7   32.75    7.20
   1  -6   7   35.61    5.02
   1  -6   7   52.06    5.57
   1  -6   6  222.96   12.42
  -1   6  -6  190.39   16.62
  -1   6  -6  226.23   16.73
  -1   6  -5  205.05   16.54
   1  -6   5  181.62   10.91
   1  -6   4   73.87    7.18
  -1   6  -4   94.91    7.63
  -1   6  -4  102.43   11.28
  -1   6  -4   81.87    9.16
   1  -6   4   85.34    7.13
   1  -6   3   95.32    8.37
   1  -6   3  100.41    7.31
  -1   6  -3  101.84    7.83
  -1   6  -3   91.18    9.22
  -1   6  -2    5.89    2.20
   1  -6   2    5.88    1.66
  -1   6  -2    4.59    2.09
  -1   6  -1   15.69    3.41
  -1   6  -1   23.20    4.40
  -1   6  -1    9.73    2.62
   1  -6   1   21.20    2.90
   1  -6   1   17.51    3.91
  -1   6   0   24.57    4.07
   1  -6   0   28.86    3.17
  -1   6   0   28.24    4.51
  -1   6   0   27.78    4.47
   1  -6   0   26.60    5.13
   1  -6  -1  252.67   17.23
  -1   6   1  248.45   13.50
  -1   6   1  260.24   13.61
  -1   6   1  236.54   13.65
   1  -6  -2   42.00    7.30
  -1   6   2   45.03    5.84
  -1   6   2   44.33    5.98
  -1   6   3  282.38   15.59
  -1   6   3  281.02   15.29
  -1   6   4  163.31   12.25
  -1   6   4  171.59   12.00
   1  -6  -4  155.72   11.16
   1  -6  -4  163.13   14.60
  -1   6   5  319.57   18.04
   1  -6  -5  294.26   15.98
  -1   6   5  324.45   16.57
  -1   6   6  326.40   18.88
   1  -6  -6  334.81   18.07
  -1   6   6  297.39   17.90
   1  -6  -6  322.80   19.52
   1  -6  -6  291.72   16.62
  -1   6   7   78.70    9.45
  -1   6   7   79.10    9.77
   1  -6  -7   81.64    9.01
   1  -6  -7   82.73    9.37
  -1   6   8  100.61   10.98
  -1   6   8   87.14   10.32
   1  -6  -8   90.77    9.88
  -1   6   8   80.39    9.66
  -1   6   9   12.06    3.63
   1  -6  -9    9.41    2.93
  -1   6   9   12.98    3.92
  -1   6  10   25.13    4.76
  -1   6  10   26.33    4.77
   1  -6 -10   27.22    4.69
  -1   6  11    1.56    1.24
   1  -6 -11    0.73    0.57
  -1   6  12    2.74    1.29
   1  -6 -12    1.83    0.69
   1  -7  11    0.28    1.25
   1  -7  10    4.59    2.16
   1  -7  10    5.14    1.96
   1  -7   9   -0.23    1.32
   1  -7   9   -0.45    0.99
   1  -7   8   -0.58    1.40
   1  -7   8   -0.62    1.82
   1  -7   7    1.83    1.49
   1  -7   7    1.48    2.39
   1  -7   7    0.41    0.64
  -1   7  -6   34.67    6.82
   1  -7   6   52.51    5.71
   1  -7   6   38.18    6.63
   1  -7   6   36.33    6.58
  -1   7  -6   30.17    6.79
   1  -7   6   35.00    5.01
   1  -7   5  141.91   10.03
   1  -7   5  164.16   13.69
   1  -7   5  153.44   14.04
   1  -7   5  129.70   11.00
   1  -7   4  105.63    8.41
  -1   7  -4   88.35   10.27
   1  -7   3   56.62    6.96
   1  -7   3   54.74    5.70
  -1   7  -3   60.38    8.11
  -1   7  -3   50.45    7.24
  -1   7  -3   46.65    6.76
   1  -7   2  113.82   10.38
   1  -7   2  121.72    8.00
  -1   7  -2  104.54   10.45
  -1   7  -2   97.65    9.63
  -1   7  -2   92.39    9.33
  -1   7  -1   92.28    8.84
   1  -7   1  102.94    6.92
  -1   7  -1   97.13    9.43
  -1   7  -1   90.42    9.08
  -1   7   0  939.61   28.86
  -1   7   0  856.06   29.08
  -1   7   0  876.97   27.95
  -1   7   0  906.82   28.62
  -1   7   1   14.95    3.62
  -1   7   1   12.53    3.53
   1  -7  -1   19.70    5.18
  -1   7   2    3.29    1.62
  -1   7   2    3.29    1.82
   1  -7  -2    2.54    1.51
  -1   7   3    1.40    1.22
  -1   7   3    2.25    1.58
  -1   7   4   12.56    3.82
   1  -7  -4   12.63    4.48
   1  -7  -4   13.20    3.26
   1  -7  -4   10.91    3.94
  -1   7   4   16.35    3.96
  -1   7   5    6.11    2.27
  -1   7   5    5.95    2.56
  -1   7   5    6.38    2.53
   1  -7  -5    6.19    3.18
   1  -7  -5    4.70    2.02
  -1   7   6    2.52    1.50
  -1   7   6    2.43    1.50
   1  -7  -6    3.31    1.67
   1  -7  -6    1.46    1.39
  -1   7   7   97.85   10.62
  -1   7   7  102.36   11.00
   1  -7  -7   88.69    9.48
   1  -7  -7   98.64    9.78
  -1   7   8   29.58    5.65
  -1   7   8   25.19    5.35
   1  -7  -8   26.29    5.03
  -1   7   9   39.37    5.99
  -1   7   9   30.96    5.50
   1  -7  -9   36.12    5.33
   1  -7 -10   37.36    4.71
  -1   7  10   37.42    4.94
  -1   7  11    7.17    1.75
   1  -7 -11    8.04    1.76
   1  -8  10    5.24    1.58
   1  -8  10    4.91    1.54
   1  -8   9   28.80    4.59
   1  -8   9   23.51    3.94
   1  -8   8   21.68    4.13
   1  -8   8   20.76    4.19
   1  -8   7   12.89    3.53
   1  -8   7   19.94    4.45
   1  -8   6  108.61   10.60
   1  -8   6   99.74   10.72
   1  -8   5    2.63    1.74
   1  -8   5    1.97    0.99
   1  -8   5    5.32    2.02
  -1   8  -5    0.94    1.03
   1  -8   4    7.79    2.66
   1  -8   4   12.71    4.30
  -1   8  -4    6.15    2.85
  -1   8  -4    5.16    2.46
   1  -8   3    7.28    2.81
   1  -8   3    7.92    2.72
   1  -8   3    9.85    3.60
   1  -8   3    9.54    2.47
  -1   8  -3    8.79    3.31
  -1   8  -3    6.96    2.90
  -1   8  -2    0.61    1.08
   1  -8   2    3.03    1.67
  -1   8  -2    0.12    0.69
  -1   8  -2   -0.45    0.83
   1  -8   2   -0.92    2.11
  -1   8  -1    3.73    1.67
  -1   8  -1    1.35    1.05
  -1   8  -1    5.60    2.74
  -1   8  -1    4.53    2.58
   1  -8   1    4.04    2.22
   1  -8   0   30.83    5.39
  -1   8   0   33.18    5.96
  -1   8   0   32.26    6.04
   1  -8   0   40.51    7.66
   1  -8   0   28.81    4.24
  -1   8   1  252.95   16.40
   1  -8  -1  246.58   16.50
   1  -8  -1  283.82   21.22
  -1   8   1  252.51   17.02
   1  -8  -1  258.41   13.03
   1  -8  -1  309.98   21.56
  -1   8   2   25.17    5.33
  -1   8   2   28.23    5.59
   1  -8  -2   26.64    5.81
   1  -8  -2   25.10    4.14
   1  -8  -2   30.21    6.70
   1  -8  -2   27.63    6.59
   1  -8  -3   29.43    4.76
  -1   8   3   31.61    5.97
  -1   8   3   28.93    5.49
  -1   8   3   32.61    6.06
  -1   8   3   32.20    5.92
   1  -8  -3   34.80    6.99
   1  -8  -3   30.98    6.23
   1  -8  -3   28.21    6.86
  -1   8   4   92.81   10.02
   1  -8  -4   74.25   10.24
  -1   8   4   81.41    9.76
  -1   8   4   92.90    9.72
   1  -8  -4   84.64    8.18
  -1   8   5   16.51    4.36
  -1   8   5   19.03    4.51
   1  -8  -5   20.98    5.15
   1  -8  -5   21.61    4.23
   1  -8  -6   93.75   10.34
   1  -8  -6   97.77    9.01
  -1   8   6  108.74   11.16
  -1   8   6   97.01   10.05
  -1   8   7    3.39    2.13
  -1   8   7    1.98    1.33
   1  -8  -7    2.23    1.71
   1  -8  -7    0.90    1.07
  -1   8   8   10.19    2.89
  -1   8   8    6.92    2.51
   1  -8  -8    7.22    2.19
  -1   8   9    9.38    2.46
  -1   8   9    5.75    2.02
  -1   8   9    4.28    1.69
   1  -8  -9    5.51    1.76
   1  -8 -10   -0.08    0.18
   1  -9   9    3.69    1.29
   1  -9   8    4.04    1.49
   1  -9   7    7.11    2.33
   1  -9   6    0.26    0.80
   1  -9   5   59.16    8.04
   1  -9   5   49.85    6.34
   1  -9   4   13.50    3.53
   1  -9   4   16.31    4.19
   1  -9   3   48.13    7.70
   1  -9   3   41.07    6.56
  -1   9  -2   37.67    6.64
   1  -9   2   38.15    6.68
   1  -9   1   -1.71    1.87
  -1   9  -1    1.46    1.14
  -1   9   0   97.51   10.47
   1  -9   0   87.58    8.82
   1  -9   0  104.91   12.16
  -1   9   1   11.08    3.60
   1  -9  -1    9.61    3.63
   1  -9  -1    5.80    2.01
   1  -9  -1    8.96    2.43
   1  -9  -2   17.09    3.28
  -1   9   2   19.55    4.59
   1  -9  -2   17.87    4.36
   1  -9  -2   22.29    5.46
  -1   9   3   -0.63    0.94
   1  -9  -3   -0.46    0.58
   1  -9  -3    1.00    1.39
   1  -9  -3   -1.32    1.64
   1  -9  -4    0.52    0.96
   1  -9  -4   -0.33    0.22
  -1   9   5    4.45    2.00
   1  -9  -5    4.02    2.06
   1  -9  -5    4.06    1.67
  -1   9   6   20.97    4.39
   1  -9  -6   14.90    2.96
  -1   9   7   11.10    2.91
  -1   9   7   11.26    2.91
   1  -9  -7    6.03    1.77
  -1   9   8    7.48    2.10
  -1   9   8    6.23    2.01
   1  -9  -8    4.77    1.38
  -1   9   8    7.90    1.96
   1 -10   8    0.13    0.55
   1 -10   7    1.12    0.85
   1 -10   6    3.52    1.53
   1 -10   5    0.57    0.88
   1 -10   5    0.72    0.52
   1 -10   4    0.86    1.23
   1 -10   4   -1.06    1.39
   1 -10   3    5.12    2.04
   1 -10   2    0.83    0.97
   1 -10   1   24.03    5.08
   1 -10   0    3.41    1.85
   1 -10  -1   18.60    4.55
   1 -10  -2   15.56    4.02
   1 -10  -3    9.22    2.15
   1 -10  -3    9.98    2.98
   1 -10  -4    3.17    1.15
  -1  10   5    2.60    1.43
   1 -10  -5    2.60    1.08
  -1  10   6   13.54    2.80
  -1  10   6   10.39    2.57
   1 -10  -6    7.22    1.53
   1 -11   4   -0.56    0.50
   1 -11   3    0.32    0.19
   1 -11   2   11.50    2.66
   1 -11   1    1.90    1.31
   1 -11   0    0.26    0.34
   1 -11  -1   -0.92    1.15
   1 -11  -2    2.74    1.18
  -1  11   3   13.94    2.98
  -2  -9  -1    0.17    0.58
   2   9   0    1.81    0.85
  -2  -9   0    1.07    0.90
   2   9   0    1.94    1.08
   2   9  -1    1.51    0.92
  -2  -9   1    0.22    0.62
   2   9  -1    2.16    1.11
   2   9  -2   -0.99    1.11
  -2  -9   2    0.49    0.47
   2   9  -2    1.55    1.23
  -2  -9   3   -0.33    0.57
  -2  -9   3    0.63    0.85
   2   9  -3   -0.25    0.71
  -2  -9   4    0.59    0.42
   2   9  -4    2.30    1.35
  -2  -9   5   11.76    2.52
   2   9  -5   15.92    3.10
  -2  -9   6    1.58    0.88
   2   8   4    0.48    0.86
  -2  -8  -4    0.25    0.41
  -2  -8  -3    1.30    0.76
   2   8   3    1.92    1.38
  -2  -8  -3    0.93    0.43
   2   8   3    0.48    1.05
   2   8   2    7.99    3.34
  -2  -8  -2    7.32    2.28
  -2  -8  -2    8.11    2.65
   2   8   2    8.61    2.71
   2   8   1   66.91    8.11
  -2  -8  -1   51.36    6.03
  -2  -8  -1   62.90    7.60
   2   8   1   58.63    7.21
  -2  -8   0   -0.03    0.34
   2   8   0    0.91    1.16
  -2  -8   0   -0.22    0.81
   2   8  -1    2.88    1.59
   2   8  -1    4.23    1.47
  -2  -8   1    5.06    2.22
   2   8  -2    4.91    2.30
  -2  -8   2    3.98    2.10
  -2  -8   2    2.48    1.89
   2   8  -2    5.43    1.80
   2   8  -3   15.51    4.15
  -2  -8   3   12.00    3.20
  -2  -8   3    8.83    2.75
   2   8  -3   10.75    3.41
  -2  -8   4   23.79    4.71
  -2  -8   4   13.91    3.22
   2   8  -4   21.05    4.56
   2   8  -5   -0.42    0.86
   2   8  -5   -0.52    0.87
   2   8  -6    1.23    1.28
  -2  -8   6    0.99    0.91
   2   8  -6    1.46    1.42
   2   8  -7    0.07    0.40
  -2  -8   7   -0.11    0.37
   2   8  -7   -0.15    0.52
   2   8  -8   -2.06    1.12
  -2  -8   8   -0.48    0.32
   2   8  -8   -1.12    0.72
   2   7   6    8.47    2.45
  -2  -7  -6    3.00    1.20
   2   7   5    2.74    1.53
  -2  -7  -5    1.49    0.77
   2   7   5    1.09    1.00
   2   7   4    4.55    1.64
  -2  -7  -4    8.89    2.92
   2   7   4    4.42    2.10
  -2  -7  -4    9.57    2.93
   2   7   3    2.74    1.90
  -2  -7  -3    2.14    1.65
  -2  -7  -3    3.17    1.83
   2   7   3    1.94    1.48
   2   7   2   26.21    5.54
  -2  -7  -2   19.60    4.55
  -2  -7  -2   24.49    5.46
   2   7   2   21.47    4.81
  -2  -7  -1    2.54    1.68
   2   7   1    3.16    2.55
  -2  -7  -1    2.57    1.93
   2   7   1    1.89    0.60
   2   7   0    5.69    2.66
  -2  -7   0    3.67    2.36
  -2  -7   0    3.51    2.27
   2   7   0    1.63    1.47
   2   7  -1   -0.53    1.39
  -2  -7   1    4.21    2.92
   2   7  -1    1.73    2.24
   2   7  -2   10.26    3.53
  -2  -7   2   14.10    4.29
   2   7  -2   12.10    3.81
   2   7  -3   19.85    4.85
  -2  -7   3   17.02    4.48
   2   7  -3   17.38    4.73
  -2  -7   4   29.60    5.43
   2   7  -4   23.58    5.31
  -2  -7   4   34.07    6.36
   2   7  -4   30.10    6.14
   2   7  -5   48.13    7.58
  -2  -7   5   51.14    7.47
   2   7  -5   47.72    7.82
   2   7  -6    2.80    1.19
   2   7  -6    5.46    2.59
  -2  -7   6    9.06    3.09
   2   7  -6    4.15    2.60
  -2  -7   7   51.09    7.13
   2   7  -7   53.35    7.61
  -2  -7   7   60.45    7.14
   2   7  -7   53.59    7.72
  -2  -7   8    1.84    1.11
   2   7  -8    1.67    1.40
  -2  -7   8    2.91    1.45
   2   7  -8    3.70    2.16
  -2  -7   9   21.76    4.00
   2   7  -9   23.39    4.32
  -2  -7   9   24.20    3.66
   2   7  -9   21.14    3.74
   2   7 -10    1.56    1.06
   2   6   8   -0.08    0.90
   2   6   7    0.23    0.82
  -2  -6  -7    0.56    0.62
  -2  -6  -7   -0.31    0.75
   2   6   6    4.91    2.20
  -2  -6  -6    3.91    1.95
   2   6   6    4.27    1.74
  -2  -6  -6    1.50    0.68
   2   6   5    6.54    2.68
  -2  -6  -5    9.23    2.83
   2   6   5    5.59    2.32
  -2  -6  -5    5.59    1.86
   2   6   4   20.49    4.97
  -2  -6  -4   22.91    5.10
  -2  -6  -4   33.30    6.54
   2   6   4   20.10    4.67
   2   6   3   59.40    8.66
   2   6   3   51.71    7.80
  -2  -6  -3   68.45    8.88
   2   6   2   31.63    6.08
   2   6   2   36.91    6.87
  -2  -6  -2   38.71    6.95
   2   6   1   41.79    7.26
  -2  -6  -1   49.30    7.92
   2   6   1   40.48    6.98
   2   6   0   47.03    7.20
   2   6   0   55.26    8.31
  -2  -6   0   57.31    8.19
  -2  -6   0   36.61    6.30
   2   6   0   58.11    8.35
   2   6  -1   95.24   10.32
   2   6  -1  102.51   11.32
   2   6  -1  107.74   11.92
  -2  -6   1  102.32   10.39
  -2  -6   1   74.95    9.29
   2   6  -2    6.12    2.65
  -2  -6   2    4.56    2.68
   2   6  -2    8.03    3.80
  -2  -6   2    5.63    2.96
   2   6  -2    8.39    4.41
  -2  -6   2    2.97    2.14
   2   6  -3   28.99    5.75
   2   6  -3   31.96    6.62
   2   6  -3   26.35    5.77
  -2  -6   3   25.52    5.22
  -2  -6   3   42.88    7.30
   2   6  -4    1.44    1.58
   2   6  -4    1.09    1.07
  -2  -6   4    2.67    2.09
   2   6  -4    4.53    2.61
  -2  -6   4   -0.13    1.30
   2   6  -5    0.77    1.17
  -2  -6   5    0.87    1.10
   2   6  -5   -0.23    1.19
  -2  -6   5    1.08    0.57
  -2  -6   6    2.12    1.65
   2   6  -6    0.62    0.51
  -2  -6   6   -0.31    1.51
  -2  -6   6    1.46    0.72
  -2  -6   7   59.52    8.33
   2   6  -7   61.05    9.08
  -2  -6   7   74.78    8.95
  -2  -6   7   52.25    7.67
  -2  -6   8   16.20    4.47
   2   6  -8   12.86    4.20
  -2  -6   8   14.91    3.62
  -2  -6   8    6.67    2.66
  -2  -6   9    6.71    2.28
   2   6  -9    9.88    3.33
  -2  -6   9    9.89    2.73
  -2  -6  10   19.30    4.12
   2   6 -10   16.97    3.69
  -2  -6  11   25.76    4.16
   2   6 -11   30.51    4.18
   2   5   9   37.05    4.71
  -2  -5  -9   32.62    3.61
   2   5   8   13.91    3.38
   2   5   8   18.80    3.59
  -2  -5  -8   14.27    2.95
   2   5   7   20.67    4.28
   2   5   7   17.30    4.16
  -2  -5  -7   19.62    3.97
  -2  -5  -7   20.06    4.07
  -2  -5  -6   15.07    3.74
   2   5   6   17.75    4.58
   2   5   6   13.92    3.87
  -2  -5  -6   15.65    3.83
   2   5   5    3.00    2.30
  -2  -5  -5    4.51    2.18
   2   5   5    1.61    1.09
  -2  -5  -5    4.38    2.45
   2   5   4   55.16    8.25
  -2  -5  -4   74.59    9.75
   2   5   4   58.75    8.35
  -2  -5  -4   60.83    7.90
   2   5   3    3.06    1.94
   2   5   3    2.26    1.65
   2   5   3    1.90    1.79
   2   5   2    5.32    2.47
   2   5   2    1.07    1.39
  -2  -5  -2    0.86    0.43
  -2  -5  -2    5.05    2.83
   2   5   2    4.32    2.05
   2   5   1    6.82    2.69
  -2  -5  -1    7.83    3.08
   2   5   1    7.39    3.13
  -2  -5  -1    5.99    2.66
  -2  -5  -1   11.76    4.49
   2   5   1   10.29    3.45
   2   5   0   14.60    3.90
  -2  -5   0   12.29    3.54
  -2  -5   0   15.14    4.11
  -2  -5   0   21.68    5.08
   2   5   0    9.39    3.29
  -2  -5   1  184.82   13.86
   2   5  -1  199.90   14.14
   2   5  -1  198.71   14.69
   2   5  -1  211.44   15.47
  -2  -5   2   75.46    8.85
   2   5  -2   77.58    8.89
  -2  -5   3   43.61    6.83
   2   5  -3   50.06    7.38
   2   5  -3   42.71    7.57
  -2  -5   3   44.59    6.91
   2   5  -3   47.96    7.60
  -2  -5   4  108.88   10.36
   2   5  -4  131.56   12.60
   2   5  -4  116.70   11.93
  -2  -5   4  107.80   10.55
  -2  -5   4  120.15   11.91
  -2  -5   5  167.76   12.62
   2   5  -5  196.64   15.87
   2   5  -5  192.15   16.28
  -2  -5   5  176.95   13.10
  -2  -5   5  191.57   15.15
  -2  -5   6  182.43   14.93
   2   5  -6  175.80   14.14
   2   5  -6  158.98   14.97
  -2  -5   6  154.94   11.80
   2   5  -6  186.65   14.28
  -2  -5   6  175.22   14.48
  -2  -5   7  109.03   11.57
   2   5  -7  111.96   11.48
   2   5  -7  110.63   11.54
  -2  -5   7  111.17   11.34
   2   5  -8   27.15    5.73
  -2  -5   8   25.90    5.63
   2   5  -8   23.49    5.40
  -2  -5   8   30.91    5.72
  -2  -5   8   20.69    4.88
  -2  -5   9   39.11    6.87
   2   5  -9   37.07    6.53
  -2  -5   9   39.14    6.18
  -2  -5  10    7.42    3.05
   2   5 -10    7.31    2.50
  -2  -5  10    3.32    1.69
  -2  -5  11    1.22    0.90
   2   5 -11   -0.77    1.32
   2   5 -11    1.13    1.44
  -2  -5  12    2.09    1.12
   2   5 -12    0.92    0.68
   2   4  10   19.20    3.24
  -2  -4 -10   19.52    2.78
   2   4   9    1.31    0.67
   2   4   9    2.07    1.10
  -2  -4  -9    2.38    1.54
   2   4   8   12.62    3.61
   2   4   8   11.10    3.32
  -2  -4  -8   14.45    3.62
   2   4   7   39.50    6.83
   2   4   7   32.93    6.03
  -2  -4  -7   44.42    6.71
  -2  -4  -7   38.65    5.88
   2   4   6   51.30    7.93
  -2  -4  -6   63.94    8.26
   2   4   6   49.44    7.63
   2   4   5   30.83    6.13
  -2  -4  -5   46.12    7.58
   2   4   5   28.90    5.87
  -2  -4  -5   27.56    5.21
   2   4   4   24.62    5.42
  -2  -4  -4   40.63    7.07
   2   4   4   22.78    4.15
  -2  -4  -4   16.98    3.85
   2   4   4   25.94    5.49
  -2  -4  -4   26.98    5.77
   2   4   3  292.66   17.32
   2   4   3  304.54   18.08
   2   4   3  257.00   13.73
   2   4   2  122.48   10.79
  -2  -4  -2  100.36    9.56
  -2  -4  -1  188.39   12.90
   2   4   1  194.69   13.21
  -2  -4   0  148.69   11.31
   2   4   0  157.65   11.64
  -2  -4   1  105.24    9.46
   2   4  -1   99.15    9.21
   2   4  -2    5.82    2.72
  -2  -4   2    5.47    2.54
   2   4  -3   17.15    4.07
   2   4  -3   10.52    2.72
  -2  -4   3   15.17    3.63
   2   4  -4    3.38    1.89
   2   4  -4    7.09    2.99
  -2  -4   4    3.81    1.81
  -2  -4   5   43.82    6.09
   2   4  -5   37.30    6.12
  -2  -4   6   49.91    6.47
   2   4  -6   52.92    7.91
   2   4  -6   54.67    7.83
  -2  -4   6   51.68    7.86
   2   4  -7  265.68   19.41
  -2  -4   7  317.79   19.79
   2   4  -7  318.55   20.24
   2   4  -7  316.19   20.11
  -2  -4   7  312.05   18.95
   2   4  -8   45.50    7.82
  -2  -4   8   64.92    9.09
   2   4  -8   61.75    8.37
   2   4  -8   59.52    8.82
  -2  -4   8   60.51    8.27
   2   4  -8   60.11    8.97
  -2  -4   9   48.66    7.85
   2   4  -9   50.84    7.65
   2   4  -9   49.02    7.95
   2   4  -9   43.51    7.67
  -2  -4   9   46.55    7.00
  -2  -4  10  133.94   12.49
   2   4 -10  134.02   11.80
   2   4 -10  136.69   12.60
  -2  -4  10  113.57   10.13
  -2  -4  11   73.67    8.67
   2   4 -11   74.70    7.94
   2   4 -11   78.84    8.40
  -2  -4  12   34.35    5.22
   2   4 -12   40.32    5.09
   2   4 -12   37.03    4.86
  -2  -4  13   12.24    2.66
   2   4 -13    7.86    1.71
   2   3  10    7.47    2.44
   2   3  10    4.65    1.43
  -2  -3 -10    7.23    2.02
   2   3   9   90.24    9.06
   2   3   9   72.98    8.38
  -2  -3  -9   88.99    8.45
   2   3   8   37.07    6.48
  -2  -3  -8   30.80    5.37
   2   3   8   38.29    6.56
   2   3   7   56.95    8.19
  -2  -3  -7   67.09    8.17
   2   3   7   59.64    8.43
   2   3   6   16.51    4.49
  -2  -3  -6   14.92    4.13
  -2  -3  -6   15.54    4.74
  -2  -3  -6   10.23    3.10
  -2  -3  -6   17.46    4.71
   2   3   6    9.93    3.43
  -2  -3  -5   24.11    5.30
   2   3   5   15.95    4.39
   2   3   5   15.31    3.26
  -2  -3  -5   10.32    3.19
  -2  -3  -5   13.77    4.37
   2   3   5   14.64    3.60
   2   3   4   16.43    3.46
  -2  -3  -4   12.35    3.33
   2   3   3   17.46    3.88
   2   3   3   18.66    3.58
  -2  -3  -3   18.81    3.58
  -2  -3  -2   24.94    4.21
   2   3   2   29.08    4.92
   2   3   2   16.52    3.23
  -2  -3  -2   22.69    3.75
  -2  -3  -1  240.01   12.99
   2   3   1  233.58   13.30
  -2  -3   0   80.79    7.55
   2   3   0   74.34    7.50
   2   3  -1  662.98   21.28
  -2  -3   1  677.11   21.90
   2   3  -1  627.99   19.47
   2   3  -2  317.86   15.00
  -2  -3   2  307.66   15.23
   2   3  -2  313.47   14.28
   2   3  -3  614.61   22.14
  -2  -3   3  580.03   20.69
   2   3  -3  607.11   20.58
  -2  -3   4  277.78   14.41
   2   3  -4  285.81   15.39
  -2  -3   5  275.84   14.49
   2   3  -5  326.32   17.72
   2   3  -6   99.46   10.87
  -2  -3   6   96.78    9.87
  -2  -3   6  105.06    8.95
   2   3  -6  117.40   11.70
   2   3  -7   54.12    8.26
  -2  -3   7   62.36    8.46
   2   3  -7   61.35    9.20
   2   3  -8   12.42    4.17
  -2  -3   8   13.85    4.18
  -2  -3   8   13.77    4.22
   2   3  -8   14.20    4.58
   2   3  -8   10.31    4.02
  -2  -3   8   12.62    3.55
  -2  -3   9   -1.40    1.55
   2   3  -9   -0.88    1.20
  -2  -3   9    0.06    0.91
  -2  -3   9    1.10    1.10
   2   3  -9    1.47    1.22
   2   3  -9    2.46    2.32
   2   3 -10   18.52    5.10
  -2  -3  10   10.85    3.79
  -2  -3  10   16.32    4.45
   2   3 -10   17.58    4.65
  -2  -3  10   13.12    3.59
   2   3 -10   18.47    4.94
  -2  -3  10   18.22    4.40
  -2  -3  11   29.08    5.59
  -2  -3  11   29.62    5.25
   2   3 -11   32.93    5.91
   2   3 -11   31.10    5.78
  -2  -3  12   38.84    6.02
   2   3 -12   40.24    5.75
   2   3 -12   33.26    4.98
  -2  -3  13   31.19    4.60
   2   3 -13   29.32    4.02
   2   3 -13   26.69    3.45
   2   2  11    0.56    0.50
  -2  -2 -11    0.33    0.36
  -2  -2 -10    2.28    1.72
   2   2  10    0.27    0.70
   2   2  10    0.26    0.82
  -2  -2 -10    3.16    1.99
  -2  -2  -9    7.31    2.51
   2   2   9   11.89    3.56
  -2  -2  -9   12.56    3.47
   2   2   9   11.31    3.47
  -2  -2  -8   16.10    4.23
   2   2   8   16.26    4.40
  -2  -2  -8   11.34    3.77
  -2  -2  -8   18.11    4.43
   2   2   8   12.68    3.99
  -2  -2  -7   65.46    9.02
   2   2   7   75.95    9.51
  -2  -2  -7   82.65    9.41
  -2  -2  -7   64.19    7.71
   2   2   7   66.36    8.87
  -2  -2  -7   85.65   10.10
   2   2   6  123.48   11.24
  -2  -2  -6  138.47   10.23
   2   2   6  123.65   11.92
  -2  -2  -6  169.45   13.28
  -2  -2  -6  119.12   10.15
   2   2   6  131.52   12.25
  -2  -2  -6  150.44   13.34
   2   2   5  266.47   13.38
  -2  -2  -5  233.94   13.46
   2   2   4  234.58   12.38
  -2  -2  -4  204.49   11.73
   2   2   3  417.99   18.22
  -2  -2  -3  401.49   15.16
   2   2   3  418.95   16.22
  -2  -2  -2  135.44    8.76
   2   2   2  129.67    9.50
  -2  -2  -2  125.85    7.72
   2   2   2  120.85    8.21
   2   2   2  127.41    8.68
   2   2   1  905.92   23.90
  -2  -2  -1  913.96   22.86
  -2  -2  -1  904.86   18.56
   2   2   1  932.18   22.61
   2   2   0   13.52    2.90
  -2  -2   0   14.53    3.03
  -2  -2   0   19.42    2.47
   2   2   0   15.55    2.92
   2   2  -1   81.29    6.76
  -2  -2   1   85.20    7.25
   2   2  -1   83.48    6.71
   2   2  -2    0.46    0.29
   2   2  -2    2.43    1.60
   2   2  -3  123.16    8.89
  -2  -2   3  114.97    8.50
   2   2  -3  134.00    9.21
   2   2  -4    5.74    2.14
  -2  -2   4    8.44    2.43
  -2  -2   5  768.20   22.67
   2   2  -5  884.91   27.96
  -2  -2   6  209.82   14.00
  -2  -2   6  223.94   12.41
  -2  -2   7  366.29   19.70
  -2  -2   7  369.43   16.04
   2   2  -7  333.26   20.83
  -2  -2   8  277.18   17.97
   2   2  -8  167.11   15.59
  -2  -2   9  276.82   18.60
  -2  -2   9  319.82   19.84
   2   2  -9  267.13   19.82
   2   2  -9  228.62   17.83
  -2  -2   9  292.43   17.42
   2   2  -9  242.38   19.29
  -2  -2  10  118.93   12.38
  -2  -2  10  144.21   13.36
   2   2 -10  163.99   15.30
   2   2 -10  148.61   13.83
  -2  -2  10  127.03   10.92
   2   2 -10  132.95   13.73
  -2  -2  11   55.34    7.90
  -2  -2  11   47.10    6.90
   2   2 -11   50.25    7.99
   2   2 -11   50.06    7.34
  -2  -2  12   89.36    9.35
  -2  -2  12   84.24    8.41
   2   2 -12   99.23    9.78
   2   2 -12   93.68    8.50
  -2  -2  13    2.51    1.22
   2   2 -13    5.12    1.91
  -2  -2  13    3.44    1.16
  -2  -2  14    1.82    1.04
   2   2 -14    1.25    0.73
  -2  -1 -11   40.23    5.37
   2   1  11   33.65    4.86
   2   1  11   37.70    4.91
  -2  -1 -11   28.34    3.76
  -2  -1 -11   28.97    4.32
  -2  -1 -10   38.70    6.11
   2   1  10   39.11    6.05
  -2  -1 -10   41.25    5.87
   2   1  10   40.75    6.21
  -2  -1 -10   42.38    6.23
  -2  -1  -9   37.38    6.78
   2   1   9   33.14    5.99
  -2  -1  -9   37.37    6.22
   2   1   9   36.95    6.34
  -2  -1  -9   46.25    6.78
  -2  -1  -8   39.91    7.12
  -2  -1  -8   49.70    7.56
   2   1   8   34.49    6.37
  -2  -1  -8   54.25    7.67
  -2  -1  -8   40.74    6.05
   2   1   8   44.39    7.28
   2   1   7  180.10   14.01
  -2  -1  -7  176.69   14.19
   2   1   7  121.89   11.22
   2   1   7  125.65   12.18
  -2  -1  -7  160.16   10.33
  -2  -1  -7  191.79   14.13
  -2  -1  -7  128.43   10.45
   2   1   7  136.57   12.65
   2   1   6   10.71    3.38
  -2  -1  -6   10.43    2.70
   2   1   5    0.96    0.40
  -2  -1  -5    1.62    0.74
  -2  -1  -4   54.77    5.40
   2   1   4   66.27    6.94
   2   1   3   46.38    5.41
  -2  -1  -3   51.66    4.67
   2   1   2    4.96    1.80
  -2  -1  -2    7.83    1.63
   2   1   2    3.93    1.52
   2   1   1 2079.96   33.37
  -2  -1  -1 2175.14   31.90
  -2  -1  -1 2108.79   23.04
  -2  -1  -1 2141.96   24.66
   2   1   1 2085.56   32.81
   2   1   0 1162.41   23.70
  -2  -1   0 1212.24   24.36
  -2  -1   0 1243.23   17.62
   2   1   0 1192.58   24.11
   2   1  -1  497.98   15.27
  -2  -1   1  535.40   16.30
  -2  -1   1  536.52   10.91
   2   1  -1  512.62   15.68
   2   1  -2  197.61    9.55
  -2  -1   2  200.07   10.38
   2   1  -2  191.78    9.80
   2   1  -3  881.84   20.58
  -2  -1   3  834.61   21.72
   2   1  -3  884.50   22.22
   2   1  -4  641.19   18.81
   2   1  -4  635.72   20.42
  -2  -1   5  860.53   23.29
   2   1  -5 1032.57   28.74
   2   1  -6    0.19    2.29
  -2  -1   6    3.43    2.27
  -2  -1   6   -0.41    0.85
   2   1  -7    3.24    2.18
  -2  -1   7    1.06    1.56
  -2  -1   7    3.38    1.60
   2   1  -8    0.71    1.22
  -2  -1   8   11.31    3.48
  -2  -1   9  101.75   11.17
  -2  -1   9  123.00   12.29
   2   1  -9   72.63   10.87
   2   1  -9   61.24    9.18
   2   1  -9  110.63   12.05
   2   1  -9  109.75   11.34
   2   1  -9   76.32   10.63
  -2  -1  10   68.98    9.38
  -2  -1  10   69.85    9.30
   2   1 -10   80.30   11.07
   2   1 -10   67.56    8.82
   2   1 -10   72.58   10.20
  -2  -1  11   50.12    7.86
  -2  -1  11   55.88    7.85
   2   1 -11   67.08    9.38
   2   1 -11   53.65    7.51
   2   1 -11   61.63    8.67
  -2  -1  12  137.61   11.84
  -2  -1  12  132.74   10.71
   2   1 -12  157.95   12.71
   2   1 -12  149.12   11.01
  -2  -1  13  113.34    9.58
  -2  -1  13  105.41    8.27
   2   1 -13  121.37    9.31
   2   1 -13  101.19    7.62
  -2  -1  14   81.28    6.63
   2   1 -14   74.87    5.65
   2   1 -14   66.80    4.69
  -2   0 -12    1.66    1.13
  -2   0 -12    2.36    1.30
  -2   0 -11    1.94    1.51
   2   0  11    2.87    1.80
  -2   0 -11   -0.71    1.34
   2   0  11    1.95    1.19
   2   0  11    0.55    0.37
  -2   0 -10   10.62    3.65
   2   0  10   13.94    3.71
  -2   0 -10   11.22    2.96
   2   0  10   13.50    2.36
   2   0  10   10.38    3.21
  -2   0  -9   37.47    6.72
   2   0   9   36.78    6.32
  -2   0  -9   45.66    6.78
   2   0   9   64.09    5.92
   2   0   9   38.83    6.52
  -2   0  -9   40.49    6.34
   2   0   8   27.88    5.58
  -2   0  -8   31.73    5.89
  -2   0  -8   34.01    5.81
  -2   0  -8   26.67    4.70
   2   0   8   45.74    5.42
   2   0   8   30.77    6.19
   2   0   7  461.53   22.62
   2   0   7  324.53   17.96
   2   0   7  345.86   20.10
  -2   0  -7  410.19   15.66
  -2   0  -7  328.84   15.60
   2   0   7  462.03   17.90
   2   0   7  369.29   20.80
  -2   0  -7  456.60   21.90
   2   0   6  365.75   18.75
  -2   0  -6  386.13   15.75
   2   0   5  233.47   14.54
  -2   0  -5  245.63   11.17
  -2   0  -4  178.57    8.51
   2   0   4  195.59   11.87
   2   0   3  229.51   13.04
  -2   0  -3  240.59    9.06
  -2   0  -3  232.16    8.74
   2   0   3  252.01   12.32
   2   0   2  422.86   16.79
  -2   0  -2  419.68   10.69
  -2   0  -2  432.44   11.33
   2   0   2  424.33   15.07
   2   0   1 1284.95   24.86
  -2   0  -1 1313.88   22.90
   2   0   1 1364.23   27.47
  -2   0  -1 1308.62   17.31
  -2   0  -1 1299.74   18.36
   2   0   1 1316.44   25.39
   2   0   0  595.88   15.94
  -2   0   0  617.65   16.42
  -2   0   0  610.58   12.08
   2   0   0  619.12   16.66
   2   0  -1   30.96    3.49
  -2   0   1   33.45    3.94
  -2   0   1   30.70    2.61
  -2   0   1   34.25    3.17
   2   0  -1   31.29    3.78
   2   0  -2   93.13    5.85
  -2   0   2   88.52    6.61
  -2   0   2   92.98    5.02
   2   0  -2   90.05    6.38
  -2   0   3  254.35   11.67
  -2   0   3  284.95    8.30
   2   0  -3  251.46   11.11
  -2   0   4  217.87   11.21
   2   0  -4  217.89   10.46
   2   0  -4  219.83   11.45
  -2   0   5 1402.51   31.22
  -2   0   5 1470.04   30.28
  -2   0   6  662.92   23.73
  -2   0   6  691.29   21.10
   2   0  -6  743.75   25.49
  -2   0   7  524.23   22.46
  -2   0   7  525.27   18.88
   2   0  -7  582.99   24.44
   2   0  -7  524.57   24.06
  -2   0   8  437.90   21.86
   2   0  -8  456.14   22.87
  -2   0   9  292.30   18.57
  -2   0   9  316.52   19.44
   2   0  -9  158.23   15.78
   2   0  -9  334.00   20.46
   2   0  -9  225.88   17.26
   2   0  -9  233.26   17.82
  -2   0  10  118.86   12.08
  -2   0  10  143.23   13.14
   2   0 -10  111.99   13.00
   2   0 -10  137.00   13.26
   2   0 -10  130.20   13.16
   2   0 -10  114.61   12.30
  -2   0  11   29.50    6.03
  -2   0  11   32.53    6.16
   2   0 -11   30.71    6.07
   2   0 -11   39.94    7.32
  -2   0  12   16.84    3.87
   2   0 -12   21.56    4.72
   2   0 -12   17.13    3.96
  -2   0  13    0.16    1.10
   2   0 -13    0.01    0.42
  -2   0  13    0.65    0.61
   2   0 -13    1.23    0.85
  -2   0  14    8.70    2.15
   2   0 -14    6.54    1.53
   2   0 -14    7.48    1.71
  -2   1 -12    9.40    2.51
  -2   1 -12   11.67    2.67
   2  -1  12    8.83    1.42
  -2   1 -11   46.22    6.53
   2  -1  11   43.66    5.87
  -2   1 -11   48.22    5.71
   2  -1  11   59.61    4.66
  -2   1 -10   26.23    5.53
   2  -1  10   22.81    4.88
  -2   1 -10   29.04    5.00
   2  -1  10   28.46    5.50
   2  -1  10   33.84    4.07
  -2   1  -9   29.56    6.10
   2  -1   9   30.93    5.95
  -2   1  -9   37.23    6.06
   2  -1   9   46.80    5.33
   2  -1   9   37.43    6.58
  -2   1  -9   32.71    5.50
  -2   1  -8   11.00    3.28
   2  -1   8   15.92    3.26
   2  -1   8    9.00    2.89
   2  -1   8   14.49    4.04
  -2   1  -8   13.46    3.60
  -2   1  -8   10.39    2.60
   2  -1   8    9.43    3.33
   2  -1   7   27.74    5.70
   2  -1   7   41.50    6.70
  -2   1  -7   37.56    6.07
   2  -1   7   27.43    5.18
  -2   1  -7   29.15    4.56
  -2   1  -7   25.11    4.05
   2  -1   7   32.38    4.88
   2  -1   6   12.30    3.61
  -2   1  -6   11.27    2.60
  -2   1  -6   13.07    2.70
   2  -1   5   74.39    8.11
  -2   1  -5   87.17    6.10
   2  -1   4  133.61   10.35
  -2   1  -4  133.75    6.97
  -2   1  -4  136.63    7.01
   2  -1   3  569.76   20.20
  -2   1  -3  595.11   13.55
  -2   1  -3  562.41   13.25
  -2   1  -2  285.79    8.66
  -2   1  -2  290.80    9.12
   2  -1   2  300.48   13.64
   2  -1   2  297.93   12.45
  -2   1  -1 1297.73   22.02
   2  -1   1 1315.79   25.65
  -2   1  -1 1275.63   18.37
   2  -1   1 1303.74   24.73
  -2   1   0  983.79   20.22
  -2   1   0 1022.25   17.53
   2  -1   0  972.99   20.49
  -2   1   1  798.64   19.00
  -2   1   1  767.86   14.91
   2  -1  -1  746.19   17.76
  -2   1   2 1059.50   22.77
  -2   1   2 1034.58   16.98
   2  -1  -2 1004.79   20.71
  -2   1   3  468.60   15.71
   2  -1  -3  477.99   13.42
  -2   1   3  459.47   11.29
   2  -1  -3  444.08   14.28
  -2   1   4  212.42   10.95
   2  -1  -4  206.32   10.20
   2  -1  -4  210.35   10.46
  -2   1   5   52.09    6.18
  -2   1   5   50.13    5.65
   2  -1  -5   65.93    6.86
  -2   1   6   34.66    5.45
  -2   1   6   33.52    4.60
   2  -1  -6   50.33    6.69
   2  -1  -6   39.89    5.72
   2  -1  -7    2.06    1.63
  -2   1   7    0.13    0.55
  -2   1   7    1.73    1.08
   2  -1  -7    3.59    1.98
  -2   1   8  242.35   15.94
  -2   1   8  243.19   13.03
   2  -1  -8  282.75   17.82
   2  -1  -8  251.27   16.32
  -2   1   9   80.80    9.67
   2  -1  -9   65.13    9.73
  -2   1   9   84.14    8.97
   2  -1  -9   88.64   10.52
  -2   1  10  301.96   19.04
  -2   1  10  339.32   20.33
   2  -1 -10  293.90   20.43
   2  -1 -10  345.22   21.10
   2  -1 -10  279.20   20.04
  -2   1  11  158.75   13.79
  -2   1  11  193.00   14.96
   2  -1 -11  209.40   16.04
   2  -1 -11  205.37   15.99
  -2   1  12  200.05   14.14
   2  -1 -12  197.13   13.71
   2  -1 -12  206.59   14.22
  -2   1  13   96.69    8.69
   2  -1 -13   94.75    7.57
   2  -1 -13   94.04    8.03
  -2   1  14   48.69    5.02
   2  -1 -14   39.88    4.10
  -2   2 -12    2.74    1.53
  -2   2 -12    2.28    1.34
   2  -2  12    2.13    0.81
  -2   2 -11   33.49    5.65
  -2   2 -11   29.54    4.37
   2  -2  11   41.93    3.99
   2  -2  10   11.79    2.42
  -2   2 -10   11.05    3.73
   2  -2  10    7.70    2.80
  -2   2 -10   11.35    3.33
   2  -2   9  143.95   12.57
   2  -2   9  111.21   11.24
  -2   2  -9  134.99   11.22
   2  -2   8   71.25    8.48
   2  -2   8   79.15    9.67
  -2   2  -8   78.53    8.07
   2  -2   8   86.52   10.09
   2  -2   7  217.49   14.61
  -2   2  -7  233.08   13.16
  -2   2  -7  229.61   11.44
   2  -2   7  240.23   12.93
   2  -2   7  247.38   16.67
   2  -2   6  187.08   13.33
  -2   2  -6  217.63   10.07
   2  -2   5  287.41   15.88
  -2   2  -5  305.59   11.24
  -2   2  -5  322.84   11.14
   2  -2   4  234.31   13.62
  -2   2  -4  251.70    9.28
  -2   2  -4  237.43    9.20
   2  -2   3  237.28   12.95
  -2   2  -3  237.83    8.57
  -2   2  -3  255.31    8.93
  -2   2  -3  284.23   10.60
   2  -2   3  276.87   13.23
   2  -2   2   30.89    4.41
  -2   2  -2   32.85    3.13
  -2   2  -2   32.72    3.35
   2  -2   2   31.44    4.61
   2  -2   2   38.89    4.63
   2  -2   1   24.78    3.60
  -2   2  -1   19.93    2.96
  -2   2  -1   22.35    2.74
   2  -2   1   22.31    3.92
   2  -2   1   21.60    3.31
  -2   2   0    5.28    1.27
   2  -2   0    6.99    1.72
   2  -2   0    5.80    1.97
  -2   2   0    5.74    1.49
  -2   2   0    6.27    1.74
   2  -2   0    7.15    1.88
  -2   2   1  204.48    9.61
   2  -2  -1  206.62   10.94
   2  -2  -1  178.75    8.58
  -2   2   2 1082.11   22.40
   2  -2  -2 1038.82   19.20
   2  -2  -2 1006.63   20.10
   2  -2  -2 1124.35   24.81
   2  -2  -3  292.86   11.23
  -2   2   3  313.87   12.11
   2  -2  -3  326.75   12.87
   2  -2  -3  285.44   10.90
   2  -2  -4 1013.87   23.17
  -2   2   4 1088.65   22.40
   2  -2  -4 1037.55   22.03
  -2   2   5  555.12   20.01
   2  -2  -5  575.38   19.60
  -2   2   5  575.02   16.27
   2  -2  -5  576.65   17.48
  -2   2   6 1040.24   29.53
   2  -2  -6 1066.99   29.67
  -2   2   7  590.13   23.56
  -2   2   7  592.89   20.77
   2  -2  -7  642.62   25.14
  -2   2   8  190.06   14.12
  -2   2   8  196.77   11.95
   2  -2  -8  213.82   15.47
  -2   2   9    7.12    2.73
  -2   2   9    9.20    2.75
  -2   2   9    3.59    1.70
  -2   2   9    8.00    2.87
   2  -2  -9    9.07    3.47
   2  -2  -9    5.25    2.55
  -2   2  10   94.18   10.55
  -2   2  10   97.66    9.60
   2  -2 -10   91.46   11.45
  -2   2  11   21.37    5.15
   2  -2 -11   21.92    5.06
  -2   2  12   11.43    3.57
   2  -2 -12    9.55    3.12
  -2   2  13   14.48    3.24
   2  -2 -13    9.68    2.53
  -2   2  14   72.50    5.80
   2  -2 -14   61.73    4.56
   2  -2 -14   71.13    5.21
  -2   3 -12    9.75    2.33
  -2   3 -12    8.31    2.17
   2  -3  12    9.62    1.53
  -2   3 -11    6.17    2.35
   2  -3  11    7.62    1.76
   2  -3  10   -0.17    0.56
  -2   3 -10   -0.41    0.95
   2  -3   9  175.53   10.10
  -2   3  -9  112.27   11.40
   2  -3   8    3.33    1.64
   2  -3   8    5.37    2.60
   2  -3   8    0.81    1.21
  -2   3  -8    2.64    1.41
   2  -3   7   44.22    6.72
  -2   3  -7   42.35    5.66
   2  -3   7   49.21    5.95
   2  -3   7   47.68    7.35
   2  -3   6   64.06    7.93
  -2   3  -6   57.76    6.24
  -2   3  -6   67.40    5.62
  -2   3  -6   70.70    5.50
   2  -3   5  374.91   18.51
  -2   3  -5  378.98   12.32
  -2   3  -5  373.98   11.92
   2  -3   4    4.16    1.82
   2  -3   4    3.40    1.41
  -2   3  -4    3.37    0.99
  -2   3  -4    2.88    1.02
   2  -3   3  671.43   22.31
  -2   3  -3  684.46   15.02
   2  -3   3  654.30   21.91
   2  -3   2  887.01   23.86
  -2   3  -2  910.23   20.92
  -2   3  -2  902.76   18.29
   2  -3   2  962.07   23.53
   2  -3   2  837.92   24.33
  -2   3  -1  730.84   19.24
  -2   3  -1  757.63   16.59
   2  -3   1  747.54   19.30
   2  -3   1  715.87   22.40
   2  -3   0  890.16   24.92
  -2   3   0  911.77   23.26
  -2   3   0  915.82   21.74
   2  -3   0  903.50   20.06
   2  -3  -1  546.66   19.25
  -2   3   1  533.25   13.17
  -2   3   1  553.68   18.52
  -2   3   1  522.30   16.70
   2  -3  -1  527.46   14.41
   2  -3  -1  511.58   14.63
   2  -3  -2  244.38   12.60
   2  -3  -2  220.42    9.70
  -2   3   2  236.66   12.38
   2  -3  -2  223.63    9.48
  -2   3   2  229.38   10.99
   2  -3  -3   67.32    6.39
   2  -3  -3   68.69    5.85
  -2   3   3   67.47    5.93
  -2   3   4  290.09   13.55
   2  -3  -4  287.31   13.10
  -2   3   4  315.23   12.70
  -2   3   5    2.82    1.67
   2  -3  -5    2.59    1.33
  -2   3   5    3.78    1.44
  -2   3   6   41.69    6.03
   2  -3  -6   45.23    6.22
  -2   3   7  171.85   12.92
   2  -3  -7  179.60   13.40
  -2   3   8  987.34   32.60
   2  -3  -8 1061.67   34.74
  -2   3   9    3.84    1.65
  -2   3   9    2.87    1.94
  -2   3   9    1.84    1.34
   2  -3  -9    3.56    1.93
   2  -3  -9    5.78    2.27
  -2   3  10  177.79   14.30
  -2   3  10  197.17   15.13
  -2   3  10  195.75   13.44
   2  -3 -10  191.51   16.00
  -2   3  11  119.28    9.75
   2  -3 -11  145.34   12.93
  -2   3  12  176.51   12.56
   2  -3 -12  173.47   12.35
  -2   3  13   73.38    6.96
   2  -3 -13   65.73    5.79
   2  -3 -13   64.22    6.03
  -2   4 -12   13.70    2.61
   2  -4  12   15.05    1.73
  -2   4 -11   28.60    4.46
   2  -4  11   37.49    3.43
  -2   4 -11   32.76    5.00
   2  -4  10    5.14    1.39
  -2   4 -10    3.25    2.06
   2  -4  10    1.89    1.26
   2  -4   9  132.22   12.15
   2  -4   9  155.07    9.06
   2  -4   8  264.40   12.62
   2  -4   8  276.21   12.73
   2  -4   7  147.78   14.20
  -2   4  -7  171.57   11.84
   2  -4   7  231.84   12.30
   2  -4   7  269.07   13.16
   2  -4   6   42.41    6.57
   2  -4   6   26.82    4.29
  -2   4  -6   35.81    5.05
  -2   4  -6   42.35    4.42
   2  -4   5   34.59    5.83
  -2   4  -5   33.80    3.59
  -2   4  -5   36.73    3.93
   2  -4   4   15.91    3.10
  -2   4  -4   18.60    2.66
  -2   4  -4   20.05    2.91
   2  -4   4   16.88    3.62
  -2   4  -4   19.35    2.63
   2  -4   3  123.93    8.11
  -2   4  -3  124.25    6.68
  -2   4  -3  127.63    7.34
   2  -4   3  121.69    9.75
  -2   4  -2    9.81    2.43
   2  -4   2   11.66    2.96
  -2   4  -2    8.99    1.96
   2  -4   1  203.38   12.71
  -2   4  -1  211.65   11.51
  -2   4  -1  187.75   11.69
  -2   4  -1  219.47   10.26
   2  -4   0   57.49    6.89
  -2   4   0   64.44    5.39
  -2   4   0   58.50    6.58
  -2   4   0   51.25    5.97
  -2   4   0   54.34    5.93
   2  -4  -1  388.81   17.79
  -2   4   1  371.24   15.64
  -2   4   1  424.80   17.78
  -2   4   1  405.20   13.16
   2  -4  -2 1016.13   28.63
   2  -4  -2  993.72   22.71
  -2   4   2  997.70   25.33
  -2   4   2 1062.21   28.07
   2  -4  -3  247.49   13.77
  -2   4   3  228.71   11.82
  -2   4   3  234.96   13.25
   2  -4  -3  216.28   11.22
  -2   4   4  598.41   20.67
   2  -4  -4  620.82   20.47
  -2   4   4  648.24   19.63
  -2   4   5  227.70   13.47
   2  -4  -5  234.32   13.63
  -2   4   5  236.41   11.61
  -2   4   6  455.79   20.17
   2  -4  -6  513.68   21.75
  -2   4   7  153.29   12.31
   2  -4  -7  182.13   13.85
  -2   4   8   58.59    8.00
  -2   4   8   59.11    8.27
  -2   4   8   59.82    8.37
  -2   4   8   64.04    7.96
   2  -4  -8   63.01    8.59
   2  -4  -8   65.97    8.88
  -2   4   9   -0.29    0.50
  -2   4   9    0.67    1.43
  -2   4   9    1.85    1.35
   2  -4  -9    1.22    1.06
  -2   4  10   13.63    3.98
  -2   4  10    7.69    2.58
   2  -4 -10   10.23    3.49
  -2   4  11    3.97    1.45
   2  -4 -11    5.26    2.31
  -2   4  12   36.89    5.36
   2  -4 -12   34.32    4.62
   2  -4 -12   38.46    5.07
  -2   4  13   11.25    2.37
   2  -4 -13   10.51    2.00
   2  -4 -13   11.18    2.06
   2  -5  11   -0.42    0.42
   2  -5  11    0.60    0.30
   2  -5  10    3.22    1.16
   2  -5  10    2.17    1.24
   2  -5   9    9.85    3.10
   2  -5   9   15.65    2.62
   2  -5   9   19.80    3.07
   2  -5   8   60.01    9.04
   2  -5   8   80.74    6.49
   2  -5   8   90.90    7.28
  -2   5  -8   55.68    8.39
   2  -5   7   25.57    5.91
   2  -5   7   34.28    4.46
  -2   5  -7   22.01    4.30
   2  -5   7   34.08    4.81
  -2   5  -6   71.31    5.71
   2  -5   6   60.85    9.22
   2  -5   6   62.59    8.97
   2  -5   6   54.06    6.53
  -2   5  -6   64.62    7.09
   2  -5   6   88.37    7.34
   2  -5   6  102.35    8.51
   2  -5   5   67.38    7.14
  -2   5  -5  168.34    8.47
  -2   5  -4  126.36    7.10
   2  -5   4  126.86   10.28
   2  -5   3  475.87   17.50
  -2   5  -3  509.58   14.04
  -2   5  -3  522.37   15.58
   2  -5   3  458.12   19.80
   2  -5   2  197.38   13.16
  -2   5  -2  233.36   12.09
  -2   5  -2  218.57   12.92
  -2   5  -2  223.08   10.40
   2  -5   1  189.26   13.18
  -2   5  -1  183.50   12.23
  -2   5  -1  208.39   11.21
   2  -5   0  149.91   11.97
  -2   5   0  147.31   11.06
  -2   5   0  139.28   11.32
  -2   5   0  156.79    9.55
   2  -5  -1   80.38    8.92
  -2   5   1   84.83    6.86
  -2   5   1   91.70    8.68
  -2   5   1   91.92    9.06
   2  -5  -2  103.07   10.31
  -2   5   2  128.40   10.57
   2  -5  -3    9.59    2.54
  -2   5   3    6.97    2.31
  -2   5   3    9.72    2.82
   2  -5  -3    7.63    2.79
  -2   5   4    7.74    2.57
   2  -5  -4   11.15    2.91
  -2   5   4   11.41    2.80
   2  -5  -4   11.00    3.18
  -2   5   4   15.30    3.72
  -2   5   5   96.47    9.24
   2  -5  -5  114.57    9.95
  -2   5   5  106.58    8.32
  -2   5   6  176.81   12.95
   2  -5  -6  201.08   14.01
  -2   5   7   48.35    7.17
  -2   5   7   47.85    7.42
  -2   5   7   49.92    7.62
   2  -5  -7   54.86    7.68
   2  -5  -7   51.87    6.71
   2  -5  -7   48.43    7.20
  -2   5   8  241.41   16.33
  -2   5   8  268.48   17.82
  -2   5   8  240.06   16.76
   2  -5  -8  204.82   15.08
   2  -5  -8  239.63   14.89
  -2   5   9   51.09    7.52
  -2   5   9   59.78    8.28
  -2   5   9   53.87    7.12
   2  -5  -9   56.16    7.12
  -2   5  10  182.91   13.72
  -2   5  10  168.67   11.74
   2  -5 -10  159.91   11.43
  -2   5  11   35.67    4.75
   2  -5 -11   36.82    4.94
  -2   5  12   37.56    4.85
   2  -5 -12   30.15    3.68
   2  -6  11   14.40    2.57
   2  -6  10   18.21    3.57
   2  -6   9   25.85    5.01
   2  -6   8   16.33    4.05
   2  -6   8   29.23    3.98
  -2   6  -7   30.22    6.12
   2  -6   7   26.42    5.53
   2  -6   7   28.46    5.81
   2  -6   7   44.63    5.33
  -2   6  -6   29.11    5.88
   2  -6   6   30.19    6.34
   2  -6   6   30.02    6.36
  -2   6  -6   26.12    4.64
   2  -6   6   38.85    5.33
   2  -6   5    1.40    1.33
   2  -6   5    4.23    1.87
   2  -6   5    3.13    1.53
  -2   6  -5    4.79    1.76
   2  -6   5    7.42    2.39
   2  -6   5    2.03    1.51
   2  -6   4    3.98    1.62
   2  -6   4    6.54    3.07
   2  -6   4    3.58    1.71
   2  -6   4    3.67    1.61
   2  -6   4    8.76    3.31
   2  -6   4    6.97    2.13
   2  -6   3    6.43    2.34
   2  -6   2   57.55    7.57
  -2   6  -2   55.62    7.37
  -2   6  -1    3.05    1.62
  -2   6  -1    4.50    2.46
   2  -6   1    5.28    2.33
   2  -6   0  594.84   26.43
  -2   6   0  551.11   23.43
   2  -6  -1   87.25   10.41
  -2   6   1  108.88   10.35
  -2   6   1  109.21   10.84
   2  -6  -2   93.52   10.87
  -2   6   2  191.04   14.15
  -2   6   3  111.30    9.78
   2  -6  -3   93.56   10.81
  -2   6   3  124.20   11.12
  -2   6   4  177.58   12.79
   2  -6  -4  204.08   15.30
   2  -6  -4  189.06   12.87
  -2   6   4  182.54   12.15
  -2   6   4  184.30   13.41
  -2   6   5  167.07   12.78
  -2   6   5  189.16   14.56
   2  -6  -5  205.06   13.64
   2  -6  -5  176.65   12.99
  -2   6   5  186.58   11.74
  -2   6   5  178.34   13.22
   2  -6  -5  167.05   10.76
  -2   6   6   81.51    9.13
  -2   6   6   93.50   10.24
   2  -6  -6  106.21   10.39
   2  -6  -6   84.14    9.29
   2  -6  -6   79.51    7.74
  -2   6   7    2.04    1.86
  -2   6   7    0.58    1.37
  -2   6   7    3.25    1.86
   2  -6  -7    2.83    1.77
   2  -6  -7    2.08    1.43
  -2   6   8    2.47    1.42
   2  -6  -8    0.26    0.47
  -2   6   8    0.70    1.78
  -2   6   8    0.75    0.71
   2  -6  -8    2.08    1.86
  -2   6   9    0.56    1.13
  -2   6   9   -1.68    1.19
   2  -6  -9   -0.22    0.76
   2  -6  -9    0.70    0.88
  -2   6  10   14.36    3.59
  -2   6  10   16.53    3.34
   2  -6 -10   16.65    3.47
   2  -6 -10   13.21    2.85
  -2   6  11    5.22    1.58
   2  -6 -11    2.63    1.12
   2  -7  10   -1.12    0.58
   2  -7   9    6.08    2.15
   2  -7   8   12.77    3.67
   2  -7   8   15.70    2.78
   2  -7   7   10.41    3.49
   2  -7   7   11.20    3.44
   2  -7   7   13.77    2.74
   2  -7   6  183.53   15.79
   2  -7   6  166.51   14.38
   2  -7   5   23.29    4.78
   2  -7   5   28.02    5.86
   2  -7   5   18.10    5.03
   2  -7   5   32.41    4.82
   2  -7   4   80.43    9.85
   2  -7   4   62.22    9.68
   2  -7   4   64.88    8.65
   2  -7   4   90.64    8.17
   2  -7   4   65.49    7.71
   2  -7   3    9.23    2.95
   2  -7   3    6.66    3.04
   2  -7   3    9.30    3.07
   2  -7   3    9.01    3.23
   2  -7   3   10.32    2.54
   2  -7   2   49.16    7.26
   2  -7   2   52.42    8.72
  -2   7  -2   41.92    6.98
   2  -7   2   68.69    8.46
   2  -7   2   36.67    7.37
   2  -7   2   53.28    6.15
   2  -7   2   68.48    6.78
   2  -7   1  277.48   18.29
   2  -7   1  265.67   13.33
   2  -7   1  306.35   17.77
   2  -7   1  228.91   12.97
  -2   7  -1  177.81   14.76
  -2   7  -1  125.83   13.38
   2  -7   1  262.77   19.80
   2  -7   1  365.95   15.43
   2  -7   0   42.17    7.41
   2  -7   0   30.67    4.80
  -2   7   0   38.37    6.74
   2  -7   0   41.74    5.12
  -2   7   0   26.41    6.04
   2  -7   0   29.59    6.88
   2  -7  -1   62.08    9.37
  -2   7   1   60.24    8.66
   2  -7  -1   63.72    6.71
  -2   7   1   69.61    8.98
   2  -7  -1   70.73    6.58
   2  -7  -2   20.95    3.92
  -2   7   2   20.78    5.00
   2  -7  -2   22.31    3.67
   2  -7  -2   15.08    5.14
   2  -7  -2   12.71    4.37
  -2   7   3   -0.39    1.06
   2  -7  -3    1.11    1.06
  -2   7   3    0.56    0.78
   2  -7  -3    0.81    0.55
   2  -7  -3    2.09    1.71
  -2   7   4   27.62    5.27
   2  -7  -4   34.04    5.41
  -2   7   4   31.02    5.27
  -2   7   4   30.46    5.69
   2  -7  -4   27.49    4.28
   2  -7  -4   31.27    6.35
  -2   7   5    4.38    2.18
  -2   7   5    3.64    1.87
   2  -7  -5    3.83    1.89
   2  -7  -5    2.15    1.27
  -2   7   5    4.57    2.09
  -2   7   6  197.58   14.38
  -2   7   6  210.91   15.41
   2  -7  -6  179.55   11.13
   2  -7  -6  223.60   14.78
  -2   7   7   58.43    8.02
  -2   7   7   49.96    7.35
   2  -7  -7   54.72    7.42
   2  -7  -7   47.85    5.72
  -2   7   8   51.34    7.24
  -2   7   8   46.64    6.75
   2  -7  -8   46.03    6.45
   2  -7  -8   44.10    5.20
  -2   7   9   48.08    6.52
  -2   7   9   50.37    5.94
   2  -7  -9   49.92    6.12
   2  -7  -9   37.97    4.48
  -2   7  10   16.93    3.37
  -2   7  10   18.43    3.10
   2  -7 -10   16.94    2.98
   2  -7 -10   14.14    2.34
   2  -8   9    2.31    1.29
   2  -8   8    3.69    1.46
   2  -8   7    3.95    2.22
   2  -8   7    4.90    1.53
   2  -8   6    3.37    2.24
   2  -8   6    0.13    0.73
   2  -8   6    3.48    1.43
   2  -8   5   26.20    5.63
   2  -8   5   22.35    5.51
   2  -8   5   19.88    4.30
   2  -8   5   38.32    4.77
   2  -8   4    7.93    2.28
   2  -8   4    5.43    2.96
   2  -8   4    5.88    2.79
   2  -8   4    8.93    2.35
   2  -8   3   12.54    3.90
   2  -8   3    9.90    3.72
   2  -8   3   10.02    3.47
   2  -8   3   16.95    3.49
   2  -8   2   48.22    7.30
   2  -8   2   32.45    6.56
   2  -8   2   29.91    6.31
   2  -8   2   50.77    5.91
   2  -8   1    0.32    0.74
   2  -8   1    2.85    2.60
  -2   8  -1   -1.10    2.23
   2  -8   0  351.67   16.08
   2  -8   0  410.33   16.57
   2  -8   0  369.97   24.42
   2  -8  -1    5.04    2.01
  -2   8   1    2.73    1.61
   2  -8  -1    6.82    2.76
   2  -8  -1    1.52    0.77
   2  -8  -2   56.37    5.99
  -2   8   2   54.92    8.19
   2  -8  -2   55.62    6.54
   2  -8  -2   61.89    9.85
  -2   8   3   36.35    6.08
   2  -8  -3   37.53    5.47
  -2   8   3   34.69    6.30
   2  -8  -3   37.95    4.87
  -2   8   4   14.92    3.81
  -2   8   4   18.58    4.61
   2  -8  -4   20.47    4.23
   2  -8  -4   18.88    3.47
  -2   8   5   27.30    5.60
   2  -8  -5   24.01    3.79
   2  -8  -5   27.58    4.88
  -2   8   6    0.01    1.01
   2  -8  -6   -0.06    0.82
   2  -8  -6    1.52    1.00
  -2   8   7   -0.92    0.97
  -2   8   7    1.53    1.01
   2  -8  -7    0.21    0.58
   2  -8  -7    0.19    0.45
  -2   8   8   -0.98    0.91
  -2   8   8    1.65    1.17
  -2   8   8    0.33    0.48
   2  -8  -8    1.13    0.92
  -2   8   9    0.18    0.35
  -2   8   9    0.27    0.61
   2  -8  -9    0.00    0.22
   2  -9   8    7.56    2.07
   2  -9   7    1.17    1.26
   2  -9   6   28.70    4.68
   2  -9   6   42.16    4.02
   2  -9   5    6.96    2.26
   2  -9   5    5.45    2.48
   2  -9   5    2.18    1.13
   2  -9   5    8.04    1.99
   2  -9   4   25.80    5.14
   2  -9   4   31.27    5.92
   2  -9   3    4.47    2.33
   2  -9   3    2.46    1.79
   2  -9   2    5.55    2.83
   2  -9   1    0.35    1.05
   2  -9   0    0.57    0.63
   2  -9   0    0.47    0.85
   2  -9   0    1.61    1.43
   2  -9  -1    1.09    0.61
   2  -9  -1   -0.51    1.80
   2  -9  -2    3.34    1.16
   2  -9  -2    3.19    1.64
   2  -9  -3    7.26    2.29
  -2   9   4   34.39    5.83
   2  -9  -4   37.37    5.11
  -2   9   5    9.44    2.90
   2  -9  -5    9.01    2.42
  -2   9   6   40.92    5.80
  -2   9   6   36.88    5.36
   2  -9  -6   34.25    4.65
  -2   9   7    4.77    1.89
  -2   9   7    5.25    1.81
   2  -9  -7    6.48    1.87
  -2   9   8   11.83    2.54
  -2   9   8   12.31    2.35
   2  -9  -8   16.37    2.60
   2 -10   5    7.94    2.01
   2 -10   4    1.76    0.62
   2 -10   3    2.84    1.62
   2 -10   2   24.84    4.80
   2 -10   1    3.98    1.97
   2 -10   0   24.93    5.24
   2 -10  -1    3.75    1.96
   2 -10  -2   19.61    3.26
   2 -10  -2   23.98    4.70
   2 -10  -3    0.91    0.59
  -2  10   4    2.12    1.13
   2 -10  -4    1.08    0.72
  -2  10   5    6.00    2.02
  -2  10   5    4.47    1.74
   2 -10  -5    4.08    1.42
  -2  10   6   -1.10    0.60
   2 -10  -6   -0.44    0.47
   2 -11   3    1.59    0.85
   2 -11   2    2.27    1.15
   2 -11   1    4.14    1.55
   2 -11   0    0.43    0.77
   2 -11  -1    0.62    0.68
  -3  -7  -1    2.58    1.55
   3   7   1    2.67    1.40
  -3  -7   0    0.86    0.73
   3   7   0    0.88    0.89
  -3  -7   1    7.61    2.38
   3   7  -1    8.82    2.64
  -3  -7   2    4.26    1.74
  -3  -7   2    3.13    1.42
   3   7  -2    3.19    1.68
  -3  -7   3    9.83    2.61
  -3  -7   3    3.96    1.48
   3   7  -3    9.57    2.70
  -3  -7   4   11.85    2.85
   3   7  -4    9.83    2.65
  -3  -7   5    3.38    1.62
   3   7  -5    2.90    1.37
  -3  -7   6   12.56    2.62
  -3  -6  -4   13.62    2.62
   3   6   4   10.44    2.64
  -3  -6  -3    5.67    2.06
  -3  -6  -3    5.27    2.01
   3   6   3    3.30    1.49
  -3  -6  -2    6.18    2.28
  -3  -6  -2    6.32    2.43
   3   6   2    3.92    1.72
  -3  -6  -1    1.21    0.94
   3   6   1    2.05    1.52
  -3  -6   0   12.79    3.08
  -3  -6   0   18.28    4.48
   3   6   0   12.32    3.41
  -3  -6   1    0.12    0.98
  -3  -6   1    3.80    2.51
   3   6  -1    0.80    1.23
  -3  -6   2    0.54    0.92
  -3  -6   2    2.17    1.85
   3   6  -2   -0.35    0.61
   3   6  -3    0.04    0.73
  -3  -6   3    1.19    1.29
  -3  -6   3   -0.24    0.73
   3   6  -3    1.08    1.18
   3   6  -4    1.86    1.26
  -3  -6   4    1.40    1.14
   3   6  -4    2.05    1.54
   3   6  -5    5.32    1.93
  -3  -6   5    4.30    1.93
   3   6  -5    3.90    1.86
   3   6  -6   17.23    3.46
  -3  -6   6   14.04    2.98
   3   6  -7   27.63    4.19
  -3  -6   7   44.77    5.42
   3   6  -8   -0.11    0.26
  -3  -6   8    1.02    0.66
  -3  -5  -5    2.45    1.34
   3   5   5    0.44    0.71
  -3  -5  -4    2.04    0.74
   3   5   4    0.58    0.51
  -3  -5  -3   15.54    3.79
   3   5   3   10.57    3.43
  -3  -5  -2   10.03    3.20
   3   5   2   10.44    3.33
  -3  -5  -1   14.14    3.96
   3   5   1   11.56    3.48
   3   5   0   42.01    5.97
  -3  -5   0   32.75    5.45
  -3  -5   0   49.48    7.19
   3   5   0   38.53    6.68
   3   5  -1   36.70    5.61
  -3  -5   1   56.97    7.67
  -3  -5   1   34.04    5.96
   3   5  -1   42.55    7.15
   3   5  -2    5.63    2.46
  -3  -5   2    3.92    2.23
   3   5  -2    5.29    2.48
   3   5  -3   23.06    4.68
  -3  -5   3   19.61    4.75
   3   5  -3   24.36    5.46
   3   5  -4   36.80    5.98
  -3  -5   4   33.82    6.05
   3   5  -4   29.44    6.11
  -3  -5   4   32.51    5.86
   3   5  -5   22.63    4.70
  -3  -5   5   25.72    5.04
  -3  -5   5   21.18    4.58
   3   5  -6   25.62    5.06
  -3  -5   6   20.28    4.33
  -3  -5   6   21.62    4.60
   3   5  -7   20.81    4.44
   3   5  -7   16.11    3.97
  -3  -5   7   16.95    3.45
  -3  -5   7   20.17    4.41
   3   5  -8    0.76    1.12
   3   5  -8   -0.85    1.14
  -3  -5   8    0.21    0.95
  -3  -5   8    1.88    1.14
   3   5  -9    1.28    1.17
  -3  -5   9    0.23    0.72
   3   5 -10    1.58    0.91
   3   4   7   10.40    2.45
  -3  -4  -7    7.22    1.82
  -3  -4  -6    7.24    1.97
   3   4   6    5.77    2.26
  -3  -4  -6    5.28    1.85
  -3  -4  -5    1.43    1.48
   3   4   5    1.33    1.39
  -3  -4  -5    4.88    2.08
  -3  -4  -4   46.46    7.05
   3   4   4   34.70    5.95
  -3  -4  -3   20.41    4.83
   3   4   3   14.17    3.95
   3   4   2   16.04    3.76
  -3  -4  -2   21.91    5.45
   3   4   2   12.93    3.81
   3   4   1    2.40    1.72
  -3  -4  -1    1.13    0.38
  -3  -4  -1    1.71    2.58
   3   4   1    1.32    0.77
   3   4   0   10.73    3.13
  -3  -4   0    9.79    3.22
  -3  -4   0   20.28    5.17
   3   4   0   10.04    3.06
   3   4  -1   23.30    4.76
  -3  -4   1   28.23    6.05
  -3  -4   1   14.72    4.07
   3   4  -1   19.35    4.88
   3   4  -2    4.84    2.17
  -3  -4   2    4.10    2.39
   3   4  -2    3.86    2.33
   3   4  -3   11.82    3.68
  -3  -4   3   10.50    3.39
   3   4  -3   12.06    3.97
   3   4  -4   27.79    5.61
  -3  -4   4   27.74    5.48
  -3  -4   4   26.58    5.44
   3   4  -5   53.14    7.80
   3   4  -5   43.88    7.40
  -3  -4   5   48.92    7.04
  -3  -4   5   48.05    7.46
   3   4  -5   41.13    6.79
   3   4  -6   74.22    9.35
   3   4  -6   56.48    8.40
  -3  -4   6   69.37    8.18
  -3  -4   6   79.98    9.68
   3   4  -7   59.38    8.15
   3   4  -7   40.37    6.71
  -3  -4   7   53.14    6.66
  -3  -4   7   55.47    7.96
   3   4  -8   11.12    3.58
  -3  -4   8    9.46    3.06
   3   4  -9   43.93    6.32
   3   4  -9   38.25    5.04
  -3  -4   9   46.26    6.24
   3   4 -10   19.12    3.75
   3   4 -10   16.80    2.82
  -3  -4  10   16.27    3.27
   3   4 -11    5.37    1.58
  -3  -4  11    6.29    1.80
   3   3   8    0.34    0.50
  -3  -3  -8    1.83    1.19
   3   3   7   -0.73    0.96
  -3  -3  -7    2.83    1.65
  -3  -3  -6    2.13    1.21
   3   3   6    2.40    1.32
   3   3   5    5.43    2.36
  -3  -3  -5    2.38    1.87
  -3  -3  -5    5.26    2.43
   3   3   5    2.43    1.18
   3   3   4   10.97    3.32
  -3  -3  -4   10.17    3.28
  -3  -3  -4   16.34    4.59
   3   3   4    6.78    2.59
   3   3   3   43.11    6.60
  -3  -3  -3   50.21    6.32
  -3  -3  -3   38.76    6.48
   3   3   3   44.35    7.31
   3   3   2   28.28    5.35
  -3  -3  -2   35.89    5.06
  -3  -3  -2   32.76    5.38
   3   3   2   27.82    5.64
   3   3   1   98.00   10.47
   3   3   1  107.53   10.34
  -3  -3  -1  114.10    8.83
  -3  -3  -1  113.62    9.63
   3   3   1   96.32   10.67
  -3  -3   0   56.09    7.46
   3   3   0   50.23    7.49
   3   3   0   48.74    6.90
  -3  -3   0   45.32    6.72
  -3  -3   0   51.40    6.46
   3   3   0   48.60    7.65
  -3  -3   1  111.81   10.57
   3   3  -1  113.27   11.27
   3   3  -1  101.57    9.88
  -3  -3   1  111.44    9.21
   3   3  -1  104.83   11.13
  -3  -3   1  106.76   10.43
   3   3  -2   87.70   10.00
  -3  -3   2   78.27    9.12
   3   3  -2   84.31    9.29
  -3  -3   2   88.75    9.76
  -3  -3   2   86.93    7.92
   3   3  -2   83.17    8.83
   3   3  -3   38.17    6.71
  -3  -3   3   36.53    6.26
   3   3  -3   30.95    5.70
  -3  -3   3   35.75    6.32
   3   3  -3   31.40    5.72
  -3  -3   4   57.03    7.79
   3   3  -4   48.68    7.37
  -3  -3   4   58.86    8.15
  -3  -3   4   59.13    8.34
   3   3  -4   53.37    7.50
  -3  -3   5    1.25    1.70
   3   3  -5   -0.49    0.91
   3   3  -5   -0.67    0.73
   3   3  -5    2.05    1.35
  -3  -3   5    2.39    1.86
  -3  -3   6    3.75    2.19
   3   3  -6   -1.43    2.26
   3   3  -6    4.21    2.33
   3   3  -6    2.03    1.40
  -3  -3   6    1.61    1.79
   3   3  -7    2.60    2.41
   3   3  -7    6.02    2.44
  -3  -3   7    3.76    1.69
  -3  -3   7    5.85    2.75
   3   3  -8    7.25    2.85
  -3  -3   8   11.12    2.92
  -3  -3   8    8.67    3.20
   3   3  -9   23.30    4.62
  -3  -3   9   30.84    5.62
  -3  -3  10   36.34    5.45
   3   3 -10   43.67    5.92
  -3  -3  10   41.72    5.75
   3   3 -11   22.14    3.62
  -3  -3  11   18.33    3.42
   3   3 -11   18.43    3.28
  -3  -3  11   18.73    3.28
   3   3 -12   27.35    3.19
  -3  -2  -8    7.89    2.39
   3   2   8    9.77    2.58
  -3  -2  -7   42.04    5.65
   3   2   7   47.73    6.50
   3   2   6   24.46    4.90
  -3  -2  -6   31.61    5.53
  -3  -2  -6   19.86    4.28
  -3  -2  -6   18.59    4.43
   3   2   6   22.07    4.84
   3   2   5   30.16    5.61
  -3  -2  -5   45.08    7.20
  -3  -2  -5   30.59    4.71
  -3  -2  -5   31.78    5.54
  -3  -2  -5   33.99    6.14
   3   2   5   20.86    4.86
   3   2   4   22.87    4.77
  -3  -2  -4   32.03    5.09
  -3  -2  -4   26.06    5.50
  -3  -2  -4   25.05    4.52
   3   2   4   22.78    4.96
   3   2   3    6.45    2.56
  -3  -2  -3    6.71    2.56
  -3  -2  -3    4.42    2.78
  -3  -2  -3    2.67    0.82
  -3  -2  -3    7.51    2.90
   3   2   3    6.49    2.65
   3   2   2  102.11   10.18
  -3  -2  -2  101.56    8.43
  -3  -2  -2  111.89   10.96
  -3  -2  -2  111.46    9.48
   3   2   2  101.54   10.74
   3   2   1   22.60    4.85
   3   2   1   25.89    4.99
  -3  -2  -1   34.17    4.57
  -3  -2  -1   30.77    5.06
   3   2   1   29.01    5.90
   3   2   1   28.58    5.24
   3   2   0   28.71    5.39
  -3  -2   0   25.12    4.69
   3   2   0   22.01    4.58
  -3  -2   0   25.37    4.94
  -3  -2   0   28.60    4.16
  -3  -2   0   27.95    4.65
  -3  -2   0   29.35    4.75
   3   2   0   25.38    5.31
   3   2   0   23.07    4.57
   3   2  -1   27.41    5.32
  -3  -2   1   25.80    4.82
   3   2  -1   28.97    5.22
  -3  -2   1   31.61    5.48
  -3  -2   1   29.64    4.81
  -3  -2   1   32.45    4.80
   3   2  -1   21.98    4.44
   3   2  -2   37.52    6.21
  -3  -2   2   39.64    6.22
   3   2  -2   29.31    5.34
  -3  -2   2   32.34    5.63
  -3  -2   2   36.94    5.26
  -3  -2   2   38.26    5.00
   3   2  -2   25.23    4.71
  -3  -2   3   90.39    9.58
   3   2  -3   85.43    9.32
  -3  -2   3   88.87    9.53
  -3  -2   3   91.48    7.87
   3   2  -3   80.96    8.88
  -3  -2   4  138.40   11.85
   3   2  -4  142.22   12.41
   3   2  -4  139.34   11.10
  -3  -2   4  146.65   12.26
  -3  -2   4  153.33   13.31
   3   2  -4  151.44   12.61
  -3  -2   5  276.38   16.85
   3   2  -5  283.02   18.15
   3   2  -5  278.23   16.46
  -3  -2   5  298.39   17.44
  -3  -2   5  306.23   19.32
   3   2  -5  292.06   18.37
  -3  -2   6   84.52    9.24
   3   2  -6   83.52    9.47
  -3  -2   6   85.39    9.24
  -3  -2   6   86.64   10.43
   3   2  -6   82.86   10.27
   3   2  -7   76.40    9.31
  -3  -2   7   87.98    9.06
  -3  -2   7   93.48   10.78
   3   2  -7   65.92    9.52
   3   2  -8   68.26    8.88
  -3  -2   8   81.94    8.23
  -3  -2   8   86.35   10.03
  -3  -2   9   22.35    4.82
  -3  -2   9   16.11    3.70
   3   2  -9   13.27    3.90
  -3  -2  10    3.40    1.60
  -3  -2  10    2.11    0.86
   3   2 -10    2.77    1.62
  -3  -2  11    9.59    2.61
   3   2 -11   12.41    2.88
   3   2 -11   12.89    3.09
  -3  -2  11   13.32    3.05
  -3  -2  12    0.42    0.57
   3   2 -12   -0.19    0.38
  -3  -2  12    0.19    0.44
  -3  -1  -9    2.00    1.39
   3   1   9    1.87    1.27
  -3  -1  -9    3.33    1.62
  -3  -1  -8    8.20    2.75
  -3  -1  -8    8.91    2.76
  -3  -1  -8    8.88    2.94
   3   1   8    7.79    2.42
  -3  -1  -7   11.91    3.33
  -3  -1  -7   12.67    3.53
  -3  -1  -7   12.23    3.60
   3   1   7   10.42    3.36
   3   1   6   34.14    6.05
  -3  -1  -6   33.18    5.27
  -3  -1  -6   38.99    6.22
  -3  -1  -6   39.33    6.74
   3   1   6   30.76    5.74
   3   1   5   28.89    5.53
  -3  -1  -5   32.01    5.09
  -3  -1  -5   29.61    5.99
  -3  -1  -5   32.47    4.88
   3   1   5   23.04    5.03
   3   1   4   26.36    5.31
  -3  -1  -4   30.45    4.72
  -3  -1  -4   31.74    5.85
  -3  -1  -4   24.92    4.35
  -3  -1  -4   32.86    4.97
   3   1   4   32.13    5.95
   3   1   3   17.54    4.32
  -3  -1  -3   20.46    3.70
  -3  -1  -3   22.86    4.99
  -3  -1  -3   21.19    4.06
  -3  -1  -3   15.54    3.41
   3   1   3   16.61    4.53
   3   1   3   21.37    4.64
   3   1   2  152.46   12.15
  -3  -1  -2  215.37   11.67
  -3  -1  -2  191.18   11.96
  -3  -1  -2  164.12   10.06
  -3  -1  -2  192.81   11.79
   3   1   2  165.32   13.41
   3   1   2  174.22   12.77
  -3  -1  -1  766.75   23.29
  -3  -1  -1  727.35   19.65
  -3  -1  -1  795.91   23.37
   3   1   1  687.42   24.55
   3   1   0   22.02    4.60
  -3  -1   0   19.78    4.04
   3   1   0   16.32    3.70
   3   1  -1   37.59    5.81
  -3  -1   1   41.36    6.02
   3   1  -1   32.86    5.27
  -3  -1   2   62.38    7.45
   3   1  -2   62.01    7.41
  -3  -1   3   40.38    6.19
   3   1  -3   47.15    6.61
  -3  -1   4  101.20    9.92
   3   1  -4  107.93   10.38
  -3  -1   5   37.41    6.06
   3   1  -5   39.96    6.52
   3   1  -5   37.78    6.14
  -3  -1   5   36.64    5.93
   3   1  -5   43.95    7.05
  -3  -1   6   55.40    7.38
   3   1  -6   56.17    7.87
  -3  -1   6   55.63    7.32
   3   1  -6   55.08    8.25
  -3  -1   7   49.52    6.89
   3   1  -7   36.81    6.93
  -3  -1   7   46.52    6.49
   3   1  -7   46.91    8.14
   3   1  -8   55.23    8.48
  -3  -1   8   80.03    8.24
  -3  -1   8   92.50   10.47
   3   1  -8   43.72    7.98
  -3  -1   9  113.48   11.26
  -3  -1   9  106.09   10.78
  -3  -1  10   66.07    8.19
   3   1 -10   49.51    7.49
  -3  -1  10   58.84    7.38
  -3  -1  11   62.11    7.27
   3   1 -11   59.52    7.38
  -3  -1  11   55.36    6.48
  -3  -1  12   73.21    6.89
   3   1 -12   75.91    6.84
  -3  -1  12   71.20    6.01
  -3  -1  13   28.27    3.48
   3   1 -13   30.18    3.28
  -3   0  -9    6.97    2.26
   3   0   9   12.39    1.80
  -3   0  -9   11.29    2.85
   3   0   9    8.11    2.26
  -3   0  -8   32.24    5.54
  -3   0  -8   35.70    5.45
  -3   0  -8   39.68    6.59
   3   0   8   46.34    4.41
   3   0   8   30.33    5.07
  -3   0  -7   93.82    7.79
  -3   0  -7  109.20   10.40
  -3   0  -7   79.64    9.49
   3   0   7  117.55    8.33
   3   0   7   71.43    8.49
   3   0   6   29.93    5.70
  -3   0  -6   22.00    4.06
  -3   0  -6   21.14    4.94
   3   0   6   18.95    3.70
   3   0   6   17.63    4.39
   3   0   5    8.45    3.12
   3   0   5    9.27    2.61
  -3   0  -5   10.90    3.08
  -3   0  -5   11.70    3.70
  -3   0  -5   10.30    2.99
  -3   0  -5   10.43    2.77
   3   0   5    4.89    2.40
   3   0   4   10.46    3.50
   3   0   4    9.95    2.80
  -3   0  -4   13.20    2.93
  -3   0  -4   10.43    2.72
  -3   0  -4   14.41    3.16
   3   0   4    8.03    3.10
   3   0   3   -0.54    1.53
   3   0   3    0.98    0.96
  -3   0  -3    0.38    0.91
  -3   0  -3    0.80    0.78
  -3   0  -3    1.88    1.25
  -3   0  -3    0.71    0.88
   3   0   3    1.08    0.86
   3   0   3   -0.36    0.93
   3   0   2   59.83    7.37
  -3   0  -2   74.88    6.27
   3   0   2   70.85    7.96
  -3   0  -1  131.99    7.83
   3   0   1  124.38   10.30
  -3   0   0  185.35    8.89
   3   0   0  176.88   12.06
  -3   0   1   80.99    8.05
  -3   0   1   85.49    5.81
   3   0  -1   76.81    7.82
  -3   0   2  162.81   11.64
   3   0  -2  172.07   11.79
  -3   0   3  205.12   13.64
   3   0  -3  219.50   13.71
  -3   0   4  286.84   16.34
   3   0  -4  311.69   17.06
  -3   0   5  352.15   18.36
   3   0  -5  385.26   20.08
  -3   0   6   63.97    7.84
   3   0  -6   66.80    8.50
  -3   0   6   69.01    8.07
   3   0  -6   64.41    7.73
   3   0  -6   71.32    9.18
  -3   0   7  138.11   11.55
   3   0  -7  140.70   13.14
  -3   0   7  146.71   11.52
   3   0  -7  131.26   11.62
   3   0  -7  148.30   13.93
   3   0  -8   18.89    5.15
   3   0  -8   18.63    4.96
  -3   0   8   28.87    5.00
   3   0  -8   21.36    5.02
   3   0  -9   15.67    4.56
  -3   0   9   24.84    5.20
   3   0  -9   21.85    4.95
  -3   0  10    1.33    1.60
  -3   0  10   -0.14    0.99
   3   0 -10    0.92    0.76
   3   0 -10    2.35    1.47
  -3   0  11    0.45    0.32
  -3   0  11    1.24    1.09
   3   0 -11    4.20    2.10
   3   0 -11    2.62    1.54
  -3   0  12   20.06    3.77
   3   0 -12   16.06    3.24
  -3   0  12   17.25    3.10
   3   0 -12   16.12    2.87
  -3   0  13   20.81    3.18
   3   0 -13   20.77    2.75
  -3   1 -10    0.93    0.92
  -3   1 -10    1.55    1.13
   3  -1   9    4.29    1.23
  -3   1  -9    5.05    2.35
  -3   1  -9    2.15    1.54
  -3   1  -9    3.09    1.65
   3  -1   9    4.12    1.81
   3  -1   8    0.01    0.53
  -3   1  -8    0.44    1.42
  -3   1  -8    1.52    0.73
  -3   1  -8    1.67    2.24
   3  -1   8    0.67    0.82
  -3   1  -7   23.57    3.94
  -3   1  -7   18.99    4.41
   3  -1   7   24.92    4.10
   3  -1   7   22.53    4.78
   3  -1   6   54.60    7.81
  -3   1  -6   49.08    5.78
  -3   1  -6   51.32    7.76
   3  -1   6   31.09    4.94
   3  -1   6   37.32    6.32
   3  -1   5   71.43    8.81
  -3   1  -5   88.62    7.63
  -3   1  -5   62.40    6.49
   3  -1   5   75.58    7.77
   3  -1   5   68.11    8.62
   3  -1   4  129.57   11.64
  -3   1  -4  175.28   10.58
  -3   1  -4  160.43    9.91
  -3   1  -4  160.68   10.13
   3  -1   4  155.61   10.80
   3  -1   4  125.37   11.80
   3  -1   3  148.60   11.92
  -3   1  -3  156.27    9.17
  -3   1  -3  176.18   10.39
   3  -1   3  137.15    9.60
  -3   1  -3  141.77    8.57
   3  -1   3  160.16   12.49
  -3   1  -2  151.16    8.32
  -3   1  -2  165.50    9.02
   3  -1   2  166.85   12.19
  -3   1  -1  215.06    9.54
  -3   1  -1  207.09    9.70
   3  -1   1  213.79   13.29
  -3   1   0   82.97    5.63
  -3   1   0   86.51    6.19
   3  -1   0   81.01    8.03
  -3   1   1  144.43   10.52
  -3   1   1  151.09    7.99
   3  -1  -1  155.82   10.96
  -3   1   2    5.92    2.33
  -3   1   2    2.38    1.06
   3  -1  -3    5.77    1.96
  -3   1   3    7.05    2.28
  -3   1   4   34.15    5.57
   3  -1  -4   41.58    6.07
  -3   1   5   45.24    6.62
   3  -1  -5   50.68    6.94
  -3   1   6   99.19    9.88
  -3   1   6   99.42   10.18
   3  -1  -6   99.58   10.31
  -3   1   6   94.72    9.31
   3  -1  -6   96.59    9.88
   3  -1  -6  103.02   10.49
  -3   1   7  200.94   13.93
  -3   1   7  190.46   14.11
   3  -1  -7  173.32   14.27
  -3   1   7  183.57   12.80
   3  -1  -7  178.28   14.00
   3  -1  -7  192.32   15.17
   3  -1  -8  119.24   12.33
  -3   1   8  148.01   11.13
   3  -1  -8  106.03   11.31
   3  -1  -8  129.27   12.76
   3  -1  -9   60.92    8.82
   3  -1  -9   50.86    7.88
   3  -1 -10   84.47    9.78
   3  -1 -10   98.30   10.18
  -3   1  11  107.33    9.81
   3  -1 -11   87.12    8.86
   3  -1 -11  105.85    9.72
  -3   1  11  107.00    9.05
  -3   1  12   29.87    4.55
   3  -1 -12   29.30    4.12
   3  -1 -12   29.06    4.17
  -3   1  13   29.02    3.66
   3  -1 -13   22.17    2.79
   3  -2  10    4.29    1.02
  -3   2 -10    2.60    1.49
  -3   2 -10    2.45    1.56
  -3   2  -9   46.84    6.83
  -3   2  -9   53.02    6.30
   3  -2   9   62.37    4.88
  -3   2  -8   28.81    5.19
  -3   2  -8   19.65    4.38
   3  -2   8   30.04    4.10
   3  -2   8   19.82    4.04
  -3   2  -7   19.04    4.45
   3  -2   7   23.00    4.13
   3  -2   7   12.75    3.59
   3  -2   6   21.96    5.17
   3  -2   6   13.66    3.31
  -3   2  -6   19.92    3.65
   3  -2   6   15.65    4.04
   3  -2   5    1.21    1.47
   3  -2   5    0.71    0.72
  -3   2  -5   -0.88    0.74
  -3   2  -5    0.34    0.50
   3  -2   5   -1.03    2.26
   3  -2   4   28.76    5.60
  -3   2  -4   27.72    3.97
  -3   2  -4   29.19    4.08
  -3   2  -4   28.72    4.09
   3  -2   4   32.23    4.87
   3  -2   3   14.90    3.73
  -3   2  -3   17.30    2.98
  -3   2  -3   14.77    2.79
   3  -2   3   14.81    3.24
  -3   2  -2   66.78    5.63
  -3   2  -2   71.13    5.96
   3  -2   2   69.00    7.82
  -3   2  -1   75.20    5.70
  -3   2  -1   82.99    6.27
   3  -2   1   74.84    7.77
  -3   2   0  181.75    9.15
   3  -2   0  177.26   11.55
  -3   2   1  339.41   16.32
  -3   2   1  345.95   12.53
  -3   2   1  375.19   14.52
   3  -2  -1  315.24   15.29
  -3   2   2  320.60   16.59
  -3   2   2  327.61   13.23
   3  -2  -2  326.22   15.49
  -3   2   3  101.48    9.62
  -3   2   3  119.64    7.81
   3  -2  -3  111.26    9.17
  -3   2   4  271.86   16.12
   3  -2  -4  278.40   14.93
  -3   2   5  255.27   15.95
   3  -2  -5  269.27   15.36
  -3   2   6  113.48   10.57
  -3   2   6  124.91   11.35
   3  -2  -6  119.61   10.70
  -3   2   6  119.29   11.40
  -3   2   6  118.28   10.45
   3  -2  -6  120.15   10.95
  -3   2   7   73.95    8.49
  -3   2   7   77.24    9.00
   3  -2  -7   82.35    9.34
  -3   2   7   85.17    9.75
  -3   2   7   78.24    8.36
   3  -2  -7   67.03    8.92
  -3   2   8  132.00   12.30
  -3   2   8  113.55   10.65
   3  -2  -8  120.75   11.71
  -3   2   8  113.52   11.06
  -3   2   8  119.87   10.11
   3  -2  -8   85.74   10.22
  -3   2   9   22.53    4.63
  -3   2   9   23.23    5.04
   3  -2  -9   19.99    4.64
  -3   2   9   24.84    4.23
   3  -2  -9    7.76    3.16
  -3   2  10    5.30    2.17
   3  -2 -10    3.00    1.73
   3  -2 -10    4.13    1.93
   3  -2 -10    3.68    1.88
  -3   2  11   14.19    3.56
   3  -2 -11   16.21    3.20
   3  -2 -11   13.26    3.43
  -3   2  12   47.03    5.56
   3  -2 -12   40.55    4.21
   3  -2 -12   45.58    5.36
  -3   2  13   74.71    5.74
   3  -2 -13   64.78    4.84
  -3   3 -10   14.10    3.07
   3  -3  10   13.09    1.75
   3  -3   9    2.26    0.94
  -3   3  -9    3.62    1.98
  -3   3  -9    5.34    2.23
  -3   3  -8   56.11    6.97
   3  -3   8   50.49    5.17
  -3   3  -7   79.37    8.83
   3  -3   7   74.41    6.98
   3  -3   7   61.39    7.56
   3  -3   6   42.94    5.62
   3  -3   6   56.24    7.63
   3  -3   5   39.13    6.39
  -3   3  -5   38.22    4.79
   3  -3   5   30.03    4.80
   3  -3   4   46.01    6.85
   3  -3   4   38.42    6.83
  -3   3  -4   50.73    5.39
  -3   3  -4   48.15    5.20
   3  -3   4   45.00    5.70
   3  -3   3  253.21   15.50
  -3   3  -3  259.28   11.73
  -3   3  -3  269.53   11.95
   3  -3   3  228.27   12.09
  -3   3  -2  134.32    8.07
  -3   3  -2  142.50    8.60
   3  -3   2  152.29   11.67
  -3   3  -1   51.67    5.09
  -3   3  -1   59.78    6.18
   3  -3   1   51.53    6.41
  -3   3   0   74.56    6.10
  -3   3   0   81.73    7.01
   3  -3   0   63.64    6.94
  -3   3   1    4.54    1.95
  -3   3   1    8.60    2.20
   3  -3  -1    8.65    2.60
  -3   3   2  129.45   10.76
  -3   3   2  131.94    8.76
   3  -3  -2  127.72    9.54
  -3   3   3    1.83    1.03
  -3   3   3    0.84    0.49
   3  -3  -3    2.84    1.41
  -3   3   4   47.72    6.81
  -3   3   4   51.04    5.31
  -3   3   5   49.53    7.02
  -3   3   5   60.52    7.80
   3  -3  -5   40.00    5.12
   3  -3  -5   54.06    6.91
  -3   3   6  244.18   15.56
  -3   3   6  262.05   16.46
  -3   3   6  238.38   16.33
   3  -3  -6  256.31   14.26
   3  -3  -6  267.02   16.26
  -3   3   7  405.00   19.86
  -3   3   7  408.12   20.32
  -3   3   7  415.23   21.45
   3  -3  -7  380.89   18.51
   3  -3  -7  411.58   21.43
  -3   3   8   92.92    9.51
  -3   3   8   99.18   10.26
  -3   3   8   96.63    8.87
   3  -3  -8   81.90    8.92
   3  -3  -8   85.58   10.26
  -3   3   9   23.48    4.54
  -3   3   9   25.46    4.96
  -3   3   9   27.43    4.35
   3  -3  -9   14.82    3.78
   3  -3  -9   18.60    3.62
   3  -3  -9   14.73    4.04
   3  -3 -10   59.72    7.12
   3  -3 -10   60.51    5.87
   3  -3 -10   55.65    7.71
  -3   3  11   75.58    7.76
   3  -3 -11   64.55    6.52
   3  -3 -11   64.03    7.37
  -3   3  12    8.39    2.28
   3  -3 -12    5.45    1.48
   3  -3 -12    7.91    2.09
   3  -4  10    0.69    0.44
  -3   4  -9   57.89    7.15
   3  -4   9   71.42    4.76
   3  -4   8    7.39    1.84
  -3   4  -8    4.55    1.70
   3  -4   7    2.47    1.22
   3  -4   6    1.51    0.93
   3  -4   5    5.16    2.09
  -3   4  -5   11.81    2.67
  -3   4  -5   10.92    2.41
   3  -4   5   10.21    2.50
   3  -4   4    1.05    0.45
  -3   4  -4    2.60    1.24
  -3   4  -4    1.49    0.66
   3  -4   4    0.88    0.51
   3  -4   3   58.04    8.85
  -3   4  -3   53.72    5.44
  -3   4  -3   52.88    5.41
   3  -4   3   57.71    6.03
   3  -4   3   60.69    6.14
  -3   4  -2  115.89    7.72
  -3   4  -2  118.23    8.06
  -3   4  -2  122.55    9.10
   3  -4   2   93.52    7.25
   3  -4   2  107.52    7.88
  -3   4  -1  114.26    7.92
  -3   4  -1  122.24    9.00
   3  -4   1  124.61   10.31
  -3   4   0  149.81    9.88
   3  -4   0  129.28   12.63
   3  -4   0  147.69   10.84
  -3   4   1  292.25   13.82
   3  -4  -1  260.34   17.73
  -3   4   2  189.56   13.61
  -3   4   2  205.19   13.69
  -3   4   2  223.09   12.19
   3  -4  -2  222.26   16.03
  -3   4   3   71.83    8.54
  -3   4   3   83.87    8.60
  -3   4   3   78.40    7.22
   3  -4  -3   96.08   10.07
  -3   4   4   76.28    8.96
   3  -4  -4   90.79    7.79
  -3   4   4   84.22    7.42
   3  -4  -4   72.04    6.49
  -3   4   5   52.45    7.35
  -3   4   5   51.46    7.64
   3  -4  -5   62.35    6.79
  -3   4   5   50.32    5.58
   3  -4  -5   48.35    5.45
   3  -4  -5   56.57    6.96
  -3   4   6    4.62    1.72
  -3   4   6    4.88    2.50
  -3   4   6    6.49    2.63
   3  -4  -6    5.05    1.78
   3  -4  -6    4.69    1.82
   3  -4  -6    5.52    2.09
  -3   4   7   20.27    4.57
  -3   4   7   17.56    4.44
  -3   4   7   18.28    4.34
   3  -4  -7   17.82    4.06
   3  -4  -7    9.97    2.50
   3  -4  -7   15.40    3.92
  -3   4   8   65.49    7.77
  -3   4   8   63.01    8.18
  -3   4   8   57.71    7.62
   3  -4  -8   54.78    7.28
   3  -4  -8   43.78    5.26
   3  -4  -8   52.74    7.69
  -3   4   9    0.10    0.50
  -3   4   9    0.33    0.59
   3  -4  -9   -0.10    0.61
   3  -4  -9    1.43    1.02
  -3   4  10   47.22    5.69
  -3   4  10   48.13    6.09
   3  -4 -10   45.75    5.95
   3  -4 -10   42.16    6.18
  -3   4  11   41.04    5.33
   3  -4 -11   36.04    4.62
   3  -4 -11   37.12    5.05
  -3   4  12   36.10    4.26
   3  -4 -12   32.56    3.49
   3  -4 -12   30.23    3.61
  -3   5  -9    8.70    2.22
   3  -5   9   13.03    1.75
   3  -5   8   21.45    2.76
   3  -5   7   21.18    4.41
   3  -5   7   28.59    3.71
   3  -5   7   28.89    3.64
   3  -5   6   44.89    5.11
   3  -5   6   55.26    5.71
   3  -5   5   23.01    5.73
   3  -5   5   35.85    4.72
   3  -5   4   32.59    6.58
  -3   5  -4   45.30    5.11
  -3   5  -4   50.21    5.26
   3  -5   4   37.25    4.83
   3  -5   4   50.66    5.86
   3  -5   3   64.86    9.39
  -3   5  -3   72.08    6.35
  -3   5  -3   73.95    6.49
  -3   5  -3   91.03    8.12
   3  -5   3   66.75    6.42
   3  -5   3   83.78    7.43
   3  -5   2    2.63    2.11
   3  -5   2    4.13    1.75
  -3   5  -2    1.98    1.09
  -3   5  -2    1.90    1.10
   3  -5   2    3.36    1.55
  -3   5  -1   38.22    6.01
   3  -5   1   42.63    5.53
  -3   5  -1   38.13    4.70
  -3   5  -1   44.50    5.62
   3  -5   1   31.07    7.06
   3  -5   1   40.97    4.92
   3  -5   1   29.99    6.30
   3  -5   0   14.81    4.38
  -3   5   0   14.70    3.82
   3  -5   0   16.19    3.28
  -3   5   0   14.13    3.22
   3  -5   0   14.63    4.78
   3  -5   0   12.37    2.60
   3  -5  -1    3.70    2.21
  -3   5   1    0.19    0.39
   3  -5  -1    2.21    1.07
  -3   5   1    0.46    0.28
   3  -5  -1    1.29    2.15
   3  -5  -1    1.50    0.97
  -3   5   2   41.08    6.68
  -3   5   2   37.98    6.14
   3  -5  -2   49.53    5.64
  -3   5   2   45.44    5.89
   3  -5  -2   48.72    8.26
   3  -5  -2   40.84    4.79
   3  -5  -2   43.31    7.43
  -3   5   3   39.36    6.94
  -3   5   3   45.64    6.60
   3  -5  -3   51.66    5.86
   3  -5  -3   41.37    4.89
   3  -5  -3   56.39    8.11
  -3   5   4   72.92    9.14
  -3   5   4   77.54    9.59
  -3   5   4  102.89    9.65
   3  -5  -4  100.11    8.40
   3  -5  -4   85.32    7.13
  -3   5   5  124.91   11.86
  -3   5   5  144.29   12.95
  -3   5   5  156.45   11.34
   3  -5  -5  150.46   10.85
   3  -5  -5  112.18    8.22
  -3   5   6   74.66    9.07
   3  -5  -6   83.95    8.36
   3  -5  -6   67.62    6.38
  -3   5   7   91.10    9.41
  -3   5   7   89.96    9.94
  -3   5   7   83.52    9.34
   3  -5  -7   87.10    8.67
   3  -5  -7   83.50    8.77
  -3   5   8   55.59    6.88
  -3   5   8   54.28    7.41
  -3   5   8   55.55    7.33
   3  -5  -8   50.59    6.63
   3  -5  -8   47.71    6.52
  -3   5   9   58.71    6.54
  -3   5   9   52.97    6.60
   3  -5  -9   54.55    6.56
   3  -5  -9   56.64    6.84
  -3   5  10   14.48    2.90
  -3   5  10   13.57    3.08
   3  -5 -10   13.44    2.90
   3  -5 -10   11.17    2.84
  -3   5  11    7.31    2.10
   3  -5 -11    6.62    1.83
   3  -6   8    1.34    0.74
   3  -6   7    7.81    3.29
   3  -6   7    7.67    1.86
   3  -6   6   20.11    5.05
   3  -6   6   26.71    3.74
   3  -6   5    8.33    3.50
   3  -6   5   10.02    2.52
   3  -6   4   26.07    6.50
   3  -6   4   34.99    4.83
   3  -6   3   28.90    6.65
  -3   6  -3   20.24    3.34
   3  -6   3   25.05    4.02
  -3   6  -2   12.89    2.72
   3  -6   2    7.95    3.60
   3  -6   2   15.36    3.16
   3  -6   1  228.45   12.90
  -3   6  -1  222.58   11.51
  -3   6  -1  209.73   12.48
   3  -6   1  237.71   12.25
  -3   6   0  110.05   11.26
   3  -6   0  118.72    9.05
  -3   6   0  113.50    9.38
   3  -6   0  143.81    9.43
   3  -6   0  106.14   12.19
   3  -6  -1   21.36    5.44
  -3   6   1   21.40    4.93
   3  -6  -1   32.06    4.77
  -3   6   1   22.32    4.29
   3  -6  -1   20.25    6.03
   3  -6  -1   29.96    4.30
   3  -6  -2    8.47    3.50
   3  -6  -2   13.16    3.54
  -3   6   2    9.95    3.46
   3  -6  -2   12.76    2.90
  -3   6   2    9.13    2.78
   3  -6  -2    8.37    3.15
   3  -6  -2   13.41    2.86
   3  -6  -3   64.72    7.78
   3  -6  -3   58.61    6.39
   3  -6  -3   58.25    5.84
  -3   6   4    9.77    3.38
   3  -6  -4   13.76    3.63
   3  -6  -4   12.64    3.08
   3  -6  -4   15.68    3.01
  -3   6   5   31.68    5.98
   3  -6  -5   41.86    5.68
   3  -6  -5   37.75    4.65
  -3   6   6   26.35    5.34
  -3   6   6   26.02    5.22
   3  -6  -6   27.87    4.71
  -3   6   7    9.96    2.96
  -3   6   7   11.63    3.59
  -3   6   7    8.54    2.94
   3  -6  -7    9.43    2.83
  -3   6   8   11.01    2.81
  -3   6   8   13.72    3.53
  -3   6   8   13.58    3.34
   3  -6  -8   11.44    2.85
  -3   6   9   30.15    4.22
  -3   6   9   27.00    4.57
  -3   6   9   30.28    4.60
   3  -6  -9   27.73    4.22
  -3   6  10   19.40    2.92
  -3   6  10   18.74    3.14
   3  -6 -10   20.91    3.21
   3  -6 -11    6.95    1.46
   3  -7   7   35.39    3.46
   3  -7   6   32.15    3.75
   3  -7   5    3.12    2.62
   3  -7   5    2.60    1.34
   3  -7   4    0.13    0.76
   3  -7   3    2.81    2.14
   3  -7   3    4.28    1.73
   3  -7   2    3.37    2.17
   3  -7   2    5.51    1.89
   3  -7   1   66.76    7.03
   3  -7   1   76.02    7.01
   3  -7   0  204.99   11.94
   3  -7   0  227.56   12.00
   3  -7  -1   23.61    4.16
   3  -7  -1   28.26    4.25
   3  -7  -2   15.84    3.78
   3  -7  -2   15.84    3.29
   3  -7  -2   16.19    4.66
   3  -7  -2   20.12    3.53
   3  -7  -3   26.87    4.91
   3  -7  -3   22.37    3.86
   3  -7  -3   24.59    3.77
  -3   7   4    9.00    3.22
   3  -7  -4   18.51    4.12
   3  -7  -4   15.28    3.23
  -3   7   5  105.47   10.68
   3  -7  -5  116.09   10.21
   3  -7  -5  118.15    9.09
  -3   7   6   34.49    5.85
  -3   7   6   35.74    6.02
   3  -7  -6   35.53    5.58
   3  -7  -6   39.32    5.14
  -3   7   7   22.03    4.16
  -3   7   7   19.60    4.11
  -3   7   7   22.67    4.37
   3  -7  -7   23.27    3.87
  -3   7   8   12.65    2.74
  -3   7   8    9.99    2.73
  -3   7   8   12.38    3.00
   3  -7  -8   13.20    2.71
  -3   7   9   12.74    2.41
  -3   7   9   10.37    2.35
   3  -7  -9   11.24    2.28
   3  -8   7    1.18    0.68
   3  -8   6   30.09    3.15
   3  -8   5    4.71    1.40
   3  -8   4   32.17    3.98
   3  -8   3   11.34    3.68
   3  -8   3   14.60    2.85
   3  -8   2    4.93    2.42
   3  -8   2    5.02    1.74
   3  -8   1   51.61    8.60
   3  -8   1   77.36    6.83
   3  -8   0   23.79    3.98
   3  -8   0   15.15    4.77
   3  -8   0   27.15    3.95
   3  -8  -1    5.35    1.96
   3  -8  -1    2.95    2.08
   3  -8  -1    3.32    1.35
   3  -8  -2    6.61    1.98
   3  -8  -2    5.05    2.37
   3  -8  -3    8.65    2.62
   3  -8  -3   11.31    2.69
  -3   8   4    4.94    2.21
   3  -8  -4    3.78    1.92
   3  -8  -4    4.04    1.56
  -3   8   5   -0.75    1.30
  -3   8   5    0.58    0.76
   3  -8  -5    0.05    0.78
   3  -8  -5    0.20    0.52
  -3   8   6   17.21    3.68
  -3   8   6   15.22    3.45
   3  -8  -6   14.01    3.18
   3  -8  -6   18.34    3.10
  -3   8   7    0.84    0.77
  -3   8   7    1.53    1.14
  -3   8   7    2.45    1.25
   3  -8  -7    2.17    1.17
   3  -8  -7    1.91    1.04
  -3   8   8    5.42    1.63
  -3   8   8    4.11    1.46
  -3   8   8    5.30    1.59
   3  -8  -8    6.37    1.52
   3  -9   5    0.98    0.61
   3  -9   4    0.27    0.31
   3  -9   3    0.27    0.42
   3  -9   2    9.86    2.98
   3  -9   2   15.62    2.58
   3  -9   1   -0.01    0.66
   3  -9   1    1.28    0.86
   3  -9   0   17.61    4.50
   3  -9  -1    2.29    1.32
   3  -9  -1    0.38    1.26
   3  -9  -2   28.29    3.89
   3  -9  -2   25.32    5.01
   3  -9  -3   14.42    2.70
  -3   9   4    7.08    2.26
   3  -9  -4    9.48    2.08
  -3   9   5   18.87    3.57
  -3   9   5   17.89    3.56
   3  -9  -5   18.77    2.85
  -3   9   6    1.34    0.75
  -3   9   6    2.97    1.25
  -3   9   6    2.56    1.15
   3  -9  -6    3.02    1.03
  -4  -4  -1    1.35    0.88
   4   4   0    1.52    0.67
  -4  -4   0    1.22    0.90
   4   4  -1    8.84    2.25
  -4  -4   1    3.73    1.32
  -4  -4   1    7.71    2.01
   4   4  -2    3.91    1.62
  -4  -4   2    5.09    1.84
   4   4  -3    4.62    1.70
  -4  -4   3    5.38    1.82
   4   4  -4   16.77    3.37
  -4  -4   4   13.95    2.93
   4   4  -5    5.70    1.83
  -4  -4   5    7.12    1.98
   4   4  -6   12.06    2.62
  -4  -4   6   10.86    2.34
  -4  -3  -3    1.27    1.10
   4   3   2   24.27    3.90
  -4  -3  -2   31.30    4.74
   4   3   2   17.02    3.52
   4   3   1    3.07    1.66
  -4  -3  -1    3.57    1.94
   4   3   0    8.13    2.72
  -4  -3   0    8.58    2.82
   4   3  -1    5.53    1.99
  -4  -3   1    1.94    1.58
  -4  -3   1    6.51    2.22
   4   3  -2    0.23    0.52
  -4  -3   2    2.60    1.42
  -4  -3   2    3.25    2.09
   4   3  -3   -1.26    1.46
  -4  -3   3    1.62    1.29
   4   3  -4    1.65    1.25
  -4  -3   4    0.70    0.77
   4   3  -5    9.34    2.64
  -4  -3   5    9.19    2.65
   4   3  -6    3.15    1.51
  -4  -3   6    1.13    0.69
  -4  -3   6    3.50    1.37
   4   3  -7    4.67    1.72
  -4  -3   7    9.91    2.36
  -4  -3   7    8.18    2.09
   4   3  -8   12.73    2.56
  -4  -3   8   11.97    2.18
  -4  -3   8    9.20    2.22
   4   2   4    0.24    0.84
  -4  -2  -4    1.72    1.38
   4   2   4   -0.08    0.34
   4   2   3    2.45    1.33
   4   2   3    4.29    1.84
  -4  -2  -3    5.93    2.35
   4   2   2    1.56    1.03
  -4  -2  -2    2.55    1.61
   4   2   1   61.25    7.27
  -4  -2  -1   56.21    5.47
   4   2   0    6.67    2.43
  -4  -2   0    8.92    2.61
   4   2  -1    9.96    3.01
  -4  -2   1    8.66    2.60
  -4  -2   1   12.56    2.85
   4   2  -2   19.25    4.35
  -4  -2   2   16.76    3.86
  -4  -2   2   16.69    3.22
   4   2  -3   22.82    4.69
  -4  -2   3   20.32    4.30
   4   2  -4   67.71    8.11
  -4  -2   4   66.02    7.75
   4   2  -5    8.79    2.76
  -4  -2   5   14.50    3.52
   4   2  -6    4.14    1.83
  -4  -2   6    5.35    2.11
  -4  -2   6    5.00    1.90
  -4  -2   7    6.02    2.14
  -4  -2   7    7.08    2.27
   4   2  -8    0.51    0.88
  -4  -2   8    2.37    1.12
  -4  -2   8    2.73    1.15
  -4  -2   9    0.97    0.69
  -4  -1  -5    1.51    1.47
  -4  -1  -5    5.91    1.84
   4   1   4    2.54    1.30
  -4  -1  -4    2.09    1.49
   4   1   3    6.84    2.21
  -4  -1  -3   11.32    2.81
  -4  -1  -3    6.83    2.27
  -4  -1  -3    8.16    2.46
   4   1   2  112.92    9.93
  -4  -1  -2  109.61    8.16
  -4  -1  -2  101.73    8.36
   4   1   1    4.33    2.01
  -4  -1  -1    3.85    1.79
  -4  -1  -1    5.82    2.18
   4   1   0    0.70    1.18
  -4  -1   0    1.84    0.97
  -4  -1   0    3.82    2.23
   4   1  -1    1.40    0.34
  -4  -1   1    1.16    1.24
  -4  -1   1    0.30    1.01
  -4  -1   1    3.25    1.87
   4   1  -2    1.94    1.19
   4   1  -2   -0.08    0.61
  -4  -1   2    2.32    1.74
   4   1  -3   -0.43    1.14
  -4  -1   3    1.98    1.68
  -4  -1   3    1.40    1.46
  -4  -1   3    3.16    1.61
   4   1  -3    0.52    0.48
   4   1  -4    5.90    2.57
  -4  -1   4   11.45    3.51
  -4  -1   4   12.53    2.87
   4   1  -5   54.23    7.40
  -4  -1   5   59.38    7.40
  -4  -1   6   14.50    3.75
   4   1  -6    7.14    2.68
  -4  -1   6   17.78    3.90
   4   1  -7    9.85    2.82
  -4  -1   7   35.33    5.15
   4   1  -7   14.93    2.84
  -4  -1   7   37.55    5.65
  -4  -1   8   27.12    4.00
  -4  -1   8   29.18    4.63
  -4  -1   9   24.49    3.21
   4   1  -9   13.53    2.41
  -4  -1   9   24.10    3.80
   4   1 -10    5.47    1.33
  -4  -1  10   11.31    2.32
  -4   0  -6   -0.31    0.58
  -4   0  -6    1.00    1.11
  -4   0  -5    1.57    1.02
  -4   0  -5    0.28    0.88
  -4   0  -5    1.60    1.40
  -4   0  -5    2.02    1.12
   4   0   4    3.05    1.44
   4   0   4    2.22    1.13
  -4   0  -4    4.12    1.85
  -4   0  -4    4.89    2.24
  -4   0  -4    4.67    1.85
   4   0   3   -0.49    1.17
   4   0   3   -0.75    1.11
  -4   0  -3    0.48    1.06
  -4   0  -3    0.83    1.44
  -4   0  -3    1.13    1.54
   4   0   2   11.79    3.27
   4   0   2   10.85    2.56
  -4   0  -2   11.15    2.57
  -4   0  -2    9.79    3.22
  -4   0  -2   11.15    3.07
   4   0   1   74.74    8.33
  -4   0  -1   97.26    7.89
  -4   0  -1   81.40    8.80
  -4   0  -1   81.17    7.70
   4   0   1   77.05    6.93
   4   0   0   16.84    4.26
  -4   0   0   19.96    3.46
  -4   0   0   19.16    4.08
  -4   0   0   18.95    3.88
   4   0   0   16.22    3.12
   4   0  -1   49.43    6.95
  -4   0   1   54.07    6.45
  -4   0   1   52.01    6.13
   4   0  -1   38.05    4.75
   4   0  -2   31.38    5.63
  -4   0   2   27.83    4.97
  -4   0   2   35.03    5.18
  -4   0   2   37.12    4.97
   4   0  -2   24.35    3.75
   4   0  -3   46.57    6.83
  -4   0   3   45.63    6.69
  -4   0   3   49.60    6.00
  -4   0   3   54.05    5.71
   4   0  -4   38.47    6.21
  -4   0   4   45.15    6.71
  -4   0   4   45.43    5.50
  -4   0   5    7.99    3.11
   4   0  -5    5.68    2.32
  -4   0   5    5.16    2.16
  -4   0   5    7.04    1.92
   4   0  -5    4.41    1.77
  -4   0   6    3.51    0.81
  -4   0   6    5.88    2.44
   4   0  -6    2.82    1.37
  -4   0   7    0.63    0.51
  -4   0   7    0.97    0.87
   4   0  -7    0.53    0.70
  -4   0   8   -0.28    0.56
   4   0  -8    0.12    0.42
  -4   0   9    8.50    2.56
  -4   0   9    8.23    2.01
   4   0  -9    2.87    1.27
  -4   0  10    7.55    1.98
   4   0 -10    5.61    1.51
  -4   1  -6   11.33    2.68
  -4   1  -6    9.20    2.47
   4  -1   6   13.80    2.05
   4  -1   5    8.18    1.92
  -4   1  -5   11.55    2.68
  -4   1  -5   10.42    3.17
  -4   1  -5    7.95    1.91
   4  -1   4   25.38    4.47
  -4   1  -4   26.48    4.01
  -4   1  -4   27.08    4.89
  -4   1  -4   25.40    3.90
   4  -1   4   18.54    3.19
   4  -1   3    6.90    2.46
   4  -1   3    6.47    1.92
  -4   1  -3    6.58    2.15
  -4   1  -3    6.85    2.19
  -4   1  -3    7.49    2.31
   4  -1   2    9.74    3.02
   4  -1   2   12.47    2.76
  -4   1  -2   14.19    2.79
  -4   1  -2   12.39    2.99
   4  -1   1    2.27    1.42
   4  -1   1    2.00    1.36
  -4   1  -1    3.33    1.50
  -4   1  -1    0.99    0.79
   4  -1   0    2.50    1.65
   4  -1   0    2.21    1.18
  -4   1   0    1.35    0.99
  -4   1   0    0.79    0.34
   4  -1  -1    2.72    1.95
  -4   1   1    4.19    1.84
   4  -1  -1    3.44    1.49
  -4   1   1    6.07    1.91
   4  -1  -2   12.94    3.60
  -4   1   2   10.12    3.21
  -4   1   2   13.73    3.22
  -4   1   2   12.78    2.82
   4  -1  -2    8.45    2.30
  -4   1   3   15.10    3.77
  -4   1   3   17.94    3.58
  -4   1   3   16.59    3.05
   4  -1  -3   11.26    2.56
  -4   1   4   28.43    5.35
  -4   1   4   30.82    4.56
  -4   1   4   38.94    4.50
   4  -1  -4   25.92    4.03
  -4   1   5   60.00    7.56
  -4   1   5   61.07    6.11
   4  -1  -5   42.84    5.20
  -4   1   6   48.06    6.58
  -4   1   6   46.52    4.89
   4  -1  -6   35.37    4.98
  -4   1   7   98.30    8.80
   4  -1  -7   50.32    5.88
  -4   1   8   -0.34    0.42
  -4   1   8    0.90    0.41
   4  -1  -8    0.25    0.69
  -4   1   9   42.07    4.57
  -4   1   9   41.34    5.45
  -4   1  10   15.18    2.77
   4  -1 -10   10.45    2.10
   4  -2   6    2.06    0.87
  -4   2  -6    4.22    1.58
  -4   2  -6    1.36    0.65
  -4   2  -6    2.33    1.65
   4  -2   5    1.70    0.98
  -4   2  -5    0.59    1.18
  -4   2  -5   -0.09    0.49
   4  -2   4    2.60    1.57
   4  -2   4    0.89    1.20
  -4   2  -4    0.76    0.98
  -4   2  -4    0.20    1.43
  -4   2  -4    1.51    0.70
   4  -2   3   37.05    5.66
  -4   2  -3   41.84    5.01
  -4   2  -3   43.63    5.26
   4  -2   3   40.10    5.02
   4  -2   2   32.41    5.32
  -4   2  -2   30.29    4.49
  -4   2  -2   41.83    5.22
   4  -2   2   31.30    4.48
   4  -2   1   33.32    5.65
  -4   2  -1   37.84    5.13
  -4   2  -1   39.54    5.18
   4  -2   1   30.51    4.46
   4  -2   0   64.56    7.70
  -4   2   0   69.08    7.12
   4  -2   0   47.50    5.29
  -4   2   1   73.29    7.47
   4  -2  -1   53.89    5.79
   4  -2  -1   57.44    5.54
  -4   2   2    2.80    1.42
  -4   2   2    0.52    1.03
   4  -2  -2    1.54    1.62
   4  -2  -2    1.95    1.17
  -4   2   3   39.28    6.31
  -4   2   3   29.59    4.60
   4  -2  -3   30.31    4.23
  -4   2   4   17.96    4.25
  -4   2   4   19.81    3.62
   4  -2  -4   17.55    3.39
  -4   2   5    9.44    3.01
  -4   2   5   10.23    2.40
   4  -2  -5    8.80    2.52
  -4   2   6    1.38    1.33
  -4   2   6    0.09    0.72
   4  -2  -6    0.70    0.81
  -4   2   7   73.43    7.60
   4  -2  -7   45.11    5.53
  -4   2   8    8.48    2.25
   4  -2  -8    5.47    1.82
  -4   2   9    1.34    0.86
   4  -2  -9    0.38    0.31
  -4   2  10   13.35    2.55
   4  -2 -10   11.10    2.08
   4  -3   6    3.76    1.03
  -4   3  -6    4.32    2.09
   4  -3   5    0.42    0.49
  -4   3  -5    2.02    1.15
  -4   3  -5   -0.62    1.73
  -4   3  -4   28.23    3.82
   4  -3   4   19.42    3.31
   4  -3   3    9.92    2.93
   4  -3   3    9.38    2.39
  -4   3  -3   11.38    2.47
  -4   3  -3   10.38    2.42
   4  -3   2    1.14    1.00
  -4   3  -2   -0.04    0.78
   4  -3   1    0.38    0.57
  -4   3  -1    0.84    0.27
   4  -3   0    0.93    0.98
  -4   3   0   -0.54    1.66
   4  -3   0    0.68    0.69
  -4   3   1   49.17    5.92
   4  -3  -1   41.66    5.04
   4  -3  -1   50.62    5.22
  -4   3   2   28.11    5.23
   4  -3  -2   19.13    3.26
   4  -3  -2   22.19    3.62
  -4   3   3   13.99    3.73
   4  -3  -3   13.50    2.84
  -4   3   4   32.65    5.80
   4  -3  -4   28.43    4.24
  -4   3   5   62.14    7.73
   4  -3  -5   62.27    6.33
  -4   3   6   69.10    7.80
   4  -3  -6   58.88    6.21
  -4   3   7   71.44    7.43
   4  -3  -7   52.04    5.91
  -4   3   8    1.83    1.19
   4  -3  -8    0.89    0.81
  -4   3   9   22.92    3.28
   4  -3  -9   16.60    2.79
  -4   3  10    6.24    1.83
   4  -3 -10    4.92    1.21
   4  -4   6    4.16    1.11
  -4   4  -6    2.91    1.14
   4  -4   5    4.45    1.43
   4  -4   4    4.69    1.57
  -4   4  -4    9.52    2.28
  -4   4  -3   49.94    5.34
   4  -4   3   43.42    4.79
   4  -4   2   14.50    2.89
   4  -4   2   14.25    2.70
  -4   4  -1   31.70    4.55
   4  -4   1   35.97    4.50
   4  -4   1   36.73    4.38
  -4   4   0   20.55    3.63
   4  -4   0   18.05    3.23
   4  -4   0   21.76    3.43
   4  -4  -1   37.91    4.63
   4  -4  -1   46.08    5.03
  -4   4   2    6.82    2.69
   4  -4  -2    4.92    1.65
   4  -4  -2    5.29    1.81
  -4   4   3    2.03    1.21
   4  -4  -3    3.19    1.26
   4  -4  -3    4.91    1.80
  -4   4   4    1.05    1.16
   4  -4  -4    1.16    0.80
  -4   4   5    3.43    1.88
  -4   4   5    2.41    1.26
   4  -4  -5    4.44    1.53
  -4   4   6    1.68    0.92
  -4   4   6    1.73    1.00
   4  -4  -6    0.75    0.96
  -4   4   7   34.04    5.26
  -4   4   7   29.70    4.54
   4  -4  -7   25.57    3.82
  -4   4   8   13.99    2.82
   4  -4  -8    9.11    2.14
  -4   4   9   21.33    2.96
   4  -4  -9   18.68    2.67
   4  -5   5    1.72    0.82
   4  -5   4    0.30    0.77
   4  -5   4    2.98    1.18
   4  -5   3    0.18    0.32
  -4   5  -3    0.01    1.09
   4  -5   3    1.64    0.90
   4  -5   2    1.85    1.11
   4  -5   2    1.34    0.89
   4  -5   1   21.58    3.58
   4  -5   1   21.07    3.29
   4  -5   0   11.27    2.39
   4  -5   0   17.09    3.03
   4  -5  -1   17.76    2.97
   4  -5  -1   18.88    3.26
   4  -5  -2   12.43    2.41
   4  -5  -2   18.57    3.24
  -4   5   3   28.35    5.15
   4  -5  -3   33.00    3.99
   4  -5  -3   43.72    4.94
  -4   5   4   21.04    4.48
  -4   5   4   19.47    4.22
   4  -5  -4   26.36    3.52
   4  -5  -4   30.17    4.17
  -4   5   5   41.78    6.15
  -4   5   5   33.47    5.36
   4  -5  -5   52.63    5.82
   4  -5  -5   49.85    5.35
  -4   5   6    8.09    2.47
  -4   5   6    7.34    2.42
   4  -5  -6    6.53    2.09
   4  -5  -6    6.19    1.80
  -4   5   7   10.30    2.69
  -4   5   7   11.40    2.66
   4  -5  -7    5.96    1.75
   4  -5  -7    9.13    2.09
  -4   5   8    5.30    1.59
   4  -5  -8    3.17    1.11
   4  -5  -8    3.93    1.13
  -4   5   9    0.75    0.61
   4  -6   4    4.41    1.29
   4  -6   3    6.08    1.60
   4  -6   2   16.17    2.72
   4  -6   1  110.58    7.43
   4  -6   0    6.29    1.94
   4  -6  -1    0.82    0.80
   4  -6  -2    2.29    1.34
   4  -6  -2    3.11    1.39
  -4   6   3    1.40    0.69
   4  -6  -3    0.22    0.44
   4  -6  -3    0.18    0.39
  -4   6   4    2.20    1.52
  -4   6   4    2.48    1.20
   4  -6  -4    4.52    1.65
   4  -6  -4    4.56    1.52
  -4   6   5   18.73    3.83
   4  -6  -5   30.41    4.35
   4  -6  -5   25.68    3.57
  -4   6   6   16.00    3.32
  -4   6   6   14.35    3.14
   4  -6  -6   23.20    3.67
   4  -6  -6   20.44    3.03
  -4   6   7   14.22    2.88
  -4   6   7   13.31    2.63
   4  -6  -7   11.57    2.39
   4  -6  -7   15.07    2.31
  -4   6   8   11.88    2.13
   4  -7   4    1.59    0.55
   4  -7   3    1.86    0.89
   4  -7   2    7.57    1.79
   4  -7   1   46.53    4.52
   4  -7   0   37.01    4.16
   4  -7  -1    5.15    1.54
   4  -7  -2    7.69    2.12
   4  -7  -2    7.67    1.86
  -4   7   3   10.24    2.70
   4  -7  -3   15.68    2.97
   4  -7  -3   18.99    3.01
  -4   7   4    5.77    2.08
  -4   7   4    6.50    2.20
   4  -7  -4   15.91    2.98
   4  -7  -4   14.86    2.58
  -4   7   5   11.03    2.63
  -4   7   5   10.71    2.56
   4  -7  -5   27.20    3.78
   4  -7  -5   30.34    3.47
  -4   7   6    0.85    0.62
  -4   7   6    0.08    0.49
   4  -7  -6    0.54    0.71
  -4   7   7    1.46    0.84
   4  -8   2    1.84    0.87
   4  -8   1   15.43    2.30
   4  -8   0    4.13    1.24
   4  -8  -1    0.09    0.47
   4  -8  -2   -0.45    0.56
   4  -8  -3    4.55    1.31
   4  -8  -4    2.62    1.15
   0   0   0    0.00    0.00
;
_shelx_hkl_checksum              9299
_shelx_res_file
;
    nitro1c.res created by SHELXL-2014/7
TITL nitro1c in P-1
CELL 1.54184   4.0502   9.3817  12.1823  93.498  99.284 101.722
ZERR    2.00   0.0005   0.0006   0.0005   0.004   0.004   0.005
LATT  1
SFAC C H N O BR
UNIT 16 16 4 4 2
ACTA
L.S. 20
BOND $H
CONF
FMAP 2
PLAN 10
EQIV $1 -x+1, -y+1, -z
EQIV $2 -x, -y+2, -z
HTAB C4 O1_$1
HTAB C6 O2_$2
WGHT    0.068600    0.211600
FVAR       1.00303
BR1   5    0.116000    0.720523    0.459937    11.00000    0.08500    0.09978 =
         0.05358    0.00408    0.01967    0.02069
N1    3    0.297657    0.762169   -0.022562    11.00000    0.07264    0.06016 =
         0.05666    0.00870    0.01263    0.01512
O1    4    0.413095    0.669075   -0.067699    11.00000    0.13201    0.09301 =
         0.06367    0.01169    0.03798    0.05060
O2    4    0.218231    0.863404   -0.070739    11.00000    0.14668    0.08410 =
         0.07060    0.02913    0.03123    0.04881
C1    1    0.146808    0.863483    0.262662    11.00000    0.04809    0.06028 =
         0.05872   -0.00573    0.00276    0.01504
C2    1    0.171401    0.733212    0.308630    11.00000    0.04722    0.06588 =
         0.04751    0.00346    0.00869    0.01387
C3    1    0.232416    0.611676    0.249951    11.00000    0.05206    0.05838 =
         0.05360    0.00445    0.00703    0.01322
C4    1    0.275175    0.623701    0.140643    11.00000    0.05695    0.04995 =
         0.05412    0.00442    0.01025    0.01585
AFIX  43
H4A   2    0.321100    0.545869    0.099056    11.00000   -1.20000
AFIX   0
C5    1    0.249455    0.752006    0.093158    11.00000    0.05328    0.05394 =
         0.05130    0.00401    0.00688    0.01032
C6    1    0.184599    0.871848    0.151749    11.00000    0.06091    0.04968 =
         0.06061    0.00454    0.00438    0.01685
AFIX  43
H6A   2    0.166711    0.956425    0.117323    11.00000   -1.20000
AFIX   0
C7    1    0.087363    0.996158    0.326983    11.00000    0.08392    0.07222 =
         0.07768   -0.01559    0.01019    0.02720
AFIX 137
H7A   2   -0.106796    0.967833    0.362959    11.00000   -1.50000
H7B   2    0.044471    1.067627    0.276471    11.00000   -1.50000
H7C   2    0.286661    1.037273    0.382368    11.00000   -1.50000
AFIX   0
C8    1    0.250180    0.470524    0.300777    11.00000    0.09049    0.06770 =
         0.06365    0.01953    0.01553    0.02253
AFIX 137
H8A   2    0.402634    0.490713    0.371568    11.00000   -1.50000
H8B   2    0.333489    0.407670    0.251723    11.00000   -1.50000
H8C   2    0.025744    0.423183    0.311450    11.00000   -1.50000
AFIX   0
HKLF 4
REM  nitro1c in P-1
REM R1 =  0.0449 for    1503 Fo > 4sig(Fo)  and  0.0495 for all    1697 data
REM    111 parameters refined using      0 restraints
END
WGHT      0.0690      0.2100
REM Highest difference peak  0.633,  deepest hole -0.589,  1-sigma level  0.081
Q1    1  -0.1095  0.7379  0.4237  11.00000  0.05    0.63
Q2    1   0.3743  0.7177  0.4977  11.00000  0.05    0.55
Q3    1  -0.2727  0.7177  0.3030  11.00000  0.05    0.25
Q4    1   0.4065  1.1149  0.4765  11.00000  0.05    0.23
Q5    1   0.5641  0.7138  0.4452  11.00000  0.05    0.23
Q6    1   0.2246  0.6719  0.2810  11.00000  0.05    0.22
Q7    1   0.3739  0.7026  0.1274  11.00000  0.05    0.22
Q8    1   0.5389  0.4741  0.3513  11.00000  0.05    0.22
Q9    1   0.0408  0.8032 -0.0609  11.00000  0.05    0.22
Q10   1  -0.0269  0.8898  0.2342  11.00000  0.05    0.21
;
_shelx_res_checksum              22770
loop_
_space_group_symop_operation_xyz
'x, y, z'
'-x, -y, -z'
loop_
_atom_site_type_symbol
_atom_site_label
_atom_site_fract_x
_atom_site_fract_y
_atom_site_fract_z
_atom_site_U_iso_or_equiv
_atom_site_adp_type
_atom_site_calc_flag
_atom_site_occupancy
Br Br1 0.11600(12) 0.72052(5) 0.45994(3) 0.0787(2) Uani d 1
N N1 0.2977(9) 0.7622(4) -0.0226(3) 0.0628(8) Uani d 1
O O1 0.4131(11) 0.6691(4) -0.0677(3) 0.0899(10) Uani d 1
O O2 0.2182(11) 0.8634(4) -0.0707(3) 0.0947(11) Uani d 1
C C1 0.1468(9) 0.8635(4) 0.2627(3) 0.0565(8) Uani d 1
C C2 0.1714(9) 0.7332(4) 0.3086(3) 0.0534(8) Uani d 1
C C3 0.2324(9) 0.6117(4) 0.2500(3) 0.0548(8) Uani d 1
C C4 0.2752(9) 0.6237(4) 0.1406(3) 0.0530(8) Uani d 1
H H4A 0.3211 0.5459 0.0991 0.064 Uiso calc 1
C C5 0.2495(9) 0.7520(4) 0.0932(3) 0.0533(8) Uani d 1
C C6 0.1846(10) 0.8718(4) 0.1517(3) 0.0571(8) Uani d 1
H H6A 0.1667 0.9564 0.1173 0.069 Uiso calc 1
C C7 0.0874(12) 0.9962(5) 0.3270(4) 0.0779(12) Uani d 1
H H7A -0.1068 0.9678 0.3630 0.117 Uiso calc 1
H H7B 0.0445 1.0676 0.2765 0.117 Uiso calc 1
H H7C 0.2867 1.0373 0.3824 0.117 Uiso calc 1
C C8 0.2502(13) 0.4705(5) 0.3008(4) 0.0724(11) Uani d 1
H H8A 0.4026 0.4907 0.3716 0.109 Uiso calc 1
H H8B 0.3335 0.4077 0.2517 0.109 Uiso calc 1
H H8C 0.0257 0.4232 0.3114 0.109 Uiso calc 1
loop_
_atom_site_aniso_label
_atom_site_aniso_U_11
_atom_site_aniso_U_22
_atom_site_aniso_U_33
_atom_site_aniso_U_12
_atom_site_aniso_U_13
_atom_site_aniso_U_23
Br1 0.0850(4) 0.0998(4) 0.0536(3) 0.0207(3) 0.0197(2) 0.0041(2)
N1 0.073(2) 0.0602(17) 0.0567(17) 0.0151(15) 0.0126(15) 0.0087(14)
O1 0.132(3) 0.093(2) 0.0637(18) 0.051(2) 0.0380(19) 0.0117(16)
O2 0.147(3) 0.084(2) 0.071(2) 0.049(2) 0.031(2) 0.0291(17)
C1 0.0481(17) 0.060(2) 0.059(2) 0.0150(15) 0.0028(14) -0.0057(16)
C2 0.0472(17) 0.066(2) 0.0475(17) 0.0139(14) 0.0087(13) 0.0035(15)
C3 0.0521(18) 0.0584(19) 0.0536(18) 0.0132(15) 0.0070(14) 0.0044(15)
C4 0.0570(19) 0.0500(17) 0.0541(19) 0.0158(14) 0.0103(14) 0.0044(14)
C5 0.0533(18) 0.0539(18) 0.0513(18) 0.0103(14) 0.0069(14) 0.0040(14)
C6 0.061(2) 0.0497(18) 0.061(2) 0.0169(15) 0.0044(16) 0.0045(15)
C7 0.084(3) 0.072(3) 0.078(3) 0.027(2) 0.010(2) -0.016(2)
C8 0.090(3) 0.068(2) 0.064(2) 0.023(2) 0.016(2) 0.0195(19)
loop_
_atom_type_symbol
_atom_type_description
_atom_type_scat_dispersion_real
_atom_type_scat_dispersion_imag
_atom_type_scat_source
C C 0.0181 0.0091 'International Tables Vol C Tables 4.2.6.8 and 6.1.1.4'
H H 0.0000 0.0000 'International Tables Vol C Tables 4.2.6.8 and 6.1.1.4'
N N 0.0311 0.0180 'International Tables Vol C Tables 4.2.6.8 and 6.1.1.4'
O O 0.0492 0.0322 'International Tables Vol C Tables 4.2.6.8 and 6.1.1.4'
Br Br -0.6763 1.2805 'International Tables Vol C Tables 4.2.6.8 and 6.1.1.4'
loop_
_geom_angle_atom_site_label_1
_geom_angle_atom_site_label_2
_geom_angle_atom_site_label_3
_geom_angle
O1 N1 O2 122.2(4)
O1 N1 C5 119.0(3)
O2 N1 C5 118.7(3)
C6 C1 C2 117.7(3)
C6 C1 C7 118.6(4)
C2 C1 C7 123.7(4)
C1 C2 C3 123.8(3)
C1 C2 Br1 117.9(3)
C3 C2 Br1 118.4(3)
C4 C3 C2 117.4(3)
C4 C3 C8 119.8(3)
C2 C3 C8 122.8(4)
C3 C4 C5 119.7(3)
C3 C4 H4A 120.2
C5 C4 H4A 120.2
C4 C5 C6 122.5(3)
C4 C5 N1 118.6(3)
C6 C5 N1 118.9(3)
C5 C6 C1 118.9(3)
C5 C6 H6A 120.5
C1 C6 H6A 120.5
C1 C7 H7A 109.5
C1 C7 H7B 109.5
H7A C7 H7B 109.5
C1 C7 H7C 109.5
H7A C7 H7C 109.5
H7B C7 H7C 109.5
C3 C8 H8A 109.5
C3 C8 H8B 109.5
H8A C8 H8B 109.5
C3 C8 H8C 109.5
H8A C8 H8C 109.5
H8B C8 H8C 109.5
loop_
_geom_bond_atom_site_label_1
_geom_bond_atom_site_label_2
_geom_bond_distance
Br1 C2 1.900(4)
N1 O1 1.214(4)
N1 O2 1.217(4)
N1 C5 1.460(5)
C1 C6 1.389(6)
C1 C2 1.390(5)
C1 C7 1.512(5)
C2 C3 1.394(5)
C3 C4 1.379(5)
C3 C8 1.506(5)
C4 C5 1.382(5)
C4 H4A 0.9300
C5 C6 1.388(5)
C6 H6A 0.9300
C7 H7A 0.9600
C7 H7B 0.9600
C7 H7C 0.9600
C8 H8A 0.9600
C8 H8B 0.9600
C8 H8C 0.9600
loop_
_geom_hbond_atom_site_label_D
_geom_hbond_atom_site_label_H
_geom_hbond_atom_site_label_A
_geom_hbond_site_symmetry_A
_geom_hbond_distance_DH
_geom_hbond_distance_HA
_geom_hbond_distance_DA
_geom_hbond_angle_DHA
_geom_hbond_publ_flag
C4 H4A O1 2_665 0.93 2.51 3.377(5) 156 yes
C6 H6A O2 2_575 0.93 2.55 3.351(5) 144 yes
loop_
_geom_torsion_atom_site_label_1
_geom_torsion_atom_site_label_2
_geom_torsion_atom_site_label_3
_geom_torsion_atom_site_label_4
_geom_torsion
C6 C1 C2 C3 0.2(5)
C7 C1 C2 C3 -178.8(4)
C6 C1 C2 Br1 -179.5(3)
C7 C1 C2 Br1 1.6(5)
C1 C2 C3 C4 1.0(5)
Br1 C2 C3 C4 -179.4(3)
C1 C2 C3 C8 -178.6(4)
Br1 C2 C3 C8 1.1(5)
C2 C3 C4 C5 -1.3(5)
C8 C3 C4 C5 178.2(3)
C3 C4 C5 C6 0.6(6)
C3 C4 C5 N1 179.7(3)
O1 N1 C5 C4 -12.0(5)
O2 N1 C5 C4 167.5(4)
O1 N1 C5 C6 167.1(4)
O2 N1 C5 C6 -13.4(5)
C4 C5 C6 C1 0.6(6)
N1 C5 C6 C1 -178.5(3)
C2 C1 C6 C5 -0.9(5)
C7 C1 C6 C5 178.1(4)

_cod_database_fobs_code 2241936
